MODEL        1
REMARK 921   NORMALIZED FREE ENERGY PREDICTED BY IDOCK:   -6.49 KCAL/MOL
REMARK 922        TOTAL FREE ENERGY PREDICTED BY IDOCK:   -7.38 KCAL/MOL
REMARK 923 INTER-LIGAND FREE ENERGY PREDICTED BY IDOCK:   -7.24 KCAL/MOL
REMARK 924 INTRA-LIGAND FREE ENERGY PREDICTED BY IDOCK:   -0.13 KCAL/MOL
REMARK 927      BINDING AFFINITY PREDICTED BY RF-SCORE:    0.00 PKD
ROOT
HETATM    1  N   UNL     1     -12.171  10.842  68.692  1.00  0.00    -0.827 NA 
HETATM    2  H2  UNL     1     -12.848  10.418  68.058  1.00  0.00     0.000 HD 
HETATM    3  N   UNL     1     -11.415  11.863  68.264  1.00  0.00    -0.286 NA 
HETATM    4  H1  UNL     1     -12.080  10.482  69.642  1.00  0.00     0.000 HD 
HETATM    5  H   UNL     1     -10.738  12.287  68.899  1.00  0.00     0.000 HD 
ENDROOT
BRANCH   3   6
HETATM    6  C   UNL     1     -11.532  12.327  67.039  1.00  0.00    -0.354 A  
HETATM    7  N   UNL     1     -12.283  13.487  66.955  1.00  0.00    -0.366 NA 
HETATM    8  N   UNL     1     -12.744  13.967  65.773  1.00  0.00    -0.499 NA 
HETATM    9  C   UNL     1     -12.059  13.733  64.601  1.00  0.00    -0.421 A  
HETATM   10  C   UNL     1     -11.137  12.561  64.576  1.00  0.00    -0.357 A  
HETATM   11  C   UNL     1     -10.948  11.796  65.747  1.00  0.00    -0.353 A  
HETATM   12  C   UNL     1     -10.234  10.595  65.636  1.00  0.00    -0.319 A  
HETATM   13  C   UNL     1     -10.526  12.190  63.367  1.00  0.00    -0.450 A  
HETATM   14  C   UNL     1      -9.640  10.219  64.424  1.00  0.00    -0.378 A  
HETATM   15  C   UNL     1      -9.764  11.027  63.300  1.00  0.00    -0.396 A  
BRANCH   9  16
HETATM   16  N   UNL     1     -12.203  14.458  63.519  1.00  0.00    -1.066 NA 
HETATM   17  H1  UNL     1     -12.272  16.368  62.870  1.00  0.00     0.000 HD 
HETATM   18  N   UNL     1     -12.161  15.803  63.712  1.00  0.00    -1.173 NA 
HETATM   19  H   UNL     1     -12.338  14.043  62.597  1.00  0.00     0.000 HD 
HETATM   20  H2  UNL     1     -12.026  16.218  64.633  1.00  0.00     0.000 HD 
ENDBRANCH   9  16
ENDBRANCH   3   6
TORSDOF 2
ENDMDL
MODEL        2
REMARK 921   NORMALIZED FREE ENERGY PREDICTED BY IDOCK:   -6.46 KCAL/MOL
REMARK 922        TOTAL FREE ENERGY PREDICTED BY IDOCK:   -7.35 KCAL/MOL
REMARK 923 INTER-LIGAND FREE ENERGY PREDICTED BY IDOCK:   -7.22 KCAL/MOL
REMARK 924 INTRA-LIGAND FREE ENERGY PREDICTED BY IDOCK:   -0.13 KCAL/MOL
REMARK 927      BINDING AFFINITY PREDICTED BY RF-SCORE:    0.00 PKD
ROOT
HETATM    1  N   UNL     1     -12.024  15.911  63.789  1.00  0.00    -1.266 NA 
HETATM    2  H2  UNL     1     -11.364  16.239  64.495  1.00  0.00     0.000 HD 
HETATM    3  N   UNL     1     -12.432  14.635  63.810  1.00  0.00    -1.068 NA 
HETATM    4  H1  UNL     1     -12.362  16.561  63.079  1.00  0.00     0.000 HD 
HETATM    5  H   UNL     1     -13.091  14.307  63.104  1.00  0.00     0.000 HD 
ENDROOT
BRANCH   3   6
HETATM    6  C   UNL     1     -11.996  13.798  64.726  1.00  0.00    -0.404 A  
HETATM    7  N   UNL     1     -12.455  14.082  66.001  1.00  0.00    -0.478 NA 
HETATM    8  N   UNL     1     -11.914  13.516  67.108  1.00  0.00    -0.389 NA 
HETATM    9  C   UNL     1     -11.347  12.262  67.054  1.00  0.00    -0.334 A  
HETATM   10  C   UNL     1     -10.886  11.782  65.719  1.00  0.00    -0.341 A  
HETATM   11  C   UNL     1     -11.109  12.580  64.576  1.00  0.00    -0.357 A  
HETATM   12  C   UNL     1     -10.492  12.193  63.378  1.00  0.00    -0.450 A  
HETATM   13  C   UNL     1     -10.171  10.578  65.628  1.00  0.00    -0.315 A  
HETATM   14  C   UNL     1      -9.765  10.998  63.295  1.00  0.00    -0.396 A  
HETATM   15  C   UNL     1      -9.626  10.180  64.410  1.00  0.00    -0.366 A  
BRANCH   9  16
HETATM   16  N   UNL     1     -11.167  11.500  68.105  1.00  0.00    -0.248 NA 
HETATM   17  H1  UNL     1     -12.139  10.269  69.375  1.00  0.00     0.000 HD 
HETATM   18  N   UNL     1     -12.279  10.862  68.557  1.00  0.00    -0.809 NA 
HETATM   19  H   UNL     1     -10.257  11.394  68.553  1.00  0.00     0.000 HD 
HETATM   20  H2  UNL     1     -13.189  10.969  68.109  1.00  0.00     0.000 HD 
ENDBRANCH   9  16
ENDBRANCH   3   6
TORSDOF 2
ENDMDL
MODEL        3
REMARK 921   NORMALIZED FREE ENERGY PREDICTED BY IDOCK:   -6.33 KCAL/MOL
REMARK 922        TOTAL FREE ENERGY PREDICTED BY IDOCK:   -7.20 KCAL/MOL
REMARK 923 INTER-LIGAND FREE ENERGY PREDICTED BY IDOCK:   -7.07 KCAL/MOL
REMARK 924 INTRA-LIGAND FREE ENERGY PREDICTED BY IDOCK:   -0.13 KCAL/MOL
REMARK 927      BINDING AFFINITY PREDICTED BY RF-SCORE:    0.00 PKD
ROOT
HETATM    1  N   UNL     1     -12.032  15.852  63.757  1.00  0.00    -1.266 NA 
HETATM    2  H2  UNL     1     -12.570  15.249  64.379  1.00  0.00     0.000 HD 
HETATM    3  N   UNL     1     -11.111  16.679  64.272  1.00  0.00    -1.336 NA 
HETATM    4  H1  UNL     1     -12.204  15.817  62.752  1.00  0.00     0.000 HD 
HETATM    5  H   UNL     1     -10.573  17.283  63.649  1.00  0.00     0.000 HD 
ENDROOT
BRANCH   3   6
HETATM    6  C   UNL     1     -10.890  16.724  65.568  1.00  0.00    -0.129 A  
HETATM    7  N   UNL     1     -11.011  15.496  66.195  1.00  0.00    -0.290 NA 
HETATM    8  N   UNL     1     -11.091  15.376  67.543  1.00  0.00    -0.320 NA 
HETATM    9  C   UNL     1     -10.487  16.297  68.370  1.00  0.00    -0.282 A  
HETATM   10  C   UNL     1     -10.208  17.645  67.796  1.00  0.00    -0.354 A  
HETATM   11  C   UNL     1     -10.500  17.900  66.439  1.00  0.00    -0.318 A  
HETATM   12  C   UNL     1     -10.412  19.224  65.988  1.00  0.00    -0.573 A  
HETATM   13  C   UNL     1      -9.730  18.665  68.633  1.00  0.00    -0.418 A  
HETATM   14  C   UNL     1      -9.950  20.243  66.832  1.00  0.00    -0.592 A  
HETATM   15  C   UNL     1      -9.585  19.960  68.142  1.00  0.00    -0.463 A  
BRANCH   9  16
HETATM   16  N   UNL     1     -10.181  16.058  69.622  1.00  0.00    -0.270 NA 
HETATM   17  H1  UNL     1      -9.024  14.890  70.793  1.00  0.00     0.000 HD 
HETATM   18  N   UNL     1      -9.262  15.076  69.818  1.00  0.00    -0.457 NA 
HETATM   19  H   UNL     1     -10.604  16.572  70.395  1.00  0.00     0.000 HD 
HETATM   20  H2  UNL     1      -8.839  14.562  69.046  1.00  0.00     0.000 HD 
ENDBRANCH   9  16
ENDBRANCH   3   6
TORSDOF 2
ENDMDL
MODEL        4
REMARK 921   NORMALIZED FREE ENERGY PREDICTED BY IDOCK:   -6.25 KCAL/MOL
REMARK 922        TOTAL FREE ENERGY PREDICTED BY IDOCK:   -7.11 KCAL/MOL
REMARK 923 INTER-LIGAND FREE ENERGY PREDICTED BY IDOCK:   -7.20 KCAL/MOL
REMARK 924 INTRA-LIGAND FREE ENERGY PREDICTED BY IDOCK:    0.09 KCAL/MOL
REMARK 927      BINDING AFFINITY PREDICTED BY RF-SCORE:    0.00 PKD
ROOT
HETATM    1  N   UNL     1     -10.048  18.951  65.785  1.00  0.00    -0.500 NA 
HETATM    2  H2  UNL     1     -10.529  19.060  64.892  1.00  0.00     0.000 HD 
HETATM    3  N   UNL     1     -10.089  17.769  66.418  1.00  0.00    -0.344 NA 
HETATM    4  H1  UNL     1      -9.542  19.743  66.183  1.00  0.00     0.000 HD 
HETATM    5  H   UNL     1      -9.608  17.661  67.311  1.00  0.00     0.000 HD 
ENDROOT
BRANCH   3   6
HETATM    6  C   UNL     1     -10.741  16.748  65.905  1.00  0.00    -0.163 A  
HETATM    7  N   UNL     1     -11.065  16.912  64.568  1.00  0.00    -1.071 NA 
HETATM    8  N   UNL     1     -11.957  16.110  63.937  1.00  0.00    -0.864 NA 
HETATM    9  C   UNL     1     -12.137  14.803  64.334  1.00  0.00    -0.440 A  
HETATM   10  C   UNL     1     -11.742  14.458  65.731  1.00  0.00    -0.362 A  
HETATM   11  C   UNL     1     -11.146  15.440  66.550  1.00  0.00    -0.227 A  
HETATM   12  C   UNL     1     -10.971  15.140  67.909  1.00  0.00    -0.302 A  
HETATM   13  C   UNL     1     -12.038  13.182  66.235  1.00  0.00    -0.460 A  
HETATM   14  C   UNL     1     -11.283  13.871  68.412  1.00  0.00    -0.291 A  
HETATM   15  C   UNL     1     -11.790  12.886  67.573  1.00  0.00    -0.407 A  
BRANCH   9  16
HETATM   16  N   UNL     1     -12.659  13.877  63.568  1.00  0.00    -0.991 NA 
HETATM   17  H1  UNL     1     -12.176  12.278  62.436  1.00  0.00     0.000 HD 
HETATM   18  N   UNL     1     -11.770  12.999  63.031  1.00  0.00    -0.774 NA 
HETATM   19  H   UNL     1     -13.661  13.818  63.388  1.00  0.00     0.000 HD 
HETATM   20  H2  UNL     1     -10.768  13.058  63.212  1.00  0.00     0.000 HD 
ENDBRANCH   9  16
ENDBRANCH   3   6
TORSDOF 2
ENDMDL
MODEL        5
REMARK 921   NORMALIZED FREE ENERGY PREDICTED BY IDOCK:   -6.19 KCAL/MOL
REMARK 922        TOTAL FREE ENERGY PREDICTED BY IDOCK:   -7.05 KCAL/MOL
REMARK 923 INTER-LIGAND FREE ENERGY PREDICTED BY IDOCK:   -6.92 KCAL/MOL
REMARK 924 INTRA-LIGAND FREE ENERGY PREDICTED BY IDOCK:   -0.13 KCAL/MOL
REMARK 927      BINDING AFFINITY PREDICTED BY RF-SCORE:    0.00 PKD
ROOT
HETATM    1  N   UNL     1     -10.806  14.874  70.203  1.00  0.00    -0.433 NA 
HETATM    2  H2  UNL     1     -11.762  15.125  69.953  1.00  0.00     0.000 HD 
HETATM    3  N   UNL     1      -9.805  15.160  69.357  1.00  0.00    -0.309 NA 
HETATM    4  H1  UNL     1     -10.625  14.409  71.093  1.00  0.00     0.000 HD 
HETATM    5  H   UNL     1      -8.849  14.909  69.608  1.00  0.00     0.000 HD 
ENDROOT
BRANCH   3   6
HETATM    6  C   UNL     1     -10.038  15.760  68.210  1.00  0.00    -0.222 A  
HETATM    7  N   UNL     1     -10.336  14.886  67.178  1.00  0.00    -0.257 NA 
HETATM    8  N   UNL     1     -10.340  15.275  65.879  1.00  0.00    -0.306 NA 
HETATM    9  C   UNL     1     -10.640  16.573  65.531  1.00  0.00    -0.295 A  
HETATM   10  C   UNL     1     -10.454  17.618  66.581  1.00  0.00    -0.286 A  
HETATM   11  C   UNL     1     -10.056  17.237  67.880  1.00  0.00    -0.317 A  
HETATM   12  C   UNL     1      -9.701  18.253  68.779  1.00  0.00    -0.348 A  
HETATM   13  C   UNL     1     -10.604  18.971  66.241  1.00  0.00    -0.493 A  
HETATM   14  C   UNL     1      -9.837  19.603  68.430  1.00  0.00    -0.531 A  
HETATM   15  C   UNL     1     -10.312  19.961  67.174  1.00  0.00    -0.581 A  
BRANCH   9  16
HETATM   16  N   UNL     1     -11.043  16.931  64.337  1.00  0.00    -1.200 NA 
HETATM   17  H1  UNL     1     -12.229  16.355  62.809  1.00  0.00     0.000 HD 
HETATM   18  N   UNL     1     -11.916  16.077  63.739  1.00  0.00    -1.339 NA 
HETATM   19  H   UNL     1     -10.724  17.789  63.887  1.00  0.00     0.000 HD 
HETATM   20  H2  UNL     1     -12.235  15.220  64.188  1.00  0.00     0.000 HD 
ENDBRANCH   9  16
ENDBRANCH   3   6
TORSDOF 2
ENDMDL
MODEL        6
REMARK 921   NORMALIZED FREE ENERGY PREDICTED BY IDOCK:   -6.17 KCAL/MOL
REMARK 922        TOTAL FREE ENERGY PREDICTED BY IDOCK:   -7.03 KCAL/MOL
REMARK 923 INTER-LIGAND FREE ENERGY PREDICTED BY IDOCK:   -6.91 KCAL/MOL
REMARK 924 INTRA-LIGAND FREE ENERGY PREDICTED BY IDOCK:   -0.11 KCAL/MOL
REMARK 927      BINDING AFFINITY PREDICTED BY RF-SCORE:    0.00 PKD
ROOT
HETATM    1  N   UNL     1     -11.638  16.217  63.833  1.00  0.00    -1.573 NA 
HETATM    2  H2  UNL     1     -10.725  16.236  64.287  1.00  0.00     0.000 HD 
HETATM    3  N   UNL     1     -12.320  15.064  63.769  1.00  0.00    -1.058 NA 
HETATM    4  H1  UNL     1     -12.019  17.076  63.435  1.00  0.00     0.000 HD 
HETATM    5  H   UNL     1     -13.233  15.045  63.314  1.00  0.00     0.000 HD 
ENDROOT
BRANCH   3   6
HETATM    6  C   UNL     1     -11.829  13.957  64.282  1.00  0.00    -0.412 A  
HETATM    7  N   UNL     1     -11.376  13.058  63.331  1.00  0.00    -0.286 NA 
HETATM    8  N   UNL     1     -11.091  11.767  63.634  1.00  0.00    -0.420 NA 
HETATM    9  C   UNL     1     -10.657  11.417  64.893  1.00  0.00    -0.307 A  
HETATM   10  C   UNL     1     -10.995  12.347  66.011  1.00  0.00    -0.324 A  
HETATM   11  C   UNL     1     -11.666  13.556  65.733  1.00  0.00    -0.371 A  
HETATM   12  C   UNL     1     -12.140  14.306  66.819  1.00  0.00    -0.446 A  
HETATM   13  C   UNL     1     -10.707  11.970  67.332  1.00  0.00    -0.266 A  
HETATM   14  C   UNL     1     -11.865  13.918  68.137  1.00  0.00    -0.407 A  
HETATM   15  C   UNL     1     -11.129  12.767  68.392  1.00  0.00    -0.293 A  
BRANCH   9  16
HETATM   16  N   UNL     1     -10.003  10.312  65.155  1.00  0.00    -0.319 NA 
HETATM   17  H1  UNL     1      -9.085   8.748  64.271  1.00  0.00     0.000 HD 
HETATM   18  N   UNL     1      -9.593   9.608  64.067  1.00  0.00    -0.428 NA 
HETATM   19  H   UNL     1      -9.816  10.001  66.108  1.00  0.00     0.000 HD 
HETATM   20  H2  UNL     1      -9.781   9.919  63.114  1.00  0.00     0.000 HD 
ENDBRANCH   9  16
ENDBRANCH   3   6
TORSDOF 2
ENDMDL
MODEL        7
REMARK 921   NORMALIZED FREE ENERGY PREDICTED BY IDOCK:   -6.08 KCAL/MOL
REMARK 922        TOTAL FREE ENERGY PREDICTED BY IDOCK:   -6.92 KCAL/MOL
REMARK 923 INTER-LIGAND FREE ENERGY PREDICTED BY IDOCK:   -6.84 KCAL/MOL
REMARK 924 INTRA-LIGAND FREE ENERGY PREDICTED BY IDOCK:   -0.08 KCAL/MOL
REMARK 927      BINDING AFFINITY PREDICTED BY RF-SCORE:    0.00 PKD
ROOT
HETATM    1  N   UNL     1     -12.133  13.127  63.003  1.00  0.00    -0.829 NA 
HETATM    2  H2  UNL     1     -11.225  12.777  63.309  1.00  0.00     0.000 HD 
HETATM    3  N   UNL     1     -12.652  14.216  63.588  1.00  0.00    -0.983 NA 
HETATM    4  H1  UNL     1     -12.632  12.642  62.257  1.00  0.00     0.000 HD 
HETATM    5  H   UNL     1     -13.560  14.565  63.283  1.00  0.00     0.000 HD 
ENDROOT
BRANCH   3   6
HETATM    6  C   UNL     1     -12.008  14.840  64.550  1.00  0.00    -0.440 A  
HETATM    7  N   UNL     1     -11.589  16.114  64.202  1.00  0.00    -0.822 NA 
HETATM    8  N   UNL     1     -10.688  16.807  64.942  1.00  0.00    -0.715 NA 
HETATM    9  C   UNL     1     -10.587  16.606  66.301  1.00  0.00    -0.205 A  
HETATM   10  C   UNL     1     -11.087  15.305  66.834  1.00  0.00    -0.288 A  
HETATM   11  C   UNL     1     -11.698  14.381  65.959  1.00  0.00    -0.378 A  
HETATM   12  C   UNL     1     -11.974  13.098  66.453  1.00  0.00    -0.462 A  
HETATM   13  C   UNL     1     -10.875  14.987  68.185  1.00  0.00    -0.263 A  
HETATM   14  C   UNL     1     -11.746  12.779  67.798  1.00  0.00    -0.412 A  
HETATM   15  C   UNL     1     -11.223  13.728  68.667  1.00  0.00    -0.308 A  
BRANCH   9  16
HETATM   16  N   UNL     1     -10.051  17.472  67.125  1.00  0.00    -0.310 NA 
HETATM   17  H1  UNL     1     -10.353  19.286  67.958  1.00  0.00     0.000 HD 
HETATM   18  N   UNL     1     -10.769  18.611  67.316  1.00  0.00    -0.424 NA 
HETATM   19  H   UNL     1      -9.159  17.305  67.590  1.00  0.00     0.000 HD 
HETATM   20  H2  UNL     1     -11.661  18.778  66.852  1.00  0.00     0.000 HD 
ENDBRANCH   9  16
ENDBRANCH   3   6
TORSDOF 2
ENDMDL
MODEL        8
REMARK 921   NORMALIZED FREE ENERGY PREDICTED BY IDOCK:   -6.06 KCAL/MOL
REMARK 922        TOTAL FREE ENERGY PREDICTED BY IDOCK:   -6.90 KCAL/MOL
REMARK 923 INTER-LIGAND FREE ENERGY PREDICTED BY IDOCK:   -6.84 KCAL/MOL
REMARK 924 INTRA-LIGAND FREE ENERGY PREDICTED BY IDOCK:   -0.06 KCAL/MOL
REMARK 927      BINDING AFFINITY PREDICTED BY RF-SCORE:    0.00 PKD
ROOT
HETATM    1  N   UNL     1     -12.474  11.608  63.056  1.00  0.00    -0.937 NA 
HETATM    2  H2  UNL     1     -11.505  11.663  62.744  1.00  0.00     0.000 HD 
HETATM    3  N   UNL     1     -12.948  12.533  63.904  1.00  0.00    -0.750 NA 
HETATM    4  H1  UNL     1     -13.069  10.852  62.718  1.00  0.00     0.000 HD 
HETATM    5  H   UNL     1     -13.917  12.478  64.216  1.00  0.00     0.000 HD 
ENDROOT
BRANCH   3   6
HETATM    6  C   UNL     1     -12.181  13.509  64.340  1.00  0.00    -0.390 A  
HETATM    7  N   UNL     1     -12.583  14.763  63.913  1.00  0.00    -0.772 NA 
HETATM    8  N   UNL     1     -11.786  15.855  64.023  1.00  0.00    -0.671 NA 
HETATM    9  C   UNL     1     -10.856  15.950  65.034  1.00  0.00    -0.426 A  
HETATM   10  C   UNL     1     -10.396  14.674  65.656  1.00  0.00    -0.370 A  
HETATM   11  C   UNL     1     -10.970  13.452  65.247  1.00  0.00    -0.306 A  
HETATM   12  C   UNL     1     -10.380  12.266  65.706  1.00  0.00    -0.287 A  
HETATM   13  C   UNL     1      -9.345  14.701  66.586  1.00  0.00    -0.293 A  
HETATM   14  C   UNL     1      -9.320  12.296  66.621  1.00  0.00    -0.228 A  
HETATM   15  C   UNL     1      -8.821  13.509  67.080  1.00  0.00    -0.231 A  
BRANCH   9  16
HETATM   16  N   UNL     1     -10.342  17.084  65.444  1.00  0.00    -0.641 NA 
HETATM   17  H1  UNL     1     -10.567  19.085  65.308  1.00  0.00     0.000 HD 
HETATM   18  N   UNL     1     -10.967  18.202  64.989  1.00  0.00    -0.540 NA 
HETATM   19  H   UNL     1      -9.530  17.125  66.059  1.00  0.00     0.000 HD 
HETATM   20  H2  UNL     1     -11.778  18.162  64.373  1.00  0.00     0.000 HD 
ENDBRANCH   9  16
ENDBRANCH   3   6
TORSDOF 2
ENDMDL
MODEL        9
REMARK 921   NORMALIZED FREE ENERGY PREDICTED BY IDOCK:   -6.04 KCAL/MOL
REMARK 922        TOTAL FREE ENERGY PREDICTED BY IDOCK:   -6.88 KCAL/MOL
REMARK 923 INTER-LIGAND FREE ENERGY PREDICTED BY IDOCK:   -6.75 KCAL/MOL
REMARK 924 INTRA-LIGAND FREE ENERGY PREDICTED BY IDOCK:   -0.13 KCAL/MOL
REMARK 927      BINDING AFFINITY PREDICTED BY RF-SCORE:    0.00 PKD
ROOT
HETATM    1  N   UNL     1     -12.157  10.774  68.739  1.00  0.00    -0.785 NA 
HETATM    2  H2  UNL     1     -13.063  11.159  68.470  1.00  0.00     0.000 HD 
HETATM    3  N   UNL     1     -11.135  10.824  67.873  1.00  0.00    -0.287 NA 
HETATM    4  H1  UNL     1     -12.044  10.357  69.663  1.00  0.00     0.000 HD 
HETATM    5  H   UNL     1     -10.230  10.439  68.141  1.00  0.00     0.000 HD 
ENDROOT
BRANCH   3   6
HETATM    6  C   UNL     1     -11.283  11.361  66.681  1.00  0.00    -0.231 A  
HETATM    7  N   UNL     1     -12.213  12.387  66.646  1.00  0.00    -0.497 NA 
HETATM    8  N   UNL     1     -12.703  12.880  65.482  1.00  0.00    -0.544 NA 
HETATM    9  C   UNL     1     -11.945  12.858  64.332  1.00  0.00    -0.395 A  
HETATM   10  C   UNL     1     -10.839  11.859  64.266  1.00  0.00    -0.396 A  
HETATM   11  C   UNL     1     -10.570  11.042  65.384  1.00  0.00    -0.270 A  
HETATM   12  C   UNL     1      -9.661   9.987  65.220  1.00  0.00    -0.373 A  
HETATM   13  C   UNL     1     -10.130  11.693  63.065  1.00  0.00    -0.311 A  
HETATM   14  C   UNL     1      -8.968   9.814  64.015  1.00  0.00    -0.275 A  
HETATM   15  C   UNL     1      -9.182  10.681  62.950  1.00  0.00    -0.317 A  
BRANCH   9  16
HETATM   16  N   UNL     1     -12.167  13.637  63.301  1.00  0.00    -1.063 NA 
HETATM   17  H1  UNL     1     -12.636  15.535  62.801  1.00  0.00     0.000 HD 
HETATM   18  N   UNL     1     -12.463  14.929  63.603  1.00  0.00    -1.008 NA 
HETATM   19  H   UNL     1     -12.121  13.297  62.341  1.00  0.00     0.000 HD 
HETATM   20  H2  UNL     1     -12.509  15.268  64.563  1.00  0.00     0.000 HD 
ENDBRANCH   9  16
ENDBRANCH   3   6
TORSDOF 2
ENDMDL
MODEL       10
REMARK 921   NORMALIZED FREE ENERGY PREDICTED BY IDOCK:   -5.99 KCAL/MOL
REMARK 922        TOTAL FREE ENERGY PREDICTED BY IDOCK:   -6.82 KCAL/MOL
REMARK 923 INTER-LIGAND FREE ENERGY PREDICTED BY IDOCK:   -6.69 KCAL/MOL
REMARK 924 INTRA-LIGAND FREE ENERGY PREDICTED BY IDOCK:   -0.13 KCAL/MOL
REMARK 927      BINDING AFFINITY PREDICTED BY RF-SCORE:    0.00 PKD
ROOT
HETATM    1  N   UNL     1     -11.466  10.589  67.483  1.00  0.00    -0.541 NA 
HETATM    2  H2  UNL     1     -10.626  10.620  66.905  1.00  0.00     0.000 HD 
HETATM    3  N   UNL     1     -12.144  11.720  67.723  1.00  0.00    -0.560 NA 
HETATM    4  H1  UNL     1     -11.777   9.697  67.868  1.00  0.00     0.000 HD 
HETATM    5  H   UNL     1     -12.984  11.689  68.301  1.00  0.00     0.000 HD 
ENDROOT
BRANCH   3   6
HETATM    6  C   UNL     1     -11.743  12.870  67.226  1.00  0.00    -0.373 A  
HETATM    7  N   UNL     1     -11.751  12.908  65.841  1.00  0.00    -0.377 NA 
HETATM    8  N   UNL     1     -11.126  13.887  65.141  1.00  0.00    -0.320 NA 
HETATM    9  C   UNL     1     -10.978  15.150  65.671  1.00  0.00    -0.355 A  
HETATM   10  C   UNL     1     -11.040  15.274  67.157  1.00  0.00    -0.323 A  
HETATM   11  C   UNL     1     -11.314  14.133  67.941  1.00  0.00    -0.318 A  
HETATM   12  C   UNL     1     -11.170  14.246  69.331  1.00  0.00    -0.313 A  
HETATM   13  C   UNL     1     -10.750  16.509  67.758  1.00  0.00    -0.329 A  
HETATM   14  C   UNL     1     -10.864  15.476  69.927  1.00  0.00    -0.311 A  
HETATM   15  C   UNL     1     -10.680  16.610  69.144  1.00  0.00    -0.342 A  
BRANCH   9  16
HETATM   16  N   UNL     1     -10.756  16.220  64.948  1.00  0.00    -0.685 NA 
HETATM   17  H1  UNL     1     -11.359  17.173  63.275  1.00  0.00     0.000 HD 
HETATM   18  N   UNL     1     -11.531  16.341  63.838  1.00  0.00    -1.539 NA 
HETATM   19  H   UNL     1     -10.051  16.912  65.199  1.00  0.00     0.000 HD 
HETATM   20  H2  UNL     1     -12.236  15.648  63.586  1.00  0.00     0.000 HD 
ENDBRANCH   9  16
ENDBRANCH   3   6
TORSDOF 2
ENDMDL
MODEL       11
REMARK 921   NORMALIZED FREE ENERGY PREDICTED BY IDOCK:   -5.97 KCAL/MOL
REMARK 922        TOTAL FREE ENERGY PREDICTED BY IDOCK:   -6.80 KCAL/MOL
REMARK 923 INTER-LIGAND FREE ENERGY PREDICTED BY IDOCK:   -6.68 KCAL/MOL
REMARK 924 INTRA-LIGAND FREE ENERGY PREDICTED BY IDOCK:   -0.12 KCAL/MOL
REMARK 927      BINDING AFFINITY PREDICTED BY RF-SCORE:    0.00 PKD
ROOT
HETATM    1  N   UNL     1     -12.310  14.580  63.703  1.00  0.00    -1.104 NA 
HETATM    2  H2  UNL     1     -13.035  15.294  63.774  1.00  0.00     0.000 HD 
HETATM    3  N   UNL     1     -11.164  14.732  64.382  1.00  0.00    -0.640 NA 
HETATM    4  H1  UNL     1     -12.468  13.761  63.115  1.00  0.00     0.000 HD 
HETATM    5  H   UNL     1     -10.439  14.018  64.311  1.00  0.00     0.000 HD 
ENDROOT
BRANCH   3   6
HETATM    6  C   UNL     1     -10.961  15.788  65.140  1.00  0.00    -0.382 A  
HETATM    7  N   UNL     1     -11.142  16.990  64.477  1.00  0.00    -1.062 NA 
HETATM    8  N   UNL     1     -10.723  18.172  64.994  1.00  0.00    -0.412 NA 
HETATM    9  C   UNL     1     -10.657  18.363  66.356  1.00  0.00    -0.309 A  
HETATM   10  C   UNL     1     -10.552  17.142  67.208  1.00  0.00    -0.270 A  
HETATM   11  C   UNL     1     -10.596  15.866  66.608  1.00  0.00    -0.305 A  
HETATM   12  C   UNL     1     -10.297  14.755  67.409  1.00  0.00    -0.242 A  
HETATM   13  C   UNL     1     -10.334  17.282  68.588  1.00  0.00    -0.357 A  
HETATM   14  C   UNL     1     -10.064  14.900  68.783  1.00  0.00    -0.241 A  
HETATM   15  C   UNL     1     -10.108  16.156  69.375  1.00  0.00    -0.256 A  
BRANCH   9  16
HETATM   16  N   UNL     1     -10.649  19.543  66.925  1.00  0.00    -0.469 NA 
HETATM   17  H1  UNL     1      -9.668  21.306  66.938  1.00  0.00     0.000 HD 
HETATM   18  N   UNL     1      -9.674  20.388  66.496  1.00  0.00    -0.630 NA 
HETATM   19  H   UNL     1     -11.326  19.810  67.639  1.00  0.00     0.000 HD 
HETATM   20  H2  UNL     1      -8.997  20.121  65.782  1.00  0.00     0.000 HD 
ENDBRANCH   9  16
ENDBRANCH   3   6
TORSDOF 2
ENDMDL
MODEL       12
REMARK 921   NORMALIZED FREE ENERGY PREDICTED BY IDOCK:   -5.94 KCAL/MOL
REMARK 922        TOTAL FREE ENERGY PREDICTED BY IDOCK:   -6.77 KCAL/MOL
REMARK 923 INTER-LIGAND FREE ENERGY PREDICTED BY IDOCK:   -6.62 KCAL/MOL
REMARK 924 INTRA-LIGAND FREE ENERGY PREDICTED BY IDOCK:   -0.14 KCAL/MOL
REMARK 927      BINDING AFFINITY PREDICTED BY RF-SCORE:    0.00 PKD
ROOT
HETATM    1  N   UNL     1     -11.532  16.284  64.066  1.00  0.00    -1.521 NA 
HETATM    2  H2  UNL     1     -12.531  16.163  64.234  1.00  0.00     0.000 HD 
HETATM    3  N   UNL     1     -10.652  15.549  64.762  1.00  0.00    -0.613 NA 
HETATM    4  H1  UNL     1     -11.218  16.962  63.372  1.00  0.00     0.000 HD 
HETATM    5  H   UNL     1      -9.654  15.670  64.594  1.00  0.00     0.000 HD 
ENDROOT
BRANCH   3   6
HETATM    6  C   UNL     1     -11.058  14.674  65.656  1.00  0.00    -0.338 A  
HETATM    7  N   UNL     1     -11.219  13.395  65.149  1.00  0.00    -0.299 NA 
HETATM    8  N   UNL     1     -11.878  12.425  65.829  1.00  0.00    -0.478 NA 
HETATM    9  C   UNL     1     -11.901  12.418  67.206  1.00  0.00    -0.287 A  
HETATM   10  C   UNL     1     -11.650  13.717  67.895  1.00  0.00    -0.376 A  
HETATM   11  C   UNL     1     -11.334  14.862  67.133  1.00  0.00    -0.348 A  
HETATM   12  C   UNL     1     -11.300  16.098  67.793  1.00  0.00    -0.126 A  
HETATM   13  C   UNL     1     -11.805  13.799  69.288  1.00  0.00    -0.392 A  
HETATM   14  C   UNL     1     -11.472  16.179  69.181  1.00  0.00    -0.311 A  
HETATM   15  C   UNL     1     -11.698  15.030  69.930  1.00  0.00    -0.343 A  
BRANCH   9  16
HETATM   16  N   UNL     1     -12.159  11.352  67.923  1.00  0.00    -0.621 NA 
HETATM   17  H1  UNL     1     -11.528   9.468  68.274  1.00  0.00     0.000 HD 
HETATM   18  N   UNL     1     -11.327  10.297  67.716  1.00  0.00    -0.568 NA 
HETATM   19  H   UNL     1     -12.931  11.316  68.588  1.00  0.00     0.000 HD 
HETATM   20  H2  UNL     1     -10.556  10.333  67.050  1.00  0.00     0.000 HD 
ENDBRANCH   9  16
ENDBRANCH   3   6
TORSDOF 2
ENDMDL
MODEL       13
REMARK 921   NORMALIZED FREE ENERGY PREDICTED BY IDOCK:   -5.80 KCAL/MOL
REMARK 922        TOTAL FREE ENERGY PREDICTED BY IDOCK:   -6.61 KCAL/MOL
REMARK 923 INTER-LIGAND FREE ENERGY PREDICTED BY IDOCK:   -6.48 KCAL/MOL
REMARK 924 INTRA-LIGAND FREE ENERGY PREDICTED BY IDOCK:   -0.13 KCAL/MOL
REMARK 927      BINDING AFFINITY PREDICTED BY RF-SCORE:    0.00 PKD
ROOT
HETATM    1  N   UNL     1     -13.311   9.875  70.674  1.00  0.00    -0.612 NA 
HETATM    2  H2  UNL     1     -14.297  10.125  70.749  1.00  0.00     0.000 HD 
HETATM    3  N   UNL     1     -12.375  10.819  70.848  1.00  0.00    -0.361 NA 
HETATM    4  H1  UNL     1     -13.052   8.910  70.468  1.00  0.00     0.000 HD 
HETATM    5  H   UNL     1     -11.389  10.569  70.773  1.00  0.00     0.000 HD 
ENDROOT
BRANCH   3   6
HETATM    6  C   UNL     1     -12.708  12.064  71.113  1.00  0.00    -0.266 A  
HETATM    7  N   UNL     1     -13.463  12.202  72.266  1.00  0.00    -0.380 NA 
HETATM    8  N   UNL     1     -14.127  13.346  72.564  1.00  0.00    -0.735 NA 
HETATM    9  C   UNL     1     -13.661  14.567  72.126  1.00  0.00    -0.450 A  
HETATM   10  C   UNL     1     -12.757  14.563  70.940  1.00  0.00    -0.411 A  
HETATM   11  C   UNL     1     -12.363  13.335  70.367  1.00  0.00    -0.365 A  
HETATM   12  C   UNL     1     -11.679  13.374  69.143  1.00  0.00    -0.375 A  
HETATM   13  C   UNL     1     -12.371  15.783  70.363  1.00  0.00    -0.367 A  
HETATM   14  C   UNL     1     -11.310  14.594  68.562  1.00  0.00    -0.305 A  
HETATM   15  C   UNL     1     -11.632  15.794  69.183  1.00  0.00    -0.399 A  
BRANCH   9  16
HETATM   16  N   UNL     1     -13.995  15.710  72.673  1.00  0.00    -0.571 NA 
HETATM   17  H1  UNL     1     -13.611  16.898  74.258  1.00  0.00     0.000 HD 
HETATM   18  N   UNL     1     -13.351  16.009  73.833  1.00  0.00    -0.885 NA 
HETATM   19  H   UNL     1     -14.689  16.331  72.259  1.00  0.00     0.000 HD 
HETATM   20  H2  UNL     1     -12.657  15.388  74.247  1.00  0.00     0.000 HD 
ENDBRANCH   9  16
ENDBRANCH   3   6
TORSDOF 2
ENDMDL
MODEL       14
REMARK 921   NORMALIZED FREE ENERGY PREDICTED BY IDOCK:   -5.73 KCAL/MOL
REMARK 922        TOTAL FREE ENERGY PREDICTED BY IDOCK:   -6.53 KCAL/MOL
REMARK 923 INTER-LIGAND FREE ENERGY PREDICTED BY IDOCK:   -6.48 KCAL/MOL
REMARK 924 INTRA-LIGAND FREE ENERGY PREDICTED BY IDOCK:   -0.05 KCAL/MOL
REMARK 927      BINDING AFFINITY PREDICTED BY RF-SCORE:    0.00 PKD
ROOT
HETATM    1  N   UNL     1     -11.691  16.435  63.835  1.00  0.00    -1.527 NA 
HETATM    2  H2  UNL     1     -11.063  16.915  64.479  1.00  0.00     0.000 HD 
HETATM    3  N   UNL     1     -11.964  15.136  64.024  1.00  0.00    -0.913 NA 
HETATM    4  H1  UNL     1     -12.104  16.952  63.058  1.00  0.00     0.000 HD 
HETATM    5  H   UNL     1     -12.592  14.656  63.380  1.00  0.00     0.000 HD 
ENDROOT
BRANCH   3   6
HETATM    6  C   UNL     1     -11.432  14.471  65.026  1.00  0.00    -0.382 A  
HETATM    7  N   UNL     1     -11.489  15.147  66.233  1.00  0.00    -0.225 NA 
HETATM    8  N   UNL     1     -10.767  14.761  67.314  1.00  0.00    -0.288 NA 
HETATM    9  C   UNL     1     -10.430  13.439  67.502  1.00  0.00    -0.236 A  
HETATM   10  C   UNL     1     -10.417  12.563  66.294  1.00  0.00    -0.268 A  
HETATM   11  C   UNL     1     -10.811  13.090  65.046  1.00  0.00    -0.328 A  
HETATM   12  C   UNL     1     -10.599  12.301  63.907  1.00  0.00    -0.462 A  
HETATM   13  C   UNL     1      -9.941  11.247  66.403  1.00  0.00    -0.252 A  
HETATM   14  C   UNL     1     -10.108  10.994  64.017  1.00  0.00    -0.408 A  
HETATM   15  C   UNL     1      -9.805  10.459  65.263  1.00  0.00    -0.361 A  
BRANCH   9  16
HETATM   16  N   UNL     1     -10.096  12.933  68.664  1.00  0.00    -0.387 NA 
HETATM   17  H1  UNL     1     -10.864  12.025  70.295  1.00  0.00     0.000 HD 
HETATM   18  N   UNL     1     -11.124  12.419  69.391  1.00  0.00    -0.443 NA 
HETATM   19  H   UNL     1      -9.133  12.925  68.999  1.00  0.00     0.000 HD 
HETATM   20  H2  UNL     1     -12.086  12.427  69.056  1.00  0.00     0.000 HD 
ENDBRANCH   9  16
ENDBRANCH   3   6
TORSDOF 2
ENDMDL
MODEL       15
REMARK 921   NORMALIZED FREE ENERGY PREDICTED BY IDOCK:   -5.70 KCAL/MOL
REMARK 922        TOTAL FREE ENERGY PREDICTED BY IDOCK:   -6.50 KCAL/MOL
REMARK 923 INTER-LIGAND FREE ENERGY PREDICTED BY IDOCK:   -6.37 KCAL/MOL
REMARK 924 INTRA-LIGAND FREE ENERGY PREDICTED BY IDOCK:   -0.13 KCAL/MOL
REMARK 927      BINDING AFFINITY PREDICTED BY RF-SCORE:    0.00 PKD
ROOT
HETATM    1  N   UNL     1     -11.834  10.763  67.888  1.00  0.00    -0.742 NA 
HETATM    2  H2  UNL     1     -11.301  10.484  67.064  1.00  0.00     0.000 HD 
HETATM    3  N   UNL     1     -12.036  12.065  68.134  1.00  0.00    -0.496 NA 
HETATM    4  H1  UNL     1     -12.205  10.046  68.512  1.00  0.00     0.000 HD 
HETATM    5  H   UNL     1     -12.569  12.344  68.957  1.00  0.00     0.000 HD 
ENDROOT
BRANCH   3   6
HETATM    6  C   UNL     1     -11.557  12.989  67.328  1.00  0.00    -0.356 A  
HETATM    7  N   UNL     1     -12.485  13.466  66.418  1.00  0.00    -0.308 NA 
HETATM    8  N   UNL     1     -12.127  14.210  65.342  1.00  0.00    -0.392 NA 
HETATM    9  C   UNL     1     -11.011  15.016  65.381  1.00  0.00    -0.373 A  
HETATM   10  C   UNL     1      -9.961  14.674  66.385  1.00  0.00    -0.296 A  
HETATM   11  C   UNL     1     -10.176  13.608  67.284  1.00  0.00    -0.246 A  
HETATM   12  C   UNL     1      -9.096  13.191  68.074  1.00  0.00    -0.207 A  
HETATM   13  C   UNL     1      -8.742  15.369  66.371  1.00  0.00    -0.307 A  
HETATM   14  C   UNL     1      -7.875  13.877  68.046  1.00  0.00    -0.154 A  
HETATM   15  C   UNL     1      -7.707  14.979  67.216  1.00  0.00    -0.233 A  
BRANCH   9  16
HETATM   16  N   UNL     1     -10.818  16.029  64.573  1.00  0.00    -0.883 NA 
HETATM   17  H1  UNL     1     -11.743  17.172  63.190  1.00  0.00     0.000 HD 
HETATM   18  N   UNL     1     -11.893  16.383  63.820  1.00  0.00    -1.377 NA 
HETATM   19  H   UNL     1      -9.925  16.517  64.512  1.00  0.00     0.000 HD 
HETATM   20  H2  UNL     1     -12.786  15.896  63.880  1.00  0.00     0.000 HD 
ENDBRANCH   9  16
ENDBRANCH   3   6
TORSDOF 2
ENDMDL
MODEL       16
REMARK 921   NORMALIZED FREE ENERGY PREDICTED BY IDOCK:   -5.69 KCAL/MOL
REMARK 922        TOTAL FREE ENERGY PREDICTED BY IDOCK:   -6.48 KCAL/MOL
REMARK 923 INTER-LIGAND FREE ENERGY PREDICTED BY IDOCK:   -6.36 KCAL/MOL
REMARK 924 INTRA-LIGAND FREE ENERGY PREDICTED BY IDOCK:   -0.13 KCAL/MOL
REMARK 927      BINDING AFFINITY PREDICTED BY RF-SCORE:    0.00 PKD
ROOT
HETATM    1  N   UNL     1      -8.768  14.350  69.152  1.00  0.00    -0.377 NA 
HETATM    2  H2  UNL     1      -9.071  15.299  68.934  1.00  0.00     0.000 HD 
HETATM    3  N   UNL     1      -9.083  13.348  68.318  1.00  0.00    -0.199 NA 
HETATM    4  H1  UNL     1      -8.230  14.177  70.002  1.00  0.00     0.000 HD 
HETATM    5  H   UNL     1      -8.780  12.399  68.536  1.00  0.00     0.000 HD 
ENDROOT
BRANCH   3   6
HETATM    6  C   UNL     1      -9.776  13.571  67.223  1.00  0.00    -0.236 A  
HETATM    7  N   UNL     1     -10.322  14.842  67.160  1.00  0.00    -0.257 NA 
HETATM    8  N   UNL     1     -11.279  15.175  66.260  1.00  0.00    -0.314 NA 
HETATM    9  C   UNL     1     -11.348  14.546  65.037  1.00  0.00    -0.377 A  
HETATM   10  C   UNL     1     -10.716  13.198  64.930  1.00  0.00    -0.362 A  
HETATM   11  C   UNL     1     -10.026  12.662  66.038  1.00  0.00    -0.267 A  
HETATM   12  C   UNL     1      -9.619  11.322  65.969  1.00  0.00    -0.245 A  
HETATM   13  C   UNL     1     -10.883  12.450  63.754  1.00  0.00    -0.500 A  
HETATM   14  C   UNL     1      -9.801  10.573  64.799  1.00  0.00    -0.387 A  
HETATM   15  C   UNL     1     -10.407  11.144  63.686  1.00  0.00    -0.449 A  
BRANCH   9  16
HETATM   16  N   UNL     1     -11.958  15.051  63.993  1.00  0.00    -0.890 NA 
HETATM   17  H1  UNL     1     -12.223  16.772  62.972  1.00  0.00     0.000 HD 
HETATM   18  N   UNL     1     -11.748  16.378  63.784  1.00  0.00    -1.498 NA 
HETATM   19  H   UNL     1     -12.549  14.489  63.381  1.00  0.00     0.000 HD 
HETATM   20  H2  UNL     1     -11.157  16.940  64.396  1.00  0.00     0.000 HD 
ENDBRANCH   9  16
ENDBRANCH   3   6
TORSDOF 2
ENDMDL
MODEL       17
REMARK 921   NORMALIZED FREE ENERGY PREDICTED BY IDOCK:   -5.66 KCAL/MOL
REMARK 922        TOTAL FREE ENERGY PREDICTED BY IDOCK:   -6.46 KCAL/MOL
REMARK 923 INTER-LIGAND FREE ENERGY PREDICTED BY IDOCK:   -6.37 KCAL/MOL
REMARK 924 INTRA-LIGAND FREE ENERGY PREDICTED BY IDOCK:   -0.09 KCAL/MOL
REMARK 927      BINDING AFFINITY PREDICTED BY RF-SCORE:    0.00 PKD
ROOT
HETATM    1  N   UNL     1     -13.184  16.251  74.103  1.00  0.00    -0.916 NA 
HETATM    2  H2  UNL     1     -12.233  15.924  74.277  1.00  0.00     0.000 HD 
HETATM    3  N   UNL     1     -13.896  15.709  73.105  1.00  0.00    -0.612 NA 
HETATM    4  H1  UNL     1     -13.578  16.985  74.692  1.00  0.00     0.000 HD 
HETATM    5  H   UNL     1     -14.847  16.036  72.931  1.00  0.00     0.000 HD 
ENDROOT
BRANCH   3   6
HETATM    6  C   UNL     1     -13.388  14.762  72.346  1.00  0.00    -0.408 A  
HETATM    7  N   UNL     1     -13.959  13.518  72.555  1.00  0.00    -0.766 NA 
HETATM    8  N   UNL     1     -13.402  12.377  72.079  1.00  0.00    -0.486 NA 
HETATM    9  C   UNL     1     -12.643  12.388  70.929  1.00  0.00    -0.246 A  
HETATM   10  C   UNL     1     -12.037  13.691  70.528  1.00  0.00    -0.411 A  
HETATM   11  C   UNL     1     -12.315  14.851  71.282  1.00  0.00    -0.385 A  
HETATM   12  C   UNL     1     -11.577  16.009  70.997  1.00  0.00    -0.472 A  
HETATM   13  C   UNL     1     -11.138  13.730  69.451  1.00  0.00    -0.206 A  
HETATM   14  C   UNL     1     -10.668  16.040  69.932  1.00  0.00    -0.334 A  
HETATM   15  C   UNL     1     -10.468  14.912  69.145  1.00  0.00    -0.246 A  
BRANCH   9  16
HETATM   16  N   UNL     1     -12.407  11.322  70.204  1.00  0.00    -0.291 NA 
HETATM   17  H1  UNL     1     -12.927   9.383  69.993  1.00  0.00     0.000 HD 
HETATM   18  N   UNL     1     -13.110  10.213  70.557  1.00  0.00    -0.589 NA 
HETATM   19  H   UNL     1     -11.744  11.324  69.430  1.00  0.00     0.000 HD 
HETATM   20  H2  UNL     1     -13.773  10.211  71.331  1.00  0.00     0.000 HD 
ENDBRANCH   9  16
ENDBRANCH   3   6
TORSDOF 2
ENDMDL
MODEL       18
REMARK 921   NORMALIZED FREE ENERGY PREDICTED BY IDOCK:   -5.66 KCAL/MOL
REMARK 922        TOTAL FREE ENERGY PREDICTED BY IDOCK:   -6.46 KCAL/MOL
REMARK 923 INTER-LIGAND FREE ENERGY PREDICTED BY IDOCK:   -6.34 KCAL/MOL
REMARK 924 INTRA-LIGAND FREE ENERGY PREDICTED BY IDOCK:   -0.12 KCAL/MOL
REMARK 927      BINDING AFFINITY PREDICTED BY RF-SCORE:    0.00 PKD
ROOT
HETATM    1  N   UNL     1     -13.203  16.106  73.965  1.00  0.00    -0.941 NA 
HETATM    2  H2  UNL     1     -12.292  16.490  73.715  1.00  0.00     0.000 HD 
HETATM    3  N   UNL     1     -13.775  15.192  73.168  1.00  0.00    -0.586 NA 
HETATM    4  H1  UNL     1     -13.665  16.423  74.818  1.00  0.00     0.000 HD 
HETATM    5  H   UNL     1     -14.686  14.808  73.418  1.00  0.00     0.000 HD 
ENDROOT
BRANCH   3   6
HETATM    6  C   UNL     1     -13.179  14.783  72.069  1.00  0.00    -0.351 A  
HETATM    7  N   UNL     1     -12.684  15.815  71.289  1.00  0.00    -0.470 NA 
HETATM    8  N   UNL     1     -12.284  15.627  70.008  1.00  0.00    -0.364 NA 
HETATM    9  C   UNL     1     -11.784  14.411  69.596  1.00  0.00    -0.309 A  
HETATM   10  C   UNL     1     -12.163  13.214  70.401  1.00  0.00    -0.389 A  
HETATM   11  C   UNL     1     -12.939  13.375  71.568  1.00  0.00    -0.429 A  
HETATM   12  C   UNL     1     -13.438  12.219  72.186  1.00  0.00    -0.431 A  
HETATM   13  C   UNL     1     -11.804  11.935  69.946  1.00  0.00    -0.418 A  
HETATM   14  C   UNL     1     -13.092  10.945  71.719  1.00  0.00    -0.564 A  
HETATM   15  C   UNL     1     -12.256  10.803  70.618  1.00  0.00    -0.474 A  
BRANCH   9  16
HETATM   16  N   UNL     1     -11.035  14.257  68.532  1.00  0.00    -0.243 NA 
HETATM   17  H1  UNL     1     -11.054  14.430  66.522  1.00  0.00     0.000 HD 
HETATM   18  N   UNL     1     -11.638  14.550  67.350  1.00  0.00    -0.370 NA 
HETATM   19  H   UNL     1     -10.068  13.939  68.587  1.00  0.00     0.000 HD 
HETATM   20  H2  UNL     1     -12.605  14.868  67.294  1.00  0.00     0.000 HD 
ENDBRANCH   9  16
ENDBRANCH   3   6
TORSDOF 2
ENDMDL
MODEL       19
REMARK 921   NORMALIZED FREE ENERGY PREDICTED BY IDOCK:   -5.66 KCAL/MOL
REMARK 922        TOTAL FREE ENERGY PREDICTED BY IDOCK:   -6.46 KCAL/MOL
REMARK 923 INTER-LIGAND FREE ENERGY PREDICTED BY IDOCK:   -6.34 KCAL/MOL
REMARK 924 INTRA-LIGAND FREE ENERGY PREDICTED BY IDOCK:   -0.12 KCAL/MOL
REMARK 927      BINDING AFFINITY PREDICTED BY RF-SCORE:    0.00 PKD
ROOT
HETATM    1  N   UNL     1     -12.351  15.752  63.646  1.00  0.00    -0.892 NA 
HETATM    2  H2  UNL     1     -12.627  15.019  64.299  1.00  0.00     0.000 HD 
HETATM    3  N   UNL     1     -11.350  16.583  63.969  1.00  0.00    -1.559 NA 
HETATM    4  H1  UNL     1     -12.842  15.842  62.756  1.00  0.00     0.000 HD 
HETATM    5  H   UNL     1     -11.074  17.316  63.316  1.00  0.00     0.000 HD 
ENDROOT
BRANCH   3   6
HETATM    6  C   UNL     1     -10.717  16.467  65.117  1.00  0.00    -0.291 A  
HETATM    7  N   UNL     1     -10.309  15.174  65.397  1.00  0.00    -0.363 NA 
HETATM    8  N   UNL     1      -9.889  14.798  66.631  1.00  0.00    -0.250 NA 
HETATM    9  C   UNL     1      -9.287  15.703  67.477  1.00  0.00    -0.206 A  
HETATM   10  C   UNL     1      -9.565  17.148  67.235  1.00  0.00    -0.245 A  
HETATM   11  C   UNL     1     -10.357  17.531  66.131  1.00  0.00    -0.330 A  
HETATM   12  C   UNL     1     -10.759  18.872  66.049  1.00  0.00    -0.373 A  
HETATM   13  C   UNL     1      -9.097  18.103  68.152  1.00  0.00    -0.298 A  
HETATM   14  C   UNL     1     -10.304  19.819  66.975  1.00  0.00    -0.593 A  
HETATM   15  C   UNL     1      -9.454  19.441  68.008  1.00  0.00    -0.413 A  
BRANCH   9  16
HETATM   16  N   UNL     1      -8.523  15.357  68.484  1.00  0.00    -0.156 NA 
HETATM   17  H1  UNL     1      -8.080  13.808  69.700  1.00  0.00     0.000 HD 
HETATM   18  N   UNL     1      -8.675  14.077  68.916  1.00  0.00    -0.367 NA 
HETATM   19  H   UNL     1      -7.861  16.003  68.914  1.00  0.00     0.000 HD 
HETATM   20  H2  UNL     1      -9.337  13.432  68.486  1.00  0.00     0.000 HD 
ENDBRANCH   9  16
ENDBRANCH   3   6
TORSDOF 2
ENDMDL
MODEL       20
REMARK 921   NORMALIZED FREE ENERGY PREDICTED BY IDOCK:   -5.65 KCAL/MOL
REMARK 922        TOTAL FREE ENERGY PREDICTED BY IDOCK:   -6.44 KCAL/MOL
REMARK 923 INTER-LIGAND FREE ENERGY PREDICTED BY IDOCK:   -6.32 KCAL/MOL
REMARK 924 INTRA-LIGAND FREE ENERGY PREDICTED BY IDOCK:   -0.12 KCAL/MOL
REMARK 927      BINDING AFFINITY PREDICTED BY RF-SCORE:    0.00 PKD
ROOT
HETATM    1  N   UNL     1     -13.437   8.880  73.149  1.00  0.00    -0.955 NA 
HETATM    2  H2  UNL     1     -12.462   8.605  73.025  1.00  0.00     0.000 HD 
HETATM    3  N   UNL     1     -13.907   9.957  72.504  1.00  0.00    -0.570 NA 
HETATM    4  H1  UNL     1     -14.039   8.330  73.763  1.00  0.00     0.000 HD 
HETATM    5  H   UNL     1     -14.881  10.232  72.629  1.00  0.00     0.000 HD 
ENDROOT
BRANCH   3   6
HETATM    6  C   UNL     1     -13.130  10.666  71.713  1.00  0.00    -0.466 A  
HETATM    7  N   UNL     1     -12.333   9.896  70.883  1.00  0.00    -0.309 NA 
HETATM    8  N   UNL     1     -11.285  10.417  70.199  1.00  0.00    -0.301 NA 
HETATM    9  C   UNL     1     -11.289  11.735  69.799  1.00  0.00    -0.170 A  
HETATM   10  C   UNL     1     -12.177  12.670  70.550  1.00  0.00    -0.383 A  
HETATM   11  C   UNL     1     -13.016  12.168  71.568  1.00  0.00    -0.398 A  
HETATM   12  C   UNL     1     -13.685  13.095  72.380  1.00  0.00    -0.640 A  
HETATM   13  C   UNL     1     -12.112  14.046  70.283  1.00  0.00    -0.425 A  
HETATM   14  C   UNL     1     -13.604  14.470  72.121  1.00  0.00    -0.516 A  
HETATM   15  C   UNL     1     -12.841  14.942  71.060  1.00  0.00    -0.425 A  
BRANCH   9  16
HETATM   16  N   UNL     1     -10.538  12.203  68.832  1.00  0.00    -0.359 NA 
HETATM   17  H1  UNL     1      -8.648  12.191  68.124  1.00  0.00     0.000 HD 
HETATM   18  N   UNL     1      -9.233  11.827  68.877  1.00  0.00    -0.405 NA 
HETATM   19  H   UNL     1     -10.907  12.807  68.098  1.00  0.00     0.000 HD 
HETATM   20  H2  UNL     1      -8.864  11.223  69.611  1.00  0.00     0.000 HD 
ENDBRANCH   9  16
ENDBRANCH   3   6
TORSDOF 2
ENDMDL
MODEL       21
REMARK 921   NORMALIZED FREE ENERGY PREDICTED BY IDOCK:   -5.61 KCAL/MOL
REMARK 922        TOTAL FREE ENERGY PREDICTED BY IDOCK:   -6.40 KCAL/MOL
REMARK 923 INTER-LIGAND FREE ENERGY PREDICTED BY IDOCK:   -6.27 KCAL/MOL
REMARK 924 INTRA-LIGAND FREE ENERGY PREDICTED BY IDOCK:   -0.13 KCAL/MOL
REMARK 927      BINDING AFFINITY PREDICTED BY RF-SCORE:    0.00 PKD
ROOT
HETATM    1  N   UNL     1     -11.475  14.652  67.324  1.00  0.00    -0.360 NA 
HETATM    2  H2  UNL     1     -12.490  14.754  67.312  1.00  0.00     0.000 HD 
HETATM    3  N   UNL     1     -10.836  14.549  68.498  1.00  0.00    -0.241 NA 
HETATM    4  H1  UNL     1     -10.963  14.629  66.443  1.00  0.00     0.000 HD 
HETATM    5  H   UNL     1      -9.821  14.447  68.510  1.00  0.00     0.000 HD 
ENDROOT
BRANCH   3   6
HETATM    6  C   UNL     1     -11.497  14.578  69.635  1.00  0.00    -0.288 A  
HETATM    7  N   UNL     1     -11.694  15.856  70.130  1.00  0.00    -0.341 NA 
HETATM    8  N   UNL     1     -12.105  16.084  71.402  1.00  0.00    -0.441 NA 
HETATM    9  C   UNL     1     -12.895  15.170  72.063  1.00  0.00    -0.345 A  
HETATM   10  C   UNL     1     -12.855  13.760  71.576  1.00  0.00    -0.445 A  
HETATM   11  C   UNL     1     -12.084  13.437  70.438  1.00  0.00    -0.405 A  
HETATM   12  C   UNL     1     -11.912  12.080  70.129  1.00  0.00    -0.401 A  
HETATM   13  C   UNL     1     -13.524  12.761  72.300  1.00  0.00    -0.591 A  
HETATM   14  C   UNL     1     -12.568  11.085  70.865  1.00  0.00    -0.488 A  
HETATM   15  C   UNL     1     -13.392  11.425  71.930  1.00  0.00    -0.409 A  
BRANCH   9  16
HETATM   16  N   UNL     1     -13.640  15.468  73.099  1.00  0.00    -0.591 NA 
HETATM   17  H1  UNL     1     -13.559  16.264  74.952  1.00  0.00     0.000 HD 
HETATM   18  N   UNL     1     -12.980  16.032  74.145  1.00  0.00    -0.923 NA 
HETATM   19  H   UNL     1     -14.643  15.289  73.120  1.00  0.00     0.000 HD 
HETATM   20  H2  UNL     1     -11.976  16.211  74.124  1.00  0.00     0.000 HD 
ENDBRANCH   9  16
ENDBRANCH   3   6
TORSDOF 2
ENDMDL
MODEL       22
REMARK 921   NORMALIZED FREE ENERGY PREDICTED BY IDOCK:   -5.55 KCAL/MOL
REMARK 922        TOTAL FREE ENERGY PREDICTED BY IDOCK:   -6.33 KCAL/MOL
REMARK 923 INTER-LIGAND FREE ENERGY PREDICTED BY IDOCK:   -6.19 KCAL/MOL
REMARK 924 INTRA-LIGAND FREE ENERGY PREDICTED BY IDOCK:   -0.14 KCAL/MOL
REMARK 927      BINDING AFFINITY PREDICTED BY RF-SCORE:    0.00 PKD
ROOT
HETATM    1  N   UNL     1     -11.763  12.621  70.138  1.00  0.00    -0.538 NA 
HETATM    2  H2  UNL     1     -12.695  12.318  69.856  1.00  0.00     0.000 HD 
HETATM    3  N   UNL     1     -10.873  12.977  69.201  1.00  0.00    -0.431 NA 
HETATM    4  H1  UNL     1     -11.523  12.648  71.129  1.00  0.00     0.000 HD 
HETATM    5  H   UNL     1      -9.940  13.279  69.483  1.00  0.00     0.000 HD 
ENDROOT
BRANCH   3   6
HETATM    6  C   UNL     1     -11.183  12.942  67.923  1.00  0.00    -0.269 A  
HETATM    7  N   UNL     1     -11.957  14.014  67.510  1.00  0.00    -0.405 NA 
HETATM    8  N   UNL     1     -12.601  14.025  66.317  1.00  0.00    -0.408 NA 
HETATM    9  C   UNL     1     -12.098  13.332  65.238  1.00  0.00    -0.418 A  
HETATM   10  C   UNL     1     -11.170  12.201  65.529  1.00  0.00    -0.381 A  
HETATM   11  C   UNL     1     -10.793  11.934  66.863  1.00  0.00    -0.305 A  
HETATM   12  C   UNL     1     -10.083  10.752  67.118  1.00  0.00    -0.243 A  
HETATM   13  C   UNL     1     -10.745  11.370  64.481  1.00  0.00    -0.391 A  
HETATM   14  C   UNL     1      -9.675   9.917  66.070  1.00  0.00    -0.310 A  
HETATM   15  C   UNL     1      -9.981  10.239  64.753  1.00  0.00    -0.392 A  
BRANCH   9  16
HETATM   16  N   UNL     1     -12.417  13.594  63.994  1.00  0.00    -0.693 NA 
HETATM   17  H1  UNL     1     -12.747  15.119  62.714  1.00  0.00     0.000 HD 
HETATM   18  N   UNL     1     -12.499  14.915  63.682  1.00  0.00    -1.008 NA 
HETATM   19  H   UNL     1     -12.591  12.860  63.308  1.00  0.00     0.000 HD 
HETATM   20  H2  UNL     1     -12.325  15.649  64.368  1.00  0.00     0.000 HD 
ENDBRANCH   9  16
ENDBRANCH   3   6
TORSDOF 2
ENDMDL
MODEL       23
REMARK 921   NORMALIZED FREE ENERGY PREDICTED BY IDOCK:   -5.52 KCAL/MOL
REMARK 922        TOTAL FREE ENERGY PREDICTED BY IDOCK:   -6.29 KCAL/MOL
REMARK 923 INTER-LIGAND FREE ENERGY PREDICTED BY IDOCK:   -6.17 KCAL/MOL
REMARK 924 INTRA-LIGAND FREE ENERGY PREDICTED BY IDOCK:   -0.13 KCAL/MOL
REMARK 927      BINDING AFFINITY PREDICTED BY RF-SCORE:    0.00 PKD
ROOT
HETATM    1  N   UNL     1      -8.427  17.262  68.354  1.00  0.00    -0.247 NA 
HETATM    2  H2  UNL     1      -7.892  16.412  68.176  1.00  0.00     0.000 HD 
HETATM    3  N   UNL     1      -9.637  17.409  67.796  1.00  0.00    -0.259 NA 
HETATM    4  H1  UNL     1      -8.033  17.986  68.954  1.00  0.00     0.000 HD 
HETATM    5  H   UNL     1     -10.172  18.260  67.973  1.00  0.00     0.000 HD 
ENDROOT
BRANCH   3   6
HETATM    6  C   UNL     1     -10.145  16.475  67.022  1.00  0.00    -0.279 A  
HETATM    7  N   UNL     1     -10.017  16.743  65.670  1.00  0.00    -0.575 NA 
HETATM    8  N   UNL     1     -10.703  16.053  64.726  1.00  0.00    -0.621 NA 
HETATM    9  C   UNL     1     -11.071  14.742  64.938  1.00  0.00    -0.407 A  
HETATM   10  C   UNL     1     -11.161  14.283  66.355  1.00  0.00    -0.325 A  
HETATM   11  C   UNL     1     -10.805  15.165  67.398  1.00  0.00    -0.302 A  
HETATM   12  C   UNL     1     -11.089  14.771  68.713  1.00  0.00    -0.277 A  
HETATM   13  C   UNL     1     -11.670  13.006  66.634  1.00  0.00    -0.438 A  
HETATM   14  C   UNL     1     -11.613  13.501  68.987  1.00  0.00    -0.356 A  
HETATM   15  C   UNL     1     -11.878  12.611  67.953  1.00  0.00    -0.388 A  
BRANCH   9  16
HETATM   16  N   UNL     1     -11.370  13.907  63.974  1.00  0.00    -0.596 NA 
HETATM   17  H1  UNL     1     -12.745  13.541  62.543  1.00  0.00     0.000 HD 
HETATM   18  N   UNL     1     -12.512  14.191  63.293  1.00  0.00    -1.098 NA 
HETATM   19  H   UNL     1     -10.788  13.100  63.751  1.00  0.00     0.000 HD 
HETATM   20  H2  UNL     1     -13.094  14.998  63.517  1.00  0.00     0.000 HD 
ENDBRANCH   9  16
ENDBRANCH   3   6
TORSDOF 2
ENDMDL
MODEL       24
REMARK 921   NORMALIZED FREE ENERGY PREDICTED BY IDOCK:   -5.51 KCAL/MOL
REMARK 922        TOTAL FREE ENERGY PREDICTED BY IDOCK:   -6.29 KCAL/MOL
REMARK 923 INTER-LIGAND FREE ENERGY PREDICTED BY IDOCK:   -6.16 KCAL/MOL
REMARK 924 INTRA-LIGAND FREE ENERGY PREDICTED BY IDOCK:   -0.13 KCAL/MOL
REMARK 927      BINDING AFFINITY PREDICTED BY RF-SCORE:    0.00 PKD
ROOT
HETATM    1  N   UNL     1     -12.532  11.580  63.064  1.00  0.00    -0.914 NA 
HETATM    2  H2  UNL     1     -11.521  11.640  62.945  1.00  0.00     0.000 HD 
HETATM    3  N   UNL     1     -13.144  12.393  63.936  1.00  0.00    -0.735 NA 
HETATM    4  H1  UNL     1     -13.062  10.902  62.516  1.00  0.00     0.000 HD 
HETATM    5  H   UNL     1     -14.155  12.333  64.056  1.00  0.00     0.000 HD 
ENDROOT
BRANCH   3   6
HETATM    6  C   UNL     1     -12.459  13.268  64.642  1.00  0.00    -0.349 A  
HETATM    7  N   UNL     1     -12.347  14.506  64.032  1.00  0.00    -0.763 NA 
HETATM    8  N   UNL     1     -11.467  15.446  64.459  1.00  0.00    -0.368 NA 
HETATM    9  C   UNL     1     -11.087  15.508  65.781  1.00  0.00    -0.217 A  
HETATM   10  C   UNL     1     -11.240  14.264  66.591  1.00  0.00    -0.337 A  
HETATM   11  C   UNL     1     -11.822  13.119  66.007  1.00  0.00    -0.457 A  
HETATM   12  C   UNL     1     -11.770  11.918  66.729  1.00  0.00    -0.281 A  
HETATM   13  C   UNL     1     -10.735  14.227  67.900  1.00  0.00    -0.244 A  
HETATM   14  C   UNL     1     -11.249  11.882  68.029  1.00  0.00    -0.317 A  
HETATM   15  C   UNL     1     -10.757  13.038  68.623  1.00  0.00    -0.273 A  
BRANCH   9  16
HETATM   16  N   UNL     1     -10.577  16.577  66.341  1.00  0.00    -0.266 NA 
HETATM   17  H1  UNL     1     -10.043  18.485  65.955  1.00  0.00     0.000 HD 
HETATM   18  N   UNL     1     -10.440  17.653  65.520  1.00  0.00    -0.638 NA 
HETATM   19  H   UNL     1     -10.301  16.601  67.322  1.00  0.00     0.000 HD 
HETATM   20  H2  UNL     1     -10.716  17.628  64.539  1.00  0.00     0.000 HD 
ENDBRANCH   9  16
ENDBRANCH   3   6
TORSDOF 2
ENDMDL
MODEL       25
REMARK 921   NORMALIZED FREE ENERGY PREDICTED BY IDOCK:   -5.48 KCAL/MOL
REMARK 922        TOTAL FREE ENERGY PREDICTED BY IDOCK:   -6.25 KCAL/MOL
REMARK 923 INTER-LIGAND FREE ENERGY PREDICTED BY IDOCK:   -6.14 KCAL/MOL
REMARK 924 INTRA-LIGAND FREE ENERGY PREDICTED BY IDOCK:   -0.12 KCAL/MOL
REMARK 927      BINDING AFFINITY PREDICTED BY RF-SCORE:    0.00 PKD
ROOT
HETATM    1  N   UNL     1     -11.451  12.515  69.950  1.00  0.00    -0.515 NA 
HETATM    2  H2  UNL     1     -11.982  13.384  70.004  1.00  0.00     0.000 HD 
HETATM    3  N   UNL     1     -10.971  12.107  68.766  1.00  0.00    -0.224 NA 
HETATM    4  H1  UNL     1     -11.292  11.970  70.798  1.00  0.00     0.000 HD 
HETATM    5  H   UNL     1     -10.440  11.238  68.712  1.00  0.00     0.000 HD 
ENDROOT
BRANCH   3   6
HETATM    6  C   UNL     1     -11.176  12.810  67.673  1.00  0.00    -0.280 A  
HETATM    7  N   UNL     1     -12.114  12.251  66.822  1.00  0.00    -0.565 NA 
HETATM    8  N   UNL     1     -12.267  12.667  65.540  1.00  0.00    -0.564 NA 
HETATM    9  C   UNL     1     -11.984  13.967  65.182  1.00  0.00    -0.385 A  
HETATM   10  C   UNL     1     -11.053  14.727  66.066  1.00  0.00    -0.330 A  
HETATM   11  C   UNL     1     -10.565  14.128  67.246  1.00  0.00    -0.277 A  
HETATM   12  C   UNL     1      -9.546  14.791  67.944  1.00  0.00    -0.210 A  
HETATM   13  C   UNL     1     -10.616  16.002  65.671  1.00  0.00    -0.392 A  
HETATM   14  C   UNL     1      -9.101  16.056  67.538  1.00  0.00    -0.203 A  
HETATM   15  C   UNL     1      -9.652  16.671  66.420  1.00  0.00    -0.308 A  
BRANCH   9  16
HETATM   16  N   UNL     1     -12.459  14.543  64.105  1.00  0.00    -0.852 NA 
HETATM   17  H1  UNL     1     -12.780  14.238  62.136  1.00  0.00     0.000 HD 
HETATM   18  N   UNL     1     -12.410  13.790  62.974  1.00  0.00    -1.030 NA 
HETATM   19  H   UNL     1     -12.839  15.489  64.115  1.00  0.00     0.000 HD 
HETATM   20  H2  UNL     1     -12.031  12.844  62.965  1.00  0.00     0.000 HD 
ENDBRANCH   9  16
ENDBRANCH   3   6
TORSDOF 2
ENDMDL
MODEL       26
REMARK 921   NORMALIZED FREE ENERGY PREDICTED BY IDOCK:   -5.46 KCAL/MOL
REMARK 922        TOTAL FREE ENERGY PREDICTED BY IDOCK:   -6.23 KCAL/MOL
REMARK 923 INTER-LIGAND FREE ENERGY PREDICTED BY IDOCK:   -6.11 KCAL/MOL
REMARK 924 INTRA-LIGAND FREE ENERGY PREDICTED BY IDOCK:   -0.12 KCAL/MOL
REMARK 927      BINDING AFFINITY PREDICTED BY RF-SCORE:    0.00 PKD
ROOT
HETATM    1  N   UNL     1     -13.001  11.563  62.843  1.00  0.00    -0.729 NA 
HETATM    2  H2  UNL     1     -13.486  10.974  63.519  1.00  0.00     0.000 HD 
HETATM    3  N   UNL     1     -12.215  12.558  63.279  1.00  0.00    -0.720 NA 
HETATM    4  H1  UNL     1     -13.120  11.385  61.845  1.00  0.00     0.000 HD 
HETATM    5  H   UNL     1     -11.729  13.147  62.602  1.00  0.00     0.000 HD 
ENDROOT
BRANCH   3   6
HETATM    6  C   UNL     1     -12.061  12.786  64.565  1.00  0.00    -0.414 A  
HETATM    7  N   UNL     1     -12.791  13.868  65.028  1.00  0.00    -0.733 NA 
HETATM    8  N   UNL     1     -12.564  14.428  66.242  1.00  0.00    -0.246 NA 
HETATM    9  C   UNL     1     -12.079  13.673  67.288  1.00  0.00    -0.345 A  
HETATM   10  C   UNL     1     -11.345  12.422  66.938  1.00  0.00    -0.392 A  
HETATM   11  C   UNL     1     -11.241  12.028  65.587  1.00  0.00    -0.377 A  
HETATM   12  C   UNL     1     -10.382  10.963  65.281  1.00  0.00    -0.334 A  
HETATM   13  C   UNL     1     -10.704  11.693  67.953  1.00  0.00    -0.241 A  
HETATM   14  C   UNL     1      -9.731  10.248  66.295  1.00  0.00    -0.263 A  
HETATM   15  C   UNL     1      -9.912  10.596  67.628  1.00  0.00    -0.197 A  
BRANCH   9  16
HETATM   16  N   UNL     1     -12.201  14.014  68.547  1.00  0.00    -0.537 NA 
HETATM   17  H1  UNL     1     -12.500  15.605  69.753  1.00  0.00     0.000 HD 
HETATM   18  N   UNL     1     -12.405  15.339  68.773  1.00  0.00    -0.585 NA 
HETATM   19  H   UNL     1     -12.147  13.334  69.304  1.00  0.00     0.000 HD 
HETATM   20  H2  UNL     1     -12.459  16.019  68.015  1.00  0.00     0.000 HD 
ENDBRANCH   9  16
ENDBRANCH   3   6
TORSDOF 2
ENDMDL
MODEL       27
REMARK 921   NORMALIZED FREE ENERGY PREDICTED BY IDOCK:   -5.45 KCAL/MOL
REMARK 922        TOTAL FREE ENERGY PREDICTED BY IDOCK:   -6.22 KCAL/MOL
REMARK 923 INTER-LIGAND FREE ENERGY PREDICTED BY IDOCK:   -6.08 KCAL/MOL
REMARK 924 INTRA-LIGAND FREE ENERGY PREDICTED BY IDOCK:   -0.13 KCAL/MOL
REMARK 927      BINDING AFFINITY PREDICTED BY RF-SCORE:    0.00 PKD
ROOT
HETATM    1  N   UNL     1     -12.912  15.172  70.185  1.00  0.00    -0.644 NA 
HETATM    2  H2  UNL     1     -13.495  15.772  69.602  1.00  0.00     0.000 HD 
HETATM    3  N   UNL     1     -11.722  14.760  69.724  1.00  0.00    -0.292 NA 
HETATM    4  H1  UNL     1     -13.243  14.895  71.109  1.00  0.00     0.000 HD 
HETATM    5  H   UNL     1     -11.139  14.159  70.307  1.00  0.00     0.000 HD 
ENDROOT
BRANCH   3   6
HETATM    6  C   UNL     1     -11.296  15.117  68.532  1.00  0.00    -0.309 A  
HETATM    7  N   UNL     1     -11.997  14.529  67.493  1.00  0.00    -0.369 NA 
HETATM    8  N   UNL     1     -11.548  14.552  66.213  1.00  0.00    -0.363 NA 
HETATM    9  C   UNL     1     -10.764  15.589  65.759  1.00  0.00    -0.353 A  
HETATM   10  C   UNL     1     -10.017  16.375  66.783  1.00  0.00    -0.277 A  
HETATM   11  C   UNL     1     -10.193  16.082  68.152  1.00  0.00    -0.243 A  
HETATM   12  C   UNL     1      -9.332  16.702  69.069  1.00  0.00    -0.227 A  
HETATM   13  C   UNL     1      -9.092  17.346  66.367  1.00  0.00    -0.274 A  
HETATM   14  C   UNL     1      -8.399  17.658  68.649  1.00  0.00    -0.267 A  
HETATM   15  C   UNL     1      -8.297  17.998  67.305  1.00  0.00    -0.234 A  
BRANCH   9  16
HETATM   16  N   UNL     1     -10.622  15.890  64.491  1.00  0.00    -0.715 NA 
HETATM   17  H1  UNL     1     -11.641  16.547  62.878  1.00  0.00     0.000 HD 
HETATM   18  N   UNL     1     -11.752  16.312  63.864  1.00  0.00    -1.518 NA 
HETATM   19  H   UNL     1      -9.727  15.812  64.009  1.00  0.00     0.000 HD 
HETATM   20  H2  UNL     1     -12.647  16.390  64.346  1.00  0.00     0.000 HD 
ENDBRANCH   9  16
ENDBRANCH   3   6
TORSDOF 2
ENDMDL
MODEL       28
REMARK 921   NORMALIZED FREE ENERGY PREDICTED BY IDOCK:   -5.42 KCAL/MOL
REMARK 922        TOTAL FREE ENERGY PREDICTED BY IDOCK:   -6.18 KCAL/MOL
REMARK 923 INTER-LIGAND FREE ENERGY PREDICTED BY IDOCK:   -6.17 KCAL/MOL
REMARK 924 INTRA-LIGAND FREE ENERGY PREDICTED BY IDOCK:   -0.01 KCAL/MOL
REMARK 927      BINDING AFFINITY PREDICTED BY RF-SCORE:    0.00 PKD
ROOT
HETATM    1  N   UNL     1     -12.283  15.982  63.588  1.00  0.00    -0.977 NA 
HETATM    2  H2  UNL     1     -12.860  15.226  63.956  1.00  0.00     0.000 HD 
HETATM    3  N   UNL     1     -11.125  16.284  64.191  1.00  0.00    -1.202 NA 
HETATM    4  H1  UNL     1     -12.597  16.497  62.765  1.00  0.00     0.000 HD 
HETATM    5  H   UNL     1     -10.548  17.041  63.823  1.00  0.00     0.000 HD 
ENDROOT
BRANCH   3   6
HETATM    6  C   UNL     1     -10.720  15.619  65.252  1.00  0.00    -0.425 A  
HETATM    7  N   UNL     1     -10.475  16.425  66.351  1.00  0.00    -0.304 NA 
HETATM    8  N   UNL     1      -9.802  15.978  67.440  1.00  0.00    -0.234 NA 
HETATM    9  C   UNL     1      -9.843  14.648  67.799  1.00  0.00    -0.216 A  
HETATM   10  C   UNL     1     -10.187  13.667  66.729  1.00  0.00    -0.268 A  
HETATM   11  C   UNL     1     -10.521  14.130  65.439  1.00  0.00    -0.372 A  
HETATM   12  C   UNL     1     -10.645  13.180  64.415  1.00  0.00    -0.441 A  
HETATM   13  C   UNL     1     -10.101  12.293  67.001  1.00  0.00    -0.225 A  
HETATM   14  C   UNL     1     -10.542  11.810  64.687  1.00  0.00    -0.359 A  
HETATM   15  C   UNL     1     -10.297  11.366  65.981  1.00  0.00    -0.297 A  
BRANCH   9  16
HETATM   16  N   UNL     1      -9.567  14.212  69.004  1.00  0.00    -0.408 NA 
HETATM   17  H1  UNL     1      -8.659  14.739  70.727  1.00  0.00     0.000 HD 
HETATM   18  N   UNL     1      -8.874  15.078  69.790  1.00  0.00    -0.448 NA 
HETATM   19  H   UNL     1      -9.852  13.289  69.328  1.00  0.00     0.000 HD 
HETATM   20  H2  UNL     1      -8.589  16.002  69.465  1.00  0.00     0.000 HD 
ENDBRANCH   9  16
ENDBRANCH   3   6
TORSDOF 2
ENDMDL
MODEL       29
REMARK 921   NORMALIZED FREE ENERGY PREDICTED BY IDOCK:   -5.41 KCAL/MOL
REMARK 922        TOTAL FREE ENERGY PREDICTED BY IDOCK:   -6.18 KCAL/MOL
REMARK 923 INTER-LIGAND FREE ENERGY PREDICTED BY IDOCK:   -6.06 KCAL/MOL
REMARK 924 INTRA-LIGAND FREE ENERGY PREDICTED BY IDOCK:   -0.12 KCAL/MOL
REMARK 927      BINDING AFFINITY PREDICTED BY RF-SCORE:    0.00 PKD
ROOT
HETATM    1  N   UNL     1      -9.153  11.349  68.887  1.00  0.00    -0.377 NA 
HETATM    2  H2  UNL     1      -8.990  10.605  69.566  1.00  0.00     0.000 HD 
HETATM    3  N   UNL     1     -10.314  12.020  68.908  1.00  0.00    -0.391 NA 
HETATM    4  H1  UNL     1      -8.429  11.572  68.204  1.00  0.00     0.000 HD 
HETATM    5  H   UNL     1     -10.476  12.764  68.230  1.00  0.00     0.000 HD 
ENDROOT
BRANCH   3   6
HETATM    6  C   UNL     1     -11.246  11.733  69.790  1.00  0.00    -0.090 A  
HETATM    7  N   UNL     1     -11.374  10.377  70.042  1.00  0.00    -0.290 NA 
HETATM    8  N   UNL     1     -12.440   9.861  70.701  1.00  0.00    -0.231 NA 
HETATM    9  C   UNL     1     -13.117  10.605  71.642  1.00  0.00    -0.450 A  
HETATM   10  C   UNL     1     -12.995  12.089  71.550  1.00  0.00    -0.407 A  
HETATM   11  C   UNL     1     -12.154  12.660  70.571  1.00  0.00    -0.360 A  
HETATM   12  C   UNL     1     -12.215  14.049  70.385  1.00  0.00    -0.433 A  
HETATM   13  C   UNL     1     -13.776  12.899  72.389  1.00  0.00    -0.530 A  
HETATM   14  C   UNL     1     -13.010  14.852  71.213  1.00  0.00    -0.431 A  
HETATM   15  C   UNL     1     -13.768  14.282  72.229  1.00  0.00    -0.592 A  
BRANCH   9  16
HETATM   16  N   UNL     1     -13.873  10.082  72.575  1.00  0.00    -0.524 NA 
HETATM   17  H1  UNL     1     -14.073   8.449  73.745  1.00  0.00     0.000 HD 
HETATM   18  N   UNL     1     -13.485   8.857  73.019  1.00  0.00    -0.952 NA 
HETATM   19  H   UNL     1     -14.696  10.559  72.943  1.00  0.00     0.000 HD 
HETATM   20  H2  UNL     1     -12.662   8.379  72.651  1.00  0.00     0.000 HD 
ENDBRANCH   9  16
ENDBRANCH   3   6
TORSDOF 2
ENDMDL
MODEL       30
REMARK 921   NORMALIZED FREE ENERGY PREDICTED BY IDOCK:   -5.36 KCAL/MOL
REMARK 922        TOTAL FREE ENERGY PREDICTED BY IDOCK:   -6.12 KCAL/MOL
REMARK 923 INTER-LIGAND FREE ENERGY PREDICTED BY IDOCK:   -6.02 KCAL/MOL
REMARK 924 INTRA-LIGAND FREE ENERGY PREDICTED BY IDOCK:   -0.10 KCAL/MOL
REMARK 927      BINDING AFFINITY PREDICTED BY RF-SCORE:    0.00 PKD
ROOT
HETATM    1  N   UNL     1     -12.524  14.344  68.985  1.00  0.00    -0.552 NA 
HETATM    2  H2  UNL     1     -12.756  13.361  69.129  1.00  0.00     0.000 HD 
HETATM    3  N   UNL     1     -12.039  14.742  67.800  1.00  0.00    -0.559 NA 
HETATM    4  H1  UNL     1     -12.665  15.009  69.746  1.00  0.00     0.000 HD 
HETATM    5  H   UNL     1     -11.806  15.724  67.657  1.00  0.00     0.000 HD 
ENDROOT
BRANCH   3   6
HETATM    6  C   UNL     1     -11.857  13.884  66.820  1.00  0.00    -0.424 A  
HETATM    7  N   UNL     1     -12.782  14.007  65.796  1.00  0.00    -0.504 NA 
HETATM    8  N   UNL     1     -12.934  13.058  64.840  1.00  0.00    -0.768 NA 
HETATM    9  C   UNL     1     -11.875  12.265  64.458  1.00  0.00    -0.369 A  
HETATM   10  C   UNL     1     -10.754  12.113  65.432  1.00  0.00    -0.323 A  
HETATM   11  C   UNL     1     -10.785  12.829  66.648  1.00  0.00    -0.279 A  
HETATM   12  C   UNL     1      -9.822  12.514  67.617  1.00  0.00    -0.202 A  
HETATM   13  C   UNL     1      -9.721  11.204  65.157  1.00  0.00    -0.296 A  
HETATM   14  C   UNL     1      -8.802  11.593  67.345  1.00  0.00    -0.160 A  
HETATM   15  C   UNL     1      -8.736  10.959  66.110  1.00  0.00    -0.189 A  
BRANCH   9  16
HETATM   16  N   UNL     1     -11.822  11.623  63.316  1.00  0.00    -0.877 NA 
HETATM   17  H1  UNL     1     -12.982  10.903  61.831  1.00  0.00     0.000 HD 
HETATM   18  N   UNL     1     -13.023  11.402  62.719  1.00  0.00    -0.515 NA 
HETATM   19  H   UNL     1     -10.942  11.312  62.905  1.00  0.00     0.000 HD 
HETATM   20  H2  UNL     1     -13.902  11.713  63.130  1.00  0.00     0.000 HD 
ENDBRANCH   9  16
ENDBRANCH   3   6
TORSDOF 2
ENDMDL
MODEL       31
REMARK 921   NORMALIZED FREE ENERGY PREDICTED BY IDOCK:   -5.35 KCAL/MOL
REMARK 922        TOTAL FREE ENERGY PREDICTED BY IDOCK:   -6.11 KCAL/MOL
REMARK 923 INTER-LIGAND FREE ENERGY PREDICTED BY IDOCK:   -5.98 KCAL/MOL
REMARK 924 INTRA-LIGAND FREE ENERGY PREDICTED BY IDOCK:   -0.13 KCAL/MOL
REMARK 927      BINDING AFFINITY PREDICTED BY RF-SCORE:    0.00 PKD
ROOT
HETATM    1  N   UNL     1     -12.865  12.052  63.154  1.00  0.00    -0.805 NA 
HETATM    2  H2  UNL     1     -12.896  11.261  63.797  1.00  0.00     0.000 HD 
HETATM    3  N   UNL     1     -12.381  13.228  63.577  1.00  0.00    -0.795 NA 
HETATM    4  H1  UNL     1     -13.203  11.935  62.198  1.00  0.00     0.000 HD 
HETATM    5  H   UNL     1     -12.351  14.019  62.934  1.00  0.00     0.000 HD 
ENDROOT
BRANCH   3   6
HETATM    6  C   UNL     1     -11.946  13.378  64.809  1.00  0.00    -0.390 A  
HETATM    7  N   UNL     1     -12.101  12.248  65.594  1.00  0.00    -0.578 NA 
HETATM    8  N   UNL     1     -11.969  12.280  66.943  1.00  0.00    -0.593 NA 
HETATM    9  C   UNL     1     -11.136  13.194  67.549  1.00  0.00    -0.271 A  
HETATM   10  C   UNL     1     -10.805  14.427  66.778  1.00  0.00    -0.301 A  
HETATM   11  C   UNL     1     -11.286  14.576  65.460  1.00  0.00    -0.335 A  
HETATM   12  C   UNL     1     -11.124  15.823  64.841  1.00  0.00    -0.411 A  
HETATM   13  C   UNL     1     -10.083  15.456  67.401  1.00  0.00    -0.233 A  
HETATM   14  C   UNL     1     -10.416  16.854  65.473  1.00  0.00    -0.220 A  
HETATM   15  C   UNL     1      -9.875  16.663  66.738  1.00  0.00    -0.280 A  
BRANCH   9  16
HETATM   16  N   UNL     1     -10.657  13.048  68.761  1.00  0.00    -0.355 NA 
HETATM   17  H1  UNL     1      -9.266  12.042  69.821  1.00  0.00     0.000 HD 
HETATM   18  N   UNL     1      -9.639  12.156  68.879  1.00  0.00    -0.413 NA 
HETATM   19  H   UNL     1     -11.024  13.567  69.558  1.00  0.00     0.000 HD 
HETATM   20  H2  UNL     1      -9.272  11.637  68.081  1.00  0.00     0.000 HD 
ENDBRANCH   9  16
ENDBRANCH   3   6
TORSDOF 2
ENDMDL
MODEL       32
REMARK 921   NORMALIZED FREE ENERGY PREDICTED BY IDOCK:   -5.35 KCAL/MOL
REMARK 922        TOTAL FREE ENERGY PREDICTED BY IDOCK:   -6.10 KCAL/MOL
REMARK 923 INTER-LIGAND FREE ENERGY PREDICTED BY IDOCK:   -6.03 KCAL/MOL
REMARK 924 INTRA-LIGAND FREE ENERGY PREDICTED BY IDOCK:   -0.08 KCAL/MOL
REMARK 927      BINDING AFFINITY PREDICTED BY RF-SCORE:    0.00 PKD
ROOT
HETATM    1  N   UNL     1     -12.445  13.872  63.249  1.00  0.00    -1.112 NA 
HETATM    2  H2  UNL     1     -12.327  12.915  63.582  1.00  0.00     0.000 HD 
HETATM    3  N   UNL     1     -12.183  14.896  64.074  1.00  0.00    -0.967 NA 
HETATM    4  H1  UNL     1     -12.761  14.035  62.293  1.00  0.00     0.000 HD 
HETATM    5  H   UNL     1     -12.301  15.853  63.741  1.00  0.00     0.000 HD 
ENDROOT
BRANCH   3   6
HETATM    6  C   UNL     1     -11.775  14.685  65.307  1.00  0.00    -0.346 A  
HETATM    7  N   UNL     1     -12.230  13.493  65.846  1.00  0.00    -0.442 NA 
HETATM    8  N   UNL     1     -12.151  13.222  67.172  1.00  0.00    -0.340 NA 
HETATM    9  C   UNL     1     -11.148  13.764  67.945  1.00  0.00    -0.264 A  
HETATM   10  C   UNL     1     -10.498  15.008  67.439  1.00  0.00    -0.257 A  
HETATM   11  C   UNL     1     -10.874  15.530  66.183  1.00  0.00    -0.295 A  
HETATM   12  C   UNL     1     -10.390  16.798  65.830  1.00  0.00    -0.341 A  
HETATM   13  C   UNL     1      -9.575  15.683  68.252  1.00  0.00    -0.200 A  
HETATM   14  C   UNL     1      -9.482  17.476  66.653  1.00  0.00    -0.285 A  
HETATM   15  C   UNL     1      -9.056  16.909  67.848  1.00  0.00    -0.233 A  
BRANCH   9  16
HETATM   16  N   UNL     1     -10.769  13.266  69.097  1.00  0.00    -0.436 NA 
HETATM   17  H1  UNL     1     -11.292  13.160  71.043  1.00  0.00     0.000 HD 
HETATM   18  N   UNL     1     -11.586  13.547  70.147  1.00  0.00    -0.509 NA 
HETATM   19  H   UNL     1      -9.922  12.709  69.198  1.00  0.00     0.000 HD 
HETATM   20  H2  UNL     1     -12.434  14.104  70.045  1.00  0.00     0.000 HD 
ENDBRANCH   9  16
ENDBRANCH   3   6
TORSDOF 2
ENDMDL
MODEL       33
REMARK 921   NORMALIZED FREE ENERGY PREDICTED BY IDOCK:   -5.32 KCAL/MOL
REMARK 922        TOTAL FREE ENERGY PREDICTED BY IDOCK:   -6.07 KCAL/MOL
REMARK 923 INTER-LIGAND FREE ENERGY PREDICTED BY IDOCK:   -5.95 KCAL/MOL
REMARK 924 INTRA-LIGAND FREE ENERGY PREDICTED BY IDOCK:   -0.12 KCAL/MOL
REMARK 927      BINDING AFFINITY PREDICTED BY RF-SCORE:    0.00 PKD
ROOT
HETATM    1  N   UNL     1     -11.853  16.283  63.762  1.00  0.00    -1.413 NA 
HETATM    2  H2  UNL     1     -12.391  15.494  64.121  1.00  0.00     0.000 HD 
HETATM    3  N   UNL     1     -10.841  16.777  64.490  1.00  0.00    -0.884 NA 
HETATM    4  H1  UNL     1     -12.094  16.684  62.855  1.00  0.00     0.000 HD 
HETATM    5  H   UNL     1     -10.303  17.566  64.132  1.00  0.00     0.000 HD 
ENDROOT
BRANCH   3   6
HETATM    6  C   UNL     1     -10.531  16.260  65.659  1.00  0.00    -0.368 A  
HETATM    7  N   UNL     1     -11.164  15.056  65.919  1.00  0.00    -0.336 NA 
HETATM    8  N   UNL     1     -11.192  14.505  67.157  1.00  0.00    -0.321 NA 
HETATM    9  C   UNL     1     -10.171  14.732  68.054  1.00  0.00    -0.226 A  
HETATM   10  C   UNL     1      -9.340  15.953  67.842  1.00  0.00    -0.207 A  
HETATM   11  C   UNL     1      -9.578  16.772  66.718  1.00  0.00    -0.261 A  
HETATM   12  C   UNL     1      -8.917  18.007  66.657  1.00  0.00    -0.285 A  
HETATM   13  C   UNL     1      -8.384  16.310  68.805  1.00  0.00    -0.235 A  
HETATM   14  C   UNL     1      -7.974  18.368  67.629  1.00  0.00    -0.249 A  
HETATM   15  C   UNL     1      -7.689  17.511  68.685  1.00  0.00    -0.275 A  
BRANCH   9  16
HETATM   16  N   UNL     1      -9.922  13.958  69.082  1.00  0.00    -0.430 NA 
HETATM   17  H1  UNL     1     -10.822  12.803  70.471  1.00  0.00     0.000 HD 
HETATM   18  N   UNL     1     -11.016  13.406  69.671  1.00  0.00    -0.460 NA 
HETATM   19  H   UNL     1      -8.975  13.782  69.416  1.00  0.00     0.000 HD 
HETATM   20  H2  UNL     1     -11.963  13.581  69.336  1.00  0.00     0.000 HD 
ENDBRANCH   9  16
ENDBRANCH   3   6
TORSDOF 2
ENDMDL
MODEL       34
REMARK 921   NORMALIZED FREE ENERGY PREDICTED BY IDOCK:   -5.29 KCAL/MOL
REMARK 922        TOTAL FREE ENERGY PREDICTED BY IDOCK:   -6.05 KCAL/MOL
REMARK 923 INTER-LIGAND FREE ENERGY PREDICTED BY IDOCK:   -5.96 KCAL/MOL
REMARK 924 INTRA-LIGAND FREE ENERGY PREDICTED BY IDOCK:   -0.09 KCAL/MOL
REMARK 927      BINDING AFFINITY PREDICTED BY RF-SCORE:    0.00 PKD
ROOT
HETATM    1  N   UNL     1     -14.391   8.854  73.121  1.00  0.00    -1.145 NA 
HETATM    2  H2  UNL     1     -14.914   9.209  72.321  1.00  0.00     0.000 HD 
HETATM    3  N   UNL     1     -13.059   8.728  73.037  1.00  0.00    -0.785 NA 
HETATM    4  H1  UNL     1     -14.890   8.599  73.973  1.00  0.00     0.000 HD 
HETATM    5  H   UNL     1     -12.536   8.373  73.838  1.00  0.00     0.000 HD 
ENDROOT
BRANCH   3   6
HETATM    6  C   UNL     1     -12.415   9.056  71.938  1.00  0.00    -0.384 A  
HETATM    7  N   UNL     1     -11.822   7.980  71.300  1.00  0.00    -0.292 NA 
HETATM    8  N   UNL     1     -10.899   8.139  70.319  1.00  0.00    -0.243 NA 
HETATM    9  C   UNL     1     -10.921   9.248  69.502  1.00  0.00    -0.151 A  
HETATM   10  C   UNL     1     -11.612  10.463  70.026  1.00  0.00    -0.378 A  
HETATM   11  C   UNL     1     -12.265  10.410  71.275  1.00  0.00    -0.491 A  
HETATM   12  C   UNL     1     -12.731  11.614  71.822  1.00  0.00    -0.322 A  
HETATM   13  C   UNL     1     -11.539  11.663  69.302  1.00  0.00    -0.385 A  
HETATM   14  C   UNL     1     -12.641  12.813  71.103  1.00  0.00    -0.365 A  
HETATM   15  C   UNL     1     -12.071  12.833  69.836  1.00  0.00    -0.329 A  
BRANCH   9  16
HETATM   16  N   UNL     1     -10.346   9.296  68.326  1.00  0.00    -0.209 NA 
HETATM   17  H1  UNL     1     -10.313   8.389  66.523  1.00  0.00     0.000 HD 
HETATM   18  N   UNL     1     -10.760   8.352  67.439  1.00  0.00    -0.479 NA 
HETATM   19  H   UNL     1      -9.638   9.991  68.092  1.00  0.00     0.000 HD 
HETATM   20  H2  UNL     1     -11.468   7.657  67.673  1.00  0.00     0.000 HD 
ENDBRANCH   9  16
ENDBRANCH   3   6
TORSDOF 2
ENDMDL
MODEL       35
REMARK 921   NORMALIZED FREE ENERGY PREDICTED BY IDOCK:   -5.28 KCAL/MOL
REMARK 922        TOTAL FREE ENERGY PREDICTED BY IDOCK:   -6.03 KCAL/MOL
REMARK 923 INTER-LIGAND FREE ENERGY PREDICTED BY IDOCK:   -6.09 KCAL/MOL
REMARK 924 INTRA-LIGAND FREE ENERGY PREDICTED BY IDOCK:    0.06 KCAL/MOL
REMARK 927      BINDING AFFINITY PREDICTED BY RF-SCORE:    0.00 PKD
ROOT
HETATM    1  N   UNL     1      -8.829   9.811  65.329  1.00  0.00    -0.162 NA 
HETATM    2  H2  UNL     1      -8.350  10.644  65.670  1.00  0.00     0.000 HD 
HETATM    3  N   UNL     1     -10.071   9.918  64.836  1.00  0.00    -0.352 NA 
HETATM    4  H1  UNL     1      -8.354   8.908  65.368  1.00  0.00     0.000 HD 
HETATM    5  H   UNL     1     -10.550   9.084  64.495  1.00  0.00     0.000 HD 
ENDROOT
BRANCH   3   6
HETATM    6  C   UNL     1     -10.682  11.081  64.786  1.00  0.00    -0.234 A  
HETATM    7  N   UNL     1     -10.997  11.488  63.501  1.00  0.00    -0.404 NA 
HETATM    8  N   UNL     1     -11.376  12.759  63.216  1.00  0.00    -0.350 NA 
HETATM    9  C   UNL     1     -12.032  13.526  64.153  1.00  0.00    -0.448 A  
HETATM   10  C   UNL     1     -11.858  13.145  65.585  1.00  0.00    -0.430 A  
HETATM   11  C   UNL     1     -11.106  11.997  65.915  1.00  0.00    -0.369 A  
HETATM   12  C   UNL     1     -10.800  11.783  67.266  1.00  0.00    -0.300 A  
HETATM   13  C   UNL     1     -12.382  13.976  66.588  1.00  0.00    -0.408 A  
HETATM   14  C   UNL     1     -11.311  12.623  68.263  1.00  0.00    -0.337 A  
HETATM   15  C   UNL     1     -12.121  13.701  67.927  1.00  0.00    -0.318 A  
BRANCH   9  16
HETATM   16  N   UNL     1     -12.760  14.574  63.853  1.00  0.00    -0.804 NA 
HETATM   17  H1  UNL     1     -12.640  16.556  63.496  1.00  0.00     0.000 HD 
HETATM   18  N   UNL     1     -12.074  15.741  63.729  1.00  0.00    -1.173 NA 
HETATM   19  H   UNL     1     -13.770  14.517  63.722  1.00  0.00     0.000 HD 
HETATM   20  H2  UNL     1     -11.065  15.797  63.860  1.00  0.00     0.000 HD 
ENDBRANCH   9  16
ENDBRANCH   3   6
TORSDOF 2
ENDMDL
MODEL       36
REMARK 921   NORMALIZED FREE ENERGY PREDICTED BY IDOCK:   -5.26 KCAL/MOL
REMARK 922        TOTAL FREE ENERGY PREDICTED BY IDOCK:   -6.01 KCAL/MOL
REMARK 923 INTER-LIGAND FREE ENERGY PREDICTED BY IDOCK:   -5.88 KCAL/MOL
REMARK 924 INTRA-LIGAND FREE ENERGY PREDICTED BY IDOCK:   -0.13 KCAL/MOL
REMARK 927      BINDING AFFINITY PREDICTED BY RF-SCORE:    0.00 PKD
ROOT
HETATM    1  N   UNL     1     -12.004  13.653  70.301  1.00  0.00    -0.416 NA 
HETATM    2  H2  UNL     1     -12.872  14.084  69.982  1.00  0.00     0.000 HD 
HETATM    3  N   UNL     1     -11.148  13.148  69.400  1.00  0.00    -0.447 NA 
HETATM    4  H1  UNL     1     -11.801  13.613  71.299  1.00  0.00     0.000 HD 
HETATM    5  H   UNL     1     -10.281  12.717  69.719  1.00  0.00     0.000 HD 
ENDROOT
BRANCH   3   6
HETATM    6  C   UNL     1     -11.411  13.200  68.112  1.00  0.00    -0.292 A  
HETATM    7  N   UNL     1     -12.131  12.112  67.649  1.00  0.00    -0.488 NA 
HETATM    8  N   UNL     1     -12.266  11.843  66.326  1.00  0.00    -0.251 NA 
HETATM    9  C   UNL     1     -12.245  12.858  65.394  1.00  0.00    -0.478 A  
HETATM   10  C   UNL     1     -11.577  14.131  65.792  1.00  0.00    -0.343 A  
HETATM   11  C   UNL     1     -11.069  14.274  67.101  1.00  0.00    -0.318 A  
HETATM   12  C   UNL     1     -10.280  15.399  67.377  1.00  0.00    -0.249 A  
HETATM   13  C   UNL     1     -11.398  15.143  64.836  1.00  0.00    -0.402 A  
HETATM   14  C   UNL     1     -10.089  16.399  66.415  1.00  0.00    -0.328 A  
HETATM   15  C   UNL     1     -10.667  16.284  65.157  1.00  0.00    -0.350 A  
BRANCH   9  16
HETATM   16  N   UNL     1     -12.744  12.746  64.188  1.00  0.00    -0.702 NA 
HETATM   17  H1  UNL     1     -12.542  11.722  62.461  1.00  0.00     0.000 HD 
HETATM   18  N   UNL     1     -12.153  11.809  63.400  1.00  0.00    -0.816 NA 
HETATM   19  H   UNL     1     -13.521  13.321  63.863  1.00  0.00     0.000 HD 
HETATM   20  H2  UNL     1     -11.377  11.234  63.724  1.00  0.00     0.000 HD 
ENDBRANCH   9  16
ENDBRANCH   3   6
TORSDOF 2
ENDMDL
MODEL       37
REMARK 921   NORMALIZED FREE ENERGY PREDICTED BY IDOCK:   -5.25 KCAL/MOL
REMARK 922        TOTAL FREE ENERGY PREDICTED BY IDOCK:   -6.00 KCAL/MOL
REMARK 923 INTER-LIGAND FREE ENERGY PREDICTED BY IDOCK:   -5.93 KCAL/MOL
REMARK 924 INTRA-LIGAND FREE ENERGY PREDICTED BY IDOCK:   -0.07 KCAL/MOL
REMARK 927      BINDING AFFINITY PREDICTED BY RF-SCORE:    0.00 PKD
ROOT
HETATM    1  N   UNL     1     -13.919   8.667  71.043  1.00  0.00    -0.585 NA 
HETATM    2  H2  UNL     1     -14.779   9.211  70.969  1.00  0.00     0.000 HD 
HETATM    3  N   UNL     1     -12.736   9.298  71.033  1.00  0.00    -0.496 NA 
HETATM    4  H1  UNL     1     -13.973   7.652  71.125  1.00  0.00     0.000 HD 
HETATM    5  H   UNL     1     -11.876   8.755  71.107  1.00  0.00     0.000 HD 
ENDROOT
BRANCH   3   6
HETATM    6  C   UNL     1     -12.667  10.608  70.928  1.00  0.00    -0.404 A  
HETATM    7  N   UNL     1     -13.190  11.280  72.020  1.00  0.00    -0.459 NA 
HETATM    8  N   UNL     1     -13.459  12.609  71.991  1.00  0.00    -0.484 NA 
HETATM    9  C   UNL     1     -12.732  13.459  71.188  1.00  0.00    -0.328 A  
HETATM   10  C   UNL     1     -12.033  12.854  70.016  1.00  0.00    -0.380 A  
HETATM   11  C   UNL     1     -12.081  11.457  69.820  1.00  0.00    -0.388 A  
HETATM   12  C   UNL     1     -11.585  10.949  68.611  1.00  0.00    -0.373 A  
HETATM   13  C   UNL     1     -11.401  13.691  69.084  1.00  0.00    -0.335 A  
HETATM   14  C   UNL     1     -10.969  11.790  67.675  1.00  0.00    -0.286 A  
HETATM   15  C   UNL     1     -10.854  13.152  67.922  1.00  0.00    -0.260 A  
BRANCH   9  16
HETATM   16  N   UNL     1     -12.654  14.753  71.382  1.00  0.00    -0.305 NA 
HETATM   17  H1  UNL     1     -13.660  16.478  71.091  1.00  0.00     0.000 HD 
HETATM   18  N   UNL     1     -13.720  15.471  70.940  1.00  0.00    -0.844 NA 
HETATM   19  H   UNL     1     -11.850  15.190  71.832  1.00  0.00     0.000 HD 
HETATM   20  H2  UNL     1     -14.524  15.034  70.490  1.00  0.00     0.000 HD 
ENDBRANCH   9  16
ENDBRANCH   3   6
TORSDOF 2
ENDMDL
MODEL       38
REMARK 921   NORMALIZED FREE ENERGY PREDICTED BY IDOCK:   -5.23 KCAL/MOL
REMARK 922        TOTAL FREE ENERGY PREDICTED BY IDOCK:   -5.98 KCAL/MOL
REMARK 923 INTER-LIGAND FREE ENERGY PREDICTED BY IDOCK:   -5.85 KCAL/MOL
REMARK 924 INTRA-LIGAND FREE ENERGY PREDICTED BY IDOCK:   -0.12 KCAL/MOL
REMARK 927      BINDING AFFINITY PREDICTED BY RF-SCORE:    0.00 PKD
ROOT
HETATM    1  N   UNL     1     -13.922  15.490  71.067  1.00  0.00    -0.833 NA 
HETATM    2  H2  UNL     1     -14.686  14.930  70.691  1.00  0.00     0.000 HD 
HETATM    3  N   UNL     1     -12.655  15.126  70.825  1.00  0.00    -0.363 NA 
HETATM    4  H1  UNL     1     -14.134  16.320  71.621  1.00  0.00     0.000 HD 
HETATM    5  H   UNL     1     -11.890  15.687  71.201  1.00  0.00     0.000 HD 
ENDROOT
BRANCH   3   6
HETATM    6  C   UNL     1     -12.382  14.056  70.110  1.00  0.00    -0.345 A  
HETATM    7  N   UNL     1     -12.532  12.869  70.808  1.00  0.00    -0.330 NA 
HETATM    8  N   UNL     1     -12.047  11.691  70.345  1.00  0.00    -0.374 NA 
HETATM    9  C   UNL     1     -11.929  11.459  68.993  1.00  0.00    -0.320 A  
HETATM   10  C   UNL     1     -11.849  12.654  68.103  1.00  0.00    -0.366 A  
HETATM   11  C   UNL     1     -11.968  13.946  68.658  1.00  0.00    -0.401 A  
HETATM   12  C   UNL     1     -11.692  15.042  67.828  1.00  0.00    -0.294 A  
HETATM   13  C   UNL     1     -11.582  12.479  66.736  1.00  0.00    -0.446 A  
HETATM   14  C   UNL     1     -11.409  14.862  66.468  1.00  0.00    -0.319 A  
HETATM   15  C   UNL     1     -11.380  13.587  65.918  1.00  0.00    -0.321 A  
BRANCH   9  16
HETATM   16  N   UNL     1     -11.852  10.261  68.465  1.00  0.00    -0.710 NA 
HETATM   17  H1  UNL     1     -11.038   8.437  68.749  1.00  0.00     0.000 HD 
HETATM   18  N   UNL     1     -11.098   9.369  69.159  1.00  0.00    -0.433 NA 
HETATM   19  H   UNL     1     -12.324  10.017  67.595  1.00  0.00     0.000 HD 
HETATM   20  H2  UNL     1     -10.625   9.613  70.029  1.00  0.00     0.000 HD 
ENDBRANCH   9  16
ENDBRANCH   3   6
TORSDOF 2
ENDMDL
MODEL       39
REMARK 921   NORMALIZED FREE ENERGY PREDICTED BY IDOCK:   -5.21 KCAL/MOL
REMARK 922        TOTAL FREE ENERGY PREDICTED BY IDOCK:   -5.96 KCAL/MOL
REMARK 923 INTER-LIGAND FREE ENERGY PREDICTED BY IDOCK:   -5.83 KCAL/MOL
REMARK 924 INTRA-LIGAND FREE ENERGY PREDICTED BY IDOCK:   -0.13 KCAL/MOL
REMARK 927      BINDING AFFINITY PREDICTED BY RF-SCORE:    0.00 PKD
ROOT
HETATM    1  N   UNL     1     -14.345  15.460  70.958  1.00  0.00    -0.848 NA 
HETATM    2  H2  UNL     1     -15.122  14.820  70.795  1.00  0.00     0.000 HD 
HETATM    3  N   UNL     1     -13.094  14.980  71.012  1.00  0.00    -0.398 NA 
HETATM    4  H1  UNL     1     -14.532  16.455  71.078  1.00  0.00     0.000 HD 
HETATM    5  H   UNL     1     -12.317  15.620  71.175  1.00  0.00     0.000 HD 
ENDROOT
BRANCH   3   6
HETATM    6  C   UNL     1     -12.854  13.696  70.857  1.00  0.00    -0.251 A  
HETATM    7  N   UNL     1     -13.405  12.904  71.850  1.00  0.00    -0.469 NA 
HETATM    8  N   UNL     1     -13.050  11.607  72.022  1.00  0.00    -0.440 NA 
HETATM    9  C   UNL     1     -12.629  10.843  70.956  1.00  0.00    -0.417 A  
HETATM   10  C   UNL     1     -12.093  11.571  69.770  1.00  0.00    -0.374 A  
HETATM   11  C   UNL     1     -12.103  12.982  69.753  1.00  0.00    -0.325 A  
HETATM   12  C   UNL     1     -11.416  13.629  68.716  1.00  0.00    -0.346 A  
HETATM   13  C   UNL     1     -11.516  10.842  68.717  1.00  0.00    -0.376 A  
HETATM   14  C   UNL     1     -10.827  12.898  67.676  1.00  0.00    -0.252 A  
HETATM   15  C   UNL     1     -10.899  11.510  67.663  1.00  0.00    -0.277 A  
BRANCH   9  16
HETATM   16  N   UNL     1     -12.647   9.533  70.950  1.00  0.00    -0.480 NA 
HETATM   17  H1  UNL     1     -13.896   7.949  71.023  1.00  0.00     0.000 HD 
HETATM   18  N   UNL     1     -13.882   8.969  71.028  1.00  0.00    -0.574 NA 
HETATM   19  H   UNL     1     -11.795   8.975  70.891  1.00  0.00     0.000 HD 
HETATM   20  H2  UNL     1     -14.733   9.526  71.086  1.00  0.00     0.000 HD 
ENDBRANCH   9  16
ENDBRANCH   3   6
TORSDOF 2
ENDMDL
MODEL       40
REMARK 921   NORMALIZED FREE ENERGY PREDICTED BY IDOCK:   -5.20 KCAL/MOL
REMARK 922        TOTAL FREE ENERGY PREDICTED BY IDOCK:   -5.95 KCAL/MOL
REMARK 923 INTER-LIGAND FREE ENERGY PREDICTED BY IDOCK:   -5.81 KCAL/MOL
REMARK 924 INTRA-LIGAND FREE ENERGY PREDICTED BY IDOCK:   -0.13 KCAL/MOL
REMARK 927      BINDING AFFINITY PREDICTED BY RF-SCORE:    0.00 PKD
ROOT
HETATM    1  N   UNL     1     -11.849   9.314  69.966  1.00  0.00    -0.450 NA 
HETATM    2  H2  UNL     1     -11.320   9.110  69.118  1.00  0.00     0.000 HD 
HETATM    3  N   UNL     1     -12.318  10.554  70.169  1.00  0.00    -0.451 NA 
HETATM    4  H1  UNL     1     -12.013   8.572  70.646  1.00  0.00     0.000 HD 
HETATM    5  H   UNL     1     -12.847  10.758  71.017  1.00  0.00     0.000 HD 
ENDROOT
BRANCH   3   6
HETATM    6  C   UNL     1     -12.106  11.511  69.292  1.00  0.00    -0.278 A  
HETATM    7  N   UNL     1     -12.025  11.058  67.986  1.00  0.00    -0.605 NA 
HETATM    8  N   UNL     1     -11.548  11.832  66.979  1.00  0.00    -0.542 NA 
HETATM    9  C   UNL     1     -11.677  13.203  67.022  1.00  0.00    -0.377 A  
HETATM   10  C   UNL     1     -11.863  13.826  68.365  1.00  0.00    -0.411 A  
HETATM   11  C   UNL     1     -11.973  13.004  69.506  1.00  0.00    -0.350 A  
HETATM   12  C   UNL     1     -11.949  13.624  70.764  1.00  0.00    -0.286 A  
HETATM   13  C   UNL     1     -11.853  15.225  68.483  1.00  0.00    -0.305 A  
HETATM   14  C   UNL     1     -11.921  15.019  70.878  1.00  0.00    -0.374 A  
HETATM   15  C   UNL     1     -11.900  15.818  69.742  1.00  0.00    -0.352 A  
BRANCH   9  16
HETATM   16  N   UNL     1     -11.610  13.972  65.963  1.00  0.00    -0.345 NA 
HETATM   17  H1  UNL     1     -12.648  14.536  64.327  1.00  0.00     0.000 HD 
HETATM   18  N   UNL     1     -12.700  13.937  65.151  1.00  0.00    -0.689 NA 
HETATM   19  H   UNL     1     -10.798  14.555  65.762  1.00  0.00     0.000 HD 
HETATM   20  H2  UNL     1     -13.512  13.355  65.353  1.00  0.00     0.000 HD 
ENDBRANCH   9  16
ENDBRANCH   3   6
TORSDOF 2
ENDMDL
MODEL       41
REMARK 921   NORMALIZED FREE ENERGY PREDICTED BY IDOCK:   -5.17 KCAL/MOL
REMARK 922        TOTAL FREE ENERGY PREDICTED BY IDOCK:   -5.91 KCAL/MOL
REMARK 923 INTER-LIGAND FREE ENERGY PREDICTED BY IDOCK:   -5.79 KCAL/MOL
REMARK 924 INTRA-LIGAND FREE ENERGY PREDICTED BY IDOCK:   -0.12 KCAL/MOL
REMARK 927      BINDING AFFINITY PREDICTED BY RF-SCORE:    0.00 PKD
ROOT
HETATM    1  N   UNL     1     -11.654  10.399  67.907  1.00  0.00    -0.693 NA 
HETATM    2  H2  UNL     1     -11.038  10.919  67.282  1.00  0.00     0.000 HD 
HETATM    3  N   UNL     1     -12.214  11.024  68.953  1.00  0.00    -0.712 NA 
HETATM    4  H1  UNL     1     -11.835   9.411  67.726  1.00  0.00     0.000 HD 
HETATM    5  H   UNL     1     -12.830  10.504  69.577  1.00  0.00     0.000 HD 
ENDROOT
BRANCH   3   6
HETATM    6  C   UNL     1     -11.980  12.297  69.185  1.00  0.00    -0.249 A  
HETATM    7  N   UNL     1     -11.298  12.932  68.162  1.00  0.00    -0.268 NA 
HETATM    8  N   UNL     1     -10.730  14.154  68.319  1.00  0.00    -0.243 NA 
HETATM    9  C   UNL     1     -11.256  15.067  69.206  1.00  0.00    -0.286 A  
HETATM   10  C   UNL     1     -12.095  14.530  70.316  1.00  0.00    -0.386 A  
HETATM   11  C   UNL     1     -12.374  13.148  70.374  1.00  0.00    -0.351 A  
HETATM   12  C   UNL     1     -12.995  12.654  71.530  1.00  0.00    -0.380 A  
HETATM   13  C   UNL     1     -12.534  15.396  71.330  1.00  0.00    -0.460 A  
HETATM   14  C   UNL     1     -13.416  13.520  72.548  1.00  0.00    -0.660 A  
HETATM   15  C   UNL     1     -13.210  14.889  72.436  1.00  0.00    -0.476 A  
BRANCH   9  16
HETATM   16  N   UNL     1     -11.030  16.356  69.140  1.00  0.00    -0.321 NA 
HETATM   17  H1  UNL     1     -10.207  17.779  67.969  1.00  0.00     0.000 HD 
HETATM   18  N   UNL     1     -10.383  16.776  68.020  1.00  0.00    -0.302 NA 
HETATM   19  H   UNL     1     -11.318  17.000  69.876  1.00  0.00     0.000 HD 
HETATM   20  H2  UNL     1     -10.094  16.132  67.284  1.00  0.00     0.000 HD 
ENDBRANCH   9  16
ENDBRANCH   3   6
TORSDOF 2
ENDMDL
MODEL       42
REMARK 921   NORMALIZED FREE ENERGY PREDICTED BY IDOCK:   -5.17 KCAL/MOL
REMARK 922        TOTAL FREE ENERGY PREDICTED BY IDOCK:   -5.91 KCAL/MOL
REMARK 923 INTER-LIGAND FREE ENERGY PREDICTED BY IDOCK:   -5.79 KCAL/MOL
REMARK 924 INTRA-LIGAND FREE ENERGY PREDICTED BY IDOCK:   -0.12 KCAL/MOL
REMARK 927      BINDING AFFINITY PREDICTED BY RF-SCORE:    0.00 PKD
ROOT
HETATM    1  N   UNL     1     -10.267  17.326  68.344  1.00  0.00    -0.335 NA 
HETATM    2  H2  UNL     1      -9.550  16.654  68.072  1.00  0.00     0.000 HD 
HETATM    3  N   UNL     1     -11.401  16.889  68.911  1.00  0.00    -0.165 NA 
HETATM    4  H1  UNL     1     -10.110  18.321  68.181  1.00  0.00     0.000 HD 
HETATM    5  H   UNL     1     -12.118  17.561  69.183  1.00  0.00     0.000 HD 
ENDROOT
BRANCH   3   6
HETATM    6  C   UNL     1     -11.603  15.606  69.120  1.00  0.00    -0.383 A  
HETATM    7  N   UNL     1     -11.006  14.789  68.175  1.00  0.00    -0.260 NA 
HETATM    8  N   UNL     1     -11.315  13.474  68.057  1.00  0.00    -0.269 NA 
HETATM    9  C   UNL     1     -11.733  12.746  69.149  1.00  0.00    -0.322 A  
HETATM   10  C   UNL     1     -12.317  13.509  70.291  1.00  0.00    -0.370 A  
HETATM   11  C   UNL     1     -12.352  14.919  70.242  1.00  0.00    -0.393 A  
HETATM   12  C   UNL     1     -13.081  15.589  71.234  1.00  0.00    -0.581 A  
HETATM   13  C   UNL     1     -12.891  12.811  71.364  1.00  0.00    -0.371 A  
HETATM   14  C   UNL     1     -13.668  14.888  72.295  1.00  0.00    -0.564 A  
HETATM   15  C   UNL     1     -13.551  13.505  72.375  1.00  0.00    -0.709 A  
BRANCH   9  16
HETATM   16  N   UNL     1     -11.672  11.439  69.217  1.00  0.00    -0.306 NA 
HETATM   17  H1  UNL     1     -12.103   9.761  68.182  1.00  0.00     0.000 HD 
HETATM   18  N   UNL     1     -12.150  10.778  68.129  1.00  0.00    -0.759 NA 
HETATM   19  H   UNL     1     -11.294  10.951  70.029  1.00  0.00     0.000 HD 
HETATM   20  H2  UNL     1     -12.529  11.266  67.318  1.00  0.00     0.000 HD 
ENDBRANCH   9  16
ENDBRANCH   3   6
TORSDOF 2
ENDMDL
MODEL       43
REMARK 921   NORMALIZED FREE ENERGY PREDICTED BY IDOCK:   -5.17 KCAL/MOL
REMARK 922        TOTAL FREE ENERGY PREDICTED BY IDOCK:   -5.91 KCAL/MOL
REMARK 923 INTER-LIGAND FREE ENERGY PREDICTED BY IDOCK:   -5.78 KCAL/MOL
REMARK 924 INTRA-LIGAND FREE ENERGY PREDICTED BY IDOCK:   -0.12 KCAL/MOL
REMARK 927      BINDING AFFINITY PREDICTED BY RF-SCORE:    0.00 PKD
ROOT
HETATM    1  N   UNL     1     -13.068  10.160  70.654  1.00  0.00    -0.585 NA 
HETATM    2  H2  UNL     1     -13.765  10.082  69.913  1.00  0.00     0.000 HD 
HETATM    3  N   UNL     1     -12.056  11.029  70.518  1.00  0.00    -0.348 NA 
HETATM    4  H1  UNL     1     -13.153   9.577  71.486  1.00  0.00     0.000 HD 
HETATM    5  H   UNL     1     -11.359  11.108  71.259  1.00  0.00     0.000 HD 
ENDROOT
BRANCH   3   6
HETATM    6  C   UNL     1     -11.948  11.782  69.445  1.00  0.00    -0.298 A  
HETATM    7  N   UNL     1     -12.125  11.087  68.260  1.00  0.00    -0.571 NA 
HETATM    8  N   UNL     1     -11.790  11.613  67.056  1.00  0.00    -0.575 NA 
HETATM    9  C   UNL     1     -11.831  12.973  66.843  1.00  0.00    -0.380 A  
HETATM   10  C   UNL     1     -11.743  13.851  68.047  1.00  0.00    -0.387 A  
HETATM   11  C   UNL     1     -11.695  13.270  69.332  1.00  0.00    -0.383 A  
HETATM   12  C   UNL     1     -11.415  14.110  70.419  1.00  0.00    -0.149 A  
HETATM   13  C   UNL     1     -11.632  15.240  67.879  1.00  0.00    -0.301 A  
HETATM   14  C   UNL     1     -11.289  15.495  70.246  1.00  0.00    -0.348 A  
HETATM   15  C   UNL     1     -11.423  16.061  68.984  1.00  0.00    -0.360 A  
BRANCH   9  16
HETATM   16  N   UNL     1     -11.908  13.521  65.655  1.00  0.00    -0.351 NA 
HETATM   17  H1  UNL     1     -12.909  13.414  63.906  1.00  0.00     0.000 HD 
HETATM   18  N   UNL     1     -12.849  12.988  64.831  1.00  0.00    -0.747 NA 
HETATM   19  H   UNL     1     -11.306  14.292  65.369  1.00  0.00     0.000 HD 
HETATM   20  H2  UNL     1     -13.451  12.216  65.117  1.00  0.00     0.000 HD 
ENDBRANCH   9  16
ENDBRANCH   3   6
TORSDOF 2
ENDMDL
MODEL       44
REMARK 921   NORMALIZED FREE ENERGY PREDICTED BY IDOCK:   -5.13 KCAL/MOL
REMARK 922        TOTAL FREE ENERGY PREDICTED BY IDOCK:   -5.86 KCAL/MOL
REMARK 923 INTER-LIGAND FREE ENERGY PREDICTED BY IDOCK:   -6.40 KCAL/MOL
REMARK 924 INTRA-LIGAND FREE ENERGY PREDICTED BY IDOCK:    0.54 KCAL/MOL
REMARK 927      BINDING AFFINITY PREDICTED BY RF-SCORE:    0.00 PKD
ROOT
HETATM    1  N   UNL     1     -11.330  17.204  64.098  1.00  0.00    -0.775 NA 
HETATM    2  H2  UNL     1     -10.660  17.326  64.857  1.00  0.00     0.000 HD 
HETATM    3  N   UNL     1     -11.918  16.012  63.922  1.00  0.00    -1.309 NA 
HETATM    4  H1  UNL     1     -11.543  17.991  63.485  1.00  0.00     0.000 HD 
HETATM    5  H   UNL     1     -12.589  15.889  63.163  1.00  0.00     0.000 HD 
ENDROOT
BRANCH   3   6
HETATM    6  C   UNL     1     -11.643  14.997  64.713  1.00  0.00    -0.395 A  
HETATM    7  N   UNL     1     -12.526  13.938  64.584  1.00  0.00    -0.620 NA 
HETATM    8  N   UNL     1     -12.580  12.926  65.485  1.00  0.00    -0.583 NA 
HETATM    9  C   UNL     1     -11.460  12.555  66.197  1.00  0.00    -0.377 A  
HETATM   10  C   UNL     1     -10.378  13.572  66.340  1.00  0.00    -0.289 A  
HETATM   11  C   UNL     1     -10.506  14.821  65.696  1.00  0.00    -0.365 A  
HETATM   12  C   UNL     1      -9.571  15.818  66.012  1.00  0.00    -0.388 A  
HETATM   13  C   UNL     1      -9.283  13.300  67.175  1.00  0.00    -0.235 A  
HETATM   14  C   UNL     1      -8.488  15.548  66.859  1.00  0.00    -0.289 A  
HETATM   15  C   UNL     1      -8.330  14.286  67.418  1.00  0.00    -0.212 A  
BRANCH   9  16
HETATM   16  N   UNL     1     -11.319  11.385  66.770  1.00  0.00    -0.405 NA 
HETATM   17  H1  UNL     1     -10.447   9.581  66.531  1.00  0.00     0.000 HD 
HETATM   18  N   UNL     1     -10.557  10.491  66.085  1.00  0.00    -0.162 NA 
HETATM   19  H   UNL     1     -11.751  11.160  67.665  1.00  0.00     0.000 HD 
HETATM   20  H2  UNL     1     -10.125  10.716  65.189  1.00  0.00     0.000 HD 
ENDBRANCH   9  16
ENDBRANCH   3   6
TORSDOF 2
ENDMDL
MODEL       45
REMARK 921   NORMALIZED FREE ENERGY PREDICTED BY IDOCK:   -5.13 KCAL/MOL
REMARK 922        TOTAL FREE ENERGY PREDICTED BY IDOCK:   -5.86 KCAL/MOL
REMARK 923 INTER-LIGAND FREE ENERGY PREDICTED BY IDOCK:   -5.75 KCAL/MOL
REMARK 924 INTRA-LIGAND FREE ENERGY PREDICTED BY IDOCK:   -0.11 KCAL/MOL
REMARK 927      BINDING AFFINITY PREDICTED BY RF-SCORE:    0.00 PKD
ROOT
HETATM    1  N   UNL     1     -11.736  13.922  70.651  1.00  0.00    -0.515 NA 
HETATM    2  H2  UNL     1     -10.728  14.080  70.678  1.00  0.00     0.000 HD 
HETATM    3  N   UNL     1     -12.430  14.272  69.558  1.00  0.00    -0.518 NA 
HETATM    4  H1  UNL     1     -12.199  13.500  71.456  1.00  0.00     0.000 HD 
HETATM    5  H   UNL     1     -13.437  14.113  69.531  1.00  0.00     0.000 HD 
ENDROOT
BRANCH   3   6
HETATM    6  C   UNL     1     -11.832  14.816  68.521  1.00  0.00    -0.306 A  
HETATM    7  N   UNL     1     -11.176  15.999  68.816  1.00  0.00    -0.340 NA 
HETATM    8  N   UNL     1     -10.736  16.843  67.851  1.00  0.00    -0.355 NA 
HETATM    9  C   UNL     1     -10.367  16.368  66.612  1.00  0.00    -0.292 A  
HETATM   10  C   UNL     1     -10.929  15.050  66.195  1.00  0.00    -0.334 A  
HETATM   11  C   UNL     1     -11.739  14.322  67.093  1.00  0.00    -0.430 A  
HETATM   12  C   UNL     1     -12.407  13.191  66.601  1.00  0.00    -0.207 A  
HETATM   13  C   UNL     1     -10.705  14.587  64.889  1.00  0.00    -0.448 A  
HETATM   14  C   UNL     1     -12.194  12.742  65.292  1.00  0.00    -0.535 A  
HETATM   15  C   UNL     1     -11.326  13.422  64.447  1.00  0.00    -0.419 A  
BRANCH   9  16
HETATM   16  N   UNL     1      -9.588  17.021  65.785  1.00  0.00    -0.543 NA 
HETATM   17  H1  UNL     1      -8.934  18.876  65.331  1.00  0.00     0.000 HD 
HETATM   18  N   UNL     1      -9.540  18.367  65.974  1.00  0.00    -0.507 NA 
HETATM   19  H   UNL     1      -9.055  16.554  65.053  1.00  0.00     0.000 HD 
HETATM   20  H2  UNL     1     -10.073  18.834  66.707  1.00  0.00     0.000 HD 
ENDBRANCH   9  16
ENDBRANCH   3   6
TORSDOF 2
ENDMDL
MODEL       46
REMARK 921   NORMALIZED FREE ENERGY PREDICTED BY IDOCK:   -5.09 KCAL/MOL
REMARK 922        TOTAL FREE ENERGY PREDICTED BY IDOCK:   -5.82 KCAL/MOL
REMARK 923 INTER-LIGAND FREE ENERGY PREDICTED BY IDOCK:   -5.70 KCAL/MOL
REMARK 924 INTRA-LIGAND FREE ENERGY PREDICTED BY IDOCK:   -0.12 KCAL/MOL
REMARK 927      BINDING AFFINITY PREDICTED BY RF-SCORE:    0.00 PKD
ROOT
HETATM    1  N   UNL     1     -11.429  14.219  66.572  1.00  0.00    -0.347 NA 
HETATM    2  H2  UNL     1     -11.997  13.417  66.297  1.00  0.00     0.000 HD 
HETATM    3  N   UNL     1     -11.143  14.413  67.867  1.00  0.00    -0.266 NA 
HETATM    4  H1  UNL     1     -11.088  14.860  65.856  1.00  0.00     0.000 HD 
HETATM    5  H   UNL     1     -10.575  15.214  68.142  1.00  0.00     0.000 HD 
ENDROOT
BRANCH   3   6
HETATM    6  C   UNL     1     -11.583  13.585  68.790  1.00  0.00    -0.325 A  
HETATM    7  N   UNL     1     -11.224  12.266  68.569  1.00  0.00    -0.249 NA 
HETATM    8  N   UNL     1     -11.797  11.237  69.242  1.00  0.00    -0.329 NA 
HETATM    9  C   UNL     1     -12.280  11.411  70.520  1.00  0.00    -0.386 A  
HETATM   10  C   UNL     1     -12.624  12.804  70.931  1.00  0.00    -0.342 A  
HETATM   11  C   UNL     1     -12.380  13.874  70.044  1.00  0.00    -0.378 A  
HETATM   12  C   UNL     1     -12.895  15.134  70.382  1.00  0.00    -0.346 A  
HETATM   13  C   UNL     1     -13.255  13.021  72.166  1.00  0.00    -0.558 A  
HETATM   14  C   UNL     1     -13.539  15.343  71.608  1.00  0.00    -0.603 A  
HETATM   15  C   UNL     1     -13.696  14.296  72.509  1.00  0.00    -0.608 A  
BRANCH   9  16
HETATM   16  N   UNL     1     -12.478  10.427  71.362  1.00  0.00    -0.392 NA 
HETATM   17  H1  UNL     1     -13.645   8.814  71.693  1.00  0.00     0.000 HD 
HETATM   18  N   UNL     1     -13.490   9.580  71.038  1.00  0.00    -0.574 NA 
HETATM   19  H   UNL     1     -11.912  10.305  72.202  1.00  0.00     0.000 HD 
HETATM   20  H2  UNL     1     -14.056   9.702  70.198  1.00  0.00     0.000 HD 
ENDBRANCH   9  16
ENDBRANCH   3   6
TORSDOF 2
ENDMDL
MODEL       47
REMARK 921   NORMALIZED FREE ENERGY PREDICTED BY IDOCK:   -5.09 KCAL/MOL
REMARK 922        TOTAL FREE ENERGY PREDICTED BY IDOCK:   -5.82 KCAL/MOL
REMARK 923 INTER-LIGAND FREE ENERGY PREDICTED BY IDOCK:   -5.73 KCAL/MOL
REMARK 924 INTRA-LIGAND FREE ENERGY PREDICTED BY IDOCK:   -0.09 KCAL/MOL
REMARK 927      BINDING AFFINITY PREDICTED BY RF-SCORE:    0.00 PKD
ROOT
HETATM    1  N   UNL     1     -11.365  17.068  64.143  1.00  0.00    -1.063 NA 
HETATM    2  H2  UNL     1     -12.131  17.480  64.677  1.00  0.00     0.000 HD 
HETATM    3  N   UNL     1     -10.525  16.213  64.744  1.00  0.00    -0.666 NA 
HETATM    4  H1  UNL     1     -11.251  17.314  63.160  1.00  0.00     0.000 HD 
HETATM    5  H   UNL     1      -9.760  15.802  64.210  1.00  0.00     0.000 HD 
ENDROOT
BRANCH   3   6
HETATM    6  C   UNL     1     -10.673  15.897  66.012  1.00  0.00    -0.284 A  
HETATM    7  N   UNL     1     -10.590  16.982  66.868  1.00  0.00    -0.259 NA 
HETATM    8  N   UNL     1     -10.445  16.838  68.209  1.00  0.00    -0.322 NA 
HETATM    9  C   UNL     1     -10.948  15.732  68.858  1.00  0.00    -0.283 A  
HETATM   10  C   UNL     1     -11.177  14.508  68.036  1.00  0.00    -0.308 A  
HETATM   11  C   UNL     1     -10.945  14.549  66.644  1.00  0.00    -0.321 A  
HETATM   12  C   UNL     1     -10.980  13.337  65.940  1.00  0.00    -0.288 A  
HETATM   13  C   UNL     1     -11.549  13.312  68.670  1.00  0.00    -0.362 A  
HETATM   14  C   UNL     1     -11.335  12.142  66.579  1.00  0.00    -0.405 A  
HETATM   15  C   UNL     1     -11.644  12.134  67.934  1.00  0.00    -0.413 A  
BRANCH   9  16
HETATM   16  N   UNL     1     -11.198  15.696  70.144  1.00  0.00    -0.304 NA 
HETATM   17  H1  UNL     1     -12.610  16.150  71.512  1.00  0.00     0.000 HD 
HETATM   18  N   UNL     1     -12.415  16.178  70.512  1.00  0.00    -0.447 NA 
HETATM   19  H   UNL     1     -10.528  15.333  70.820  1.00  0.00     0.000 HD 
HETATM   20  H2  UNL     1     -13.086  16.541  69.835  1.00  0.00     0.000 HD 
ENDBRANCH   9  16
ENDBRANCH   3   6
TORSDOF 2
ENDMDL
MODEL       48
REMARK 921   NORMALIZED FREE ENERGY PREDICTED BY IDOCK:   -5.08 KCAL/MOL
REMARK 922        TOTAL FREE ENERGY PREDICTED BY IDOCK:   -5.81 KCAL/MOL
REMARK 923 INTER-LIGAND FREE ENERGY PREDICTED BY IDOCK:   -5.70 KCAL/MOL
REMARK 924 INTRA-LIGAND FREE ENERGY PREDICTED BY IDOCK:   -0.11 KCAL/MOL
REMARK 927      BINDING AFFINITY PREDICTED BY RF-SCORE:    0.00 PKD
ROOT
HETATM    1  N   UNL     1      -9.584  11.303  68.879  1.00  0.00    -0.360 NA 
HETATM    2  H2  UNL     1     -10.556  11.597  68.780  1.00  0.00     0.000 HD 
HETATM    3  N   UNL     1      -9.269  10.358  69.776  1.00  0.00    -0.411 NA 
HETATM    4  H1  UNL     1      -8.868  11.731  68.293  1.00  0.00     0.000 HD 
HETATM    5  H   UNL     1      -8.297  10.063  69.875  1.00  0.00     0.000 HD 
ENDROOT
BRANCH   3   6
HETATM    6  C   UNL     1     -10.193   9.805  70.531  1.00  0.00    -0.255 A  
HETATM    7  N   UNL     1     -11.486  10.107  70.137  1.00  0.00    -0.279 NA 
HETATM    8  N   UNL     1     -12.559   9.865  70.930  1.00  0.00    -0.316 NA 
HETATM    9  C   UNL     1     -12.548   8.829  71.837  1.00  0.00    -0.371 A  
HETATM   10  C   UNL     1     -11.213   8.334  72.285  1.00  0.00    -0.443 A  
HETATM   11  C   UNL     1     -10.041   8.882  71.722  1.00  0.00    -0.407 A  
HETATM   12  C   UNL     1      -8.813   8.536  72.304  1.00  0.00    -0.279 A  
HETATM   13  C   UNL     1     -11.141   7.383  73.314  1.00  0.00    -0.303 A  
HETATM   14  C   UNL     1      -8.747   7.599  73.343  1.00  0.00    -0.253 A  
HETATM   15  C   UNL     1      -9.904   7.004  73.829  1.00  0.00    -0.341 A  
BRANCH   9  16
HETATM   16  N   UNL     1     -13.632   8.292  72.340  1.00  0.00    -0.571 NA 
HETATM   17  H1  UNL     1     -15.163   8.659  73.602  1.00  0.00     0.000 HD 
HETATM   18  N   UNL     1     -14.319   9.077  73.211  1.00  0.00    -1.108 NA 
HETATM   19  H   UNL     1     -13.939   7.350  72.095  1.00  0.00     0.000 HD 
HETATM   20  H2  UNL     1     -14.012  10.018  73.455  1.00  0.00     0.000 HD 
ENDBRANCH   9  16
ENDBRANCH   3   6
TORSDOF 2
ENDMDL
MODEL       49
REMARK 921   NORMALIZED FREE ENERGY PREDICTED BY IDOCK:   -5.07 KCAL/MOL
REMARK 922        TOTAL FREE ENERGY PREDICTED BY IDOCK:   -5.80 KCAL/MOL
REMARK 923 INTER-LIGAND FREE ENERGY PREDICTED BY IDOCK:   -5.70 KCAL/MOL
REMARK 924 INTRA-LIGAND FREE ENERGY PREDICTED BY IDOCK:   -0.09 KCAL/MOL
REMARK 927      BINDING AFFINITY PREDICTED BY RF-SCORE:    0.00 PKD
ROOT
HETATM    1  N   UNL     1      -9.151   8.907  63.025  1.00  0.00    -0.417 NA 
HETATM    2  H2  UNL     1      -8.988   8.367  63.875  1.00  0.00     0.000 HD 
HETATM    3  N   UNL     1      -9.827  10.063  63.097  1.00  0.00    -0.514 NA 
HETATM    4  H1  UNL     1      -8.797   8.559  62.134  1.00  0.00     0.000 HD 
HETATM    5  H   UNL     1      -9.990  10.602  62.247  1.00  0.00     0.000 HD 
ENDROOT
BRANCH   3   6
HETATM    6  C   UNL     1     -10.283  10.511  64.246  1.00  0.00    -0.244 A  
HETATM    7  N   UNL     1      -9.879   9.758  65.335  1.00  0.00    -0.319 NA 
HETATM    8  N   UNL     1     -10.451   9.889  66.558  1.00  0.00    -0.181 NA 
HETATM    9  C   UNL     1     -10.993  11.090  66.959  1.00  0.00    -0.272 A  
HETATM   10  C   UNL     1     -11.393  12.046  65.886  1.00  0.00    -0.391 A  
HETATM   11  C   UNL     1     -11.141  11.725  64.536  1.00  0.00    -0.376 A  
HETATM   12  C   UNL     1     -11.704  12.549  63.551  1.00  0.00    -0.595 A  
HETATM   13  C   UNL     1     -12.083  13.219  66.231  1.00  0.00    -0.472 A  
HETATM   14  C   UNL     1     -12.406  13.710  63.899  1.00  0.00    -0.375 A  
HETATM   15  C   UNL     1     -12.572  14.058  65.234  1.00  0.00    -0.495 A  
BRANCH   9  16
HETATM   16  N   UNL     1     -11.200  11.410  68.213  1.00  0.00    -0.239 NA 
HETATM   17  H1  UNL     1     -12.432  11.061  69.772  1.00  0.00     0.000 HD 
HETATM   18  N   UNL     1     -12.271  10.812  68.796  1.00  0.00    -0.814 NA 
HETATM   19  H   UNL     1     -10.599  12.064  68.715  1.00  0.00     0.000 HD 
HETATM   20  H2  UNL     1     -12.872  10.158  68.294  1.00  0.00     0.000 HD 
ENDBRANCH   9  16
ENDBRANCH   3   6
TORSDOF 2
ENDMDL
MODEL       50
REMARK 921   NORMALIZED FREE ENERGY PREDICTED BY IDOCK:   -5.03 KCAL/MOL
REMARK 922        TOTAL FREE ENERGY PREDICTED BY IDOCK:   -5.75 KCAL/MOL
REMARK 923 INTER-LIGAND FREE ENERGY PREDICTED BY IDOCK:   -5.63 KCAL/MOL
REMARK 924 INTRA-LIGAND FREE ENERGY PREDICTED BY IDOCK:   -0.12 KCAL/MOL
REMARK 927      BINDING AFFINITY PREDICTED BY RF-SCORE:    0.00 PKD
ROOT
HETATM    1  N   UNL     1      -9.959  18.366  65.864  1.00  0.00    -0.539 NA 
HETATM    2  H2  UNL     1     -10.682  18.235  65.157  1.00  0.00     0.000 HD 
HETATM    3  N   UNL     1      -9.731  17.397  66.762  1.00  0.00    -0.277 NA 
HETATM    4  H1  UNL     1      -9.421  19.233  65.878  1.00  0.00     0.000 HD 
HETATM    5  H   UNL     1      -9.008  17.528  67.470  1.00  0.00     0.000 HD 
ENDROOT
BRANCH   3   6
HETATM    6  C   UNL     1     -10.425  16.280  66.745  1.00  0.00    -0.287 A  
HETATM    7  N   UNL     1     -10.633  15.775  65.472  1.00  0.00    -0.384 NA 
HETATM    8  N   UNL     1     -11.539  14.799  65.219  1.00  0.00    -0.351 NA 
HETATM    9  C   UNL     1     -11.856  13.865  66.181  1.00  0.00    -0.400 A  
HETATM   10  C   UNL     1     -11.597  14.238  67.602  1.00  0.00    -0.396 A  
HETATM   11  C   UNL     1     -10.985  15.474  67.898  1.00  0.00    -0.316 A  
HETATM   12  C   UNL     1     -10.938  15.876  69.241  1.00  0.00    -0.293 A  
HETATM   13  C   UNL     1     -12.035  13.387  68.628  1.00  0.00    -0.362 A  
HETATM   14  C   UNL     1     -11.391  15.030  70.261  1.00  0.00    -0.300 A  
HETATM   15  C   UNL     1     -11.914  13.779  69.958  1.00  0.00    -0.407 A  
BRANCH   9  16
HETATM   16  N   UNL     1     -12.394  12.700  65.912  1.00  0.00    -0.595 NA 
HETATM   17  H1  UNL     1     -13.198  11.617  64.411  1.00  0.00     0.000 HD 
HETATM   18  N   UNL     1     -12.779  12.523  64.620  1.00  0.00    -0.725 NA 
HETATM   19  H   UNL     1     -12.516  11.978  66.622  1.00  0.00     0.000 HD 
HETATM   20  H2  UNL     1     -12.657  13.245  63.911  1.00  0.00     0.000 HD 
ENDBRANCH   9  16
ENDBRANCH   3   6
TORSDOF 2
ENDMDL
MODEL       51
REMARK 921   NORMALIZED FREE ENERGY PREDICTED BY IDOCK:   -5.00 KCAL/MOL
REMARK 922        TOTAL FREE ENERGY PREDICTED BY IDOCK:   -5.72 KCAL/MOL
REMARK 923 INTER-LIGAND FREE ENERGY PREDICTED BY IDOCK:   -5.60 KCAL/MOL
REMARK 924 INTRA-LIGAND FREE ENERGY PREDICTED BY IDOCK:   -0.12 KCAL/MOL
REMARK 927      BINDING AFFINITY PREDICTED BY RF-SCORE:    0.00 PKD
ROOT
HETATM    1  N   UNL     1     -10.973   8.786  67.867  1.00  0.00    -0.491 NA 
HETATM    2  H2  UNL     1     -11.691   8.975  68.567  1.00  0.00     0.000 HD 
HETATM    3  N   UNL     1     -10.531   9.784  67.089  1.00  0.00    -0.254 NA 
HETATM    4  H1  UNL     1     -10.603   7.840  67.771  1.00  0.00     0.000 HD 
HETATM    5  H   UNL     1      -9.813   9.595  66.389  1.00  0.00     0.000 HD 
ENDROOT
BRANCH   3   6
HETATM    6  C   UNL     1     -11.009  11.003  67.214  1.00  0.00    -0.297 A  
HETATM    7  N   UNL     1     -11.088  11.437  68.527  1.00  0.00    -0.214 NA 
HETATM    8  N   UNL     1     -11.794  12.538  68.884  1.00  0.00    -0.311 NA 
HETATM    9  C   UNL     1     -11.960  13.586  68.005  1.00  0.00    -0.337 A  
HETATM   10  C   UNL     1     -11.810  13.283  66.552  1.00  0.00    -0.450 A  
HETATM   11  C   UNL     1     -11.442  11.984  66.144  1.00  0.00    -0.401 A  
HETATM   12  C   UNL     1     -11.503  11.686  64.775  1.00  0.00    -0.225 A  
HETATM   13  C   UNL     1     -12.112  14.276  65.607  1.00  0.00    -0.399 A  
HETATM   14  C   UNL     1     -11.821  12.675  63.836  1.00  0.00    -0.544 A  
HETATM   15  C   UNL     1     -12.098  13.973  64.249  1.00  0.00    -0.476 A  
BRANCH   9  16
HETATM   16  N   UNL     1     -12.270  14.803  68.378  1.00  0.00    -0.605 NA 
HETATM   17  H1  UNL     1     -12.967  15.870  69.943  1.00  0.00     0.000 HD 
HETATM   18  N   UNL     1     -12.726  14.922  69.653  1.00  0.00    -0.593 NA 
HETATM   19  H   UNL     1     -12.175  15.605  67.755  1.00  0.00     0.000 HD 
HETATM   20  H2  UNL     1     -12.821  14.120  70.275  1.00  0.00     0.000 HD 
ENDBRANCH   9  16
ENDBRANCH   3   6
TORSDOF 2
ENDMDL
MODEL       52
REMARK 921   NORMALIZED FREE ENERGY PREDICTED BY IDOCK:   -4.99 KCAL/MOL
REMARK 922        TOTAL FREE ENERGY PREDICTED BY IDOCK:   -5.71 KCAL/MOL
REMARK 923 INTER-LIGAND FREE ENERGY PREDICTED BY IDOCK:   -5.58 KCAL/MOL
REMARK 924 INTRA-LIGAND FREE ENERGY PREDICTED BY IDOCK:   -0.12 KCAL/MOL
REMARK 927      BINDING AFFINITY PREDICTED BY RF-SCORE:    0.00 PKD
ROOT
HETATM    1  N   UNL     1     -10.922  13.858  63.994  1.00  0.00    -0.521 NA 
HETATM    2  H2  UNL     1     -11.590  14.558  63.672  1.00  0.00     0.000 HD 
HETATM    3  N   UNL     1      -9.991  14.199  64.897  1.00  0.00    -0.578 NA 
HETATM    4  H1  UNL     1     -10.972  12.908  63.624  1.00  0.00     0.000 HD 
HETATM    5  H   UNL     1      -9.323  13.499  65.219  1.00  0.00     0.000 HD 
ENDROOT
BRANCH   3   6
HETATM    6  C   UNL     1      -9.926  15.424  65.374  1.00  0.00    -0.321 A  
HETATM    7  N   UNL     1     -10.877  16.278  64.841  1.00  0.00    -0.671 NA 
HETATM    8  N   UNL     1     -10.808  17.623  64.993  1.00  0.00    -0.733 NA 
HETATM    9  C   UNL     1     -10.210  18.178  66.102  1.00  0.00    -0.367 A  
HETATM   10  C   UNL     1      -9.224  17.333  66.837  1.00  0.00    -0.265 A  
HETATM   11  C   UNL     1      -8.999  16.003  66.421  1.00  0.00    -0.354 A  
HETATM   12  C   UNL     1      -7.931  15.307  67.005  1.00  0.00    -0.243 A  
HETATM   13  C   UNL     1      -8.478  17.896  67.884  1.00  0.00    -0.251 A  
HETATM   14  C   UNL     1      -7.178  15.878  68.039  1.00  0.00    -0.142 A  
HETATM   15  C   UNL     1      -7.467  17.158  68.495  1.00  0.00    -0.238 A  
BRANCH   9  16
HETATM   16  N   UNL     1     -10.437  19.401  66.515  1.00  0.00    -0.445 NA 
HETATM   17  H1  UNL     1     -10.401  21.326  65.911  1.00  0.00     0.000 HD 
HETATM   18  N   UNL     1     -10.224  20.375  65.591  1.00  0.00    -0.452 NA 
HETATM   19  H   UNL     1     -10.751  19.608  67.463  1.00  0.00     0.000 HD 
HETATM   20  H2  UNL     1      -9.909  20.168  64.643  1.00  0.00     0.000 HD 
ENDBRANCH   9  16
ENDBRANCH   3   6
TORSDOF 2
ENDMDL
MODEL       53
REMARK 921   NORMALIZED FREE ENERGY PREDICTED BY IDOCK:   -4.97 KCAL/MOL
REMARK 922        TOTAL FREE ENERGY PREDICTED BY IDOCK:   -5.69 KCAL/MOL
REMARK 923 INTER-LIGAND FREE ENERGY PREDICTED BY IDOCK:   -5.59 KCAL/MOL
REMARK 924 INTRA-LIGAND FREE ENERGY PREDICTED BY IDOCK:   -0.10 KCAL/MOL
REMARK 927      BINDING AFFINITY PREDICTED BY RF-SCORE:    0.00 PKD
ROOT
HETATM    1  N   UNL     1      -9.248  11.173  69.205  1.00  0.00    -0.398 NA 
HETATM    2  H2  UNL     1      -9.963  10.489  68.958  1.00  0.00     0.000 HD 
HETATM    3  N   UNL     1      -9.161  12.317  68.510  1.00  0.00    -0.360 NA 
HETATM    4  H1  UNL     1      -8.611  10.977  69.977  1.00  0.00     0.000 HD 
HETATM    5  H   UNL     1      -8.447  13.001  68.757  1.00  0.00     0.000 HD 
ENDROOT
BRANCH   3   6
HETATM    6  C   UNL     1      -9.984  12.570  67.515  1.00  0.00    -0.201 A  
HETATM    7  N   UNL     1     -10.880  11.545  67.262  1.00  0.00    -0.241 NA 
HETATM    8  N   UNL     1     -11.618  11.493  66.126  1.00  0.00    -0.314 NA 
HETATM    9  C   UNL     1     -11.986  12.647  65.470  1.00  0.00    -0.456 A  
HETATM   10  C   UNL     1     -11.159  13.864  65.720  1.00  0.00    -0.294 A  
HETATM   11  C   UNL     1     -10.101  13.808  66.652  1.00  0.00    -0.277 A  
HETATM   12  C   UNL     1      -9.228  14.903  66.716  1.00  0.00    -0.281 A  
HETATM   13  C   UNL     1     -11.397  15.026  64.969  1.00  0.00    -0.395 A  
HETATM   14  C   UNL     1      -9.460  16.055  65.953  1.00  0.00    -0.351 A  
HETATM   15  C   UNL     1     -10.556  16.126  65.102  1.00  0.00    -0.366 A  
BRANCH   9  16
HETATM   16  N   UNL     1     -12.988  12.716  64.628  1.00  0.00    -0.844 NA 
HETATM   17  H1  UNL     1     -13.543  12.204  62.756  1.00  0.00     0.000 HD 
HETATM   18  N   UNL     1     -12.764  12.150  63.412  1.00  0.00    -0.810 NA 
HETATM   19  H   UNL     1     -13.872  13.163  64.867  1.00  0.00     0.000 HD 
HETATM   20  H2  UNL     1     -11.879  11.704  63.172  1.00  0.00     0.000 HD 
ENDBRANCH   9  16
ENDBRANCH   3   6
TORSDOF 2
ENDMDL
MODEL       54
REMARK 921   NORMALIZED FREE ENERGY PREDICTED BY IDOCK:   -4.94 KCAL/MOL
REMARK 922        TOTAL FREE ENERGY PREDICTED BY IDOCK:   -5.65 KCAL/MOL
REMARK 923 INTER-LIGAND FREE ENERGY PREDICTED BY IDOCK:   -5.56 KCAL/MOL
REMARK 924 INTRA-LIGAND FREE ENERGY PREDICTED BY IDOCK:   -0.09 KCAL/MOL
REMARK 927      BINDING AFFINITY PREDICTED BY RF-SCORE:    0.00 PKD
ROOT
HETATM    1  N   UNL     1     -14.284   8.921  73.368  1.00  0.00    -1.142 NA 
HETATM    2  H2  UNL     1     -13.620   8.432  73.968  1.00  0.00     0.000 HD 
HETATM    3  N   UNL     1     -13.862   9.455  72.213  1.00  0.00    -0.529 NA 
HETATM    4  H1  UNL     1     -15.260   8.995  73.656  1.00  0.00     0.000 HD 
HETATM    5  H   UNL     1     -14.527   9.944  71.613  1.00  0.00     0.000 HD 
ENDROOT
BRANCH   3   6
HETATM    6  C   UNL     1     -12.604   9.359  71.842  1.00  0.00    -0.401 A  
HETATM    7  N   UNL     1     -11.894   8.393  72.534  1.00  0.00    -0.388 NA 
HETATM    8  N   UNL     1     -10.540   8.323  72.495  1.00  0.00    -0.337 NA 
HETATM    9  C   UNL     1      -9.843   8.753  71.387  1.00  0.00    -0.283 A  
HETATM   10  C   UNL     1     -10.526   9.733  70.493  1.00  0.00    -0.366 A  
HETATM   11  C   UNL     1     -11.855  10.118  70.767  1.00  0.00    -0.443 A  
HETATM   12  C   UNL     1     -12.393  11.181  70.028  1.00  0.00    -0.351 A  
HETATM   13  C   UNL     1      -9.811  10.314  69.434  1.00  0.00    -0.247 A  
HETATM   14  C   UNL     1     -11.671  11.770  68.983  1.00  0.00    -0.390 A  
HETATM   15  C   UNL     1     -10.394  11.321  68.670  1.00  0.00    -0.217 A  
BRANCH   9  16
HETATM   16  N   UNL     1      -8.620   8.374  71.106  1.00  0.00    -0.140 NA 
HETATM   17  H1  UNL     1      -6.693   8.670  71.628  1.00  0.00     0.000 HD 
HETATM   18  N   UNL     1      -7.645   8.965  71.846  1.00  0.00    -0.331 NA 
HETATM   19  H   UNL     1      -8.415   7.684  70.384  1.00  0.00     0.000 HD 
HETATM   20  H2  UNL     1      -7.850   9.655  72.568  1.00  0.00     0.000 HD 
ENDBRANCH   9  16
ENDBRANCH   3   6
TORSDOF 2
ENDMDL
MODEL       55
REMARK 921   NORMALIZED FREE ENERGY PREDICTED BY IDOCK:   -4.90 KCAL/MOL
REMARK 922        TOTAL FREE ENERGY PREDICTED BY IDOCK:   -5.61 KCAL/MOL
REMARK 923 INTER-LIGAND FREE ENERGY PREDICTED BY IDOCK:   -5.50 KCAL/MOL
REMARK 924 INTRA-LIGAND FREE ENERGY PREDICTED BY IDOCK:   -0.11 KCAL/MOL
REMARK 927      BINDING AFFINITY PREDICTED BY RF-SCORE:    0.00 PKD
ROOT
HETATM    1  N   UNL     1      -9.812  10.265  62.378  1.00  0.00    -0.732 NA 
HETATM    2  H2  UNL     1      -9.264   9.579  62.896  1.00  0.00     0.000 HD 
HETATM    3  N   UNL     1     -10.593  11.127  63.045  1.00  0.00    -0.801 NA 
HETATM    4  H1  UNL     1      -9.757  10.285  61.359  1.00  0.00     0.000 HD 
HETATM    5  H   UNL     1     -11.141  11.813  62.526  1.00  0.00     0.000 HD 
ENDROOT
BRANCH   3   6
HETATM    6  C   UNL     1     -10.664  11.101  64.358  1.00  0.00    -0.318 A  
HETATM    7  N   UNL     1      -9.943  10.067  64.932  1.00  0.00    -0.299 NA 
HETATM    8  N   UNL     1     -10.103   9.706  66.229  1.00  0.00    -0.263 NA 
HETATM    9  C   UNL     1     -10.485  10.630  67.177  1.00  0.00    -0.245 A  
HETATM   10  C   UNL     1     -11.195  11.849  66.690  1.00  0.00    -0.384 A  
HETATM   11  C   UNL     1     -11.381  12.041  65.304  1.00  0.00    -0.366 A  
HETATM   12  C   UNL     1     -12.218  13.088  64.896  1.00  0.00    -0.490 A  
HETATM   13  C   UNL     1     -11.734  12.750  67.620  1.00  0.00    -0.422 A  
HETATM   14  C   UNL     1     -12.769  13.976  65.829  1.00  0.00    -0.487 A  
HETATM   15  C   UNL     1     -12.507  13.824  67.185  1.00  0.00    -0.086 A  
BRANCH   9  16
HETATM   16  N   UNL     1     -10.286  10.476  68.463  1.00  0.00    -0.170 NA 
HETATM   17  H1  UNL     1     -10.889   9.395  70.057  1.00  0.00     0.000 HD 
HETATM   18  N   UNL     1     -11.043   9.515  69.056  1.00  0.00    -0.432 NA 
HETATM   19  H   UNL     1      -9.612  11.038  68.983  1.00  0.00     0.000 HD 
HETATM   20  H2  UNL     1     -11.717   8.953  68.536  1.00  0.00     0.000 HD 
ENDBRANCH   9  16
ENDBRANCH   3   6
TORSDOF 2
ENDMDL
MODEL       56
REMARK 921   NORMALIZED FREE ENERGY PREDICTED BY IDOCK:   -4.86 KCAL/MOL
REMARK 922        TOTAL FREE ENERGY PREDICTED BY IDOCK:   -5.56 KCAL/MOL
REMARK 923 INTER-LIGAND FREE ENERGY PREDICTED BY IDOCK:   -5.43 KCAL/MOL
REMARK 924 INTRA-LIGAND FREE ENERGY PREDICTED BY IDOCK:   -0.13 KCAL/MOL
REMARK 927      BINDING AFFINITY PREDICTED BY RF-SCORE:    0.00 PKD
ROOT
HETATM    1  N   UNL     1     -12.599  12.410  62.997  1.00  0.00    -0.690 NA 
HETATM    2  H2  UNL     1     -12.957  11.458  63.065  1.00  0.00     0.000 HD 
HETATM    3  N   UNL     1     -11.824  12.897  63.977  1.00  0.00    -0.408 NA 
HETATM    4  H1  UNL     1     -12.835  12.978  62.183  1.00  0.00     0.000 HD 
HETATM    5  H   UNL     1     -11.466  13.849  63.909  1.00  0.00     0.000 HD 
ENDROOT
BRANCH   3   6
HETATM    6  C   UNL     1     -11.519  12.164  65.027  1.00  0.00    -0.323 A  
HETATM    7  N   UNL     1     -12.236  12.498  66.164  1.00  0.00    -0.608 NA 
HETATM    8  N   UNL     1     -11.884  12.056  67.396  1.00  0.00    -0.591 NA 
HETATM    9  C   UNL     1     -11.235  10.852  67.556  1.00  0.00    -0.293 A  
HETATM   10  C   UNL     1     -10.492  10.320  66.376  1.00  0.00    -0.233 A  
HETATM   11  C   UNL     1     -10.541  11.015  65.149  1.00  0.00    -0.295 A  
HETATM   12  C   UNL     1      -9.679  10.597  64.126  1.00  0.00    -0.378 A  
HETATM   13  C   UNL     1      -9.694   9.174  66.524  1.00  0.00    -0.306 A  
HETATM   14  C   UNL     1      -8.871   9.463  64.282  1.00  0.00    -0.220 A  
HETATM   15  C   UNL     1      -8.898   8.739  65.468  1.00  0.00    -0.229 A  
BRANCH   9  16
HETATM   16  N   UNL     1     -11.212  10.182  68.682  1.00  0.00    -0.434 NA 
HETATM   17  H1  UNL     1     -10.587  10.294  70.597  1.00  0.00     0.000 HD 
HETATM   18  N   UNL     1     -10.605  10.815  69.721  1.00  0.00    -0.426 NA 
HETATM   19  H   UNL     1     -11.621   9.253  68.773  1.00  0.00     0.000 HD 
HETATM   20  H2  UNL     1     -10.196  11.744  69.630  1.00  0.00     0.000 HD 
ENDBRANCH   9  16
ENDBRANCH   3   6
TORSDOF 2
ENDMDL
MODEL       57
REMARK 921   NORMALIZED FREE ENERGY PREDICTED BY IDOCK:   -4.85 KCAL/MOL
REMARK 922        TOTAL FREE ENERGY PREDICTED BY IDOCK:   -5.55 KCAL/MOL
REMARK 923 INTER-LIGAND FREE ENERGY PREDICTED BY IDOCK:   -5.43 KCAL/MOL
REMARK 924 INTRA-LIGAND FREE ENERGY PREDICTED BY IDOCK:   -0.12 KCAL/MOL
REMARK 927      BINDING AFFINITY PREDICTED BY RF-SCORE:    0.00 PKD
ROOT
HETATM    1  N   UNL     1      -7.506   8.787  73.680  1.00  0.00    -0.386 NA 
HETATM    2  H2  UNL     1      -8.150   9.006  74.440  1.00  0.00     0.000 HD 
HETATM    3  N   UNL     1      -7.991   8.538  72.455  1.00  0.00    -0.330 NA 
HETATM    4  H1  UNL     1      -6.503   8.762  73.864  1.00  0.00     0.000 HD 
HETATM    5  H   UNL     1      -7.347   8.319  71.695  1.00  0.00     0.000 HD 
ENDROOT
BRANCH   3   6
HETATM    6  C   UNL     1      -9.284   8.571  72.218  1.00  0.00    -0.272 A  
HETATM    7  N   UNL     1     -10.034   7.848  73.131  1.00  0.00    -0.297 NA 
HETATM    8  N   UNL     1     -11.335   7.534  72.912  1.00  0.00    -0.332 NA 
HETATM    9  C   UNL     1     -12.138   8.350  72.147  1.00  0.00    -0.373 A  
HETATM   10  C   UNL     1     -11.457   9.257  71.177  1.00  0.00    -0.403 A  
HETATM   11  C   UNL     1     -10.048   9.298  71.132  1.00  0.00    -0.374 A  
HETATM   12  C   UNL     1      -9.447  10.007  70.082  1.00  0.00    -0.124 A  
HETATM   13  C   UNL     1     -12.229  10.001  70.271  1.00  0.00    -0.186 A  
HETATM   14  C   UNL     1     -10.221  10.735  69.169  1.00  0.00    -0.229 A  
HETATM   15  C   UNL     1     -11.606  10.754  69.279  1.00  0.00    -0.376 A  
BRANCH   9  16
HETATM   16  N   UNL     1     -13.447   8.343  72.206  1.00  0.00    -0.530 NA 
HETATM   17  H1  UNL     1     -15.001   8.944  73.345  1.00  0.00     0.000 HD 
HETATM   18  N   UNL     1     -13.982   8.950  73.299  1.00  0.00    -1.217 NA 
HETATM   19  H   UNL     1     -14.024   7.913  71.484  1.00  0.00     0.000 HD 
HETATM   20  H2  UNL     1     -13.405   9.380  74.021  1.00  0.00     0.000 HD 
ENDBRANCH   9  16
ENDBRANCH   3   6
TORSDOF 2
ENDMDL
MODEL       58
REMARK 921   NORMALIZED FREE ENERGY PREDICTED BY IDOCK:   -4.84 KCAL/MOL
REMARK 922        TOTAL FREE ENERGY PREDICTED BY IDOCK:   -5.53 KCAL/MOL
REMARK 923 INTER-LIGAND FREE ENERGY PREDICTED BY IDOCK:   -5.41 KCAL/MOL
REMARK 924 INTRA-LIGAND FREE ENERGY PREDICTED BY IDOCK:   -0.13 KCAL/MOL
REMARK 927      BINDING AFFINITY PREDICTED BY RF-SCORE:    0.00 PKD
ROOT
HETATM    1  N   UNL     1     -10.528  16.614  69.061  1.00  0.00    -0.307 NA 
HETATM    2  H2  UNL     1      -9.638  16.116  69.037  1.00  0.00     0.000 HD 
HETATM    3  N   UNL     1     -11.663  15.951  68.799  1.00  0.00    -0.399 NA 
HETATM    4  H1  UNL     1     -10.540  17.609  69.285  1.00  0.00     0.000 HD 
HETATM    5  H   UNL     1     -12.553  16.450  68.824  1.00  0.00     0.000 HD 
ENDROOT
BRANCH   3   6
HETATM    6  C   UNL     1     -11.647  14.668  68.510  1.00  0.00    -0.317 A  
HETATM    7  N   UNL     1     -12.002  13.855  69.574  1.00  0.00    -0.325 NA 
HETATM    8  N   UNL     1     -11.788  12.516  69.565  1.00  0.00    -0.317 NA 
HETATM    9  C   UNL     1     -11.785  11.811  68.382  1.00  0.00    -0.325 A  
HETATM   10  C   UNL     1     -11.507  12.579  67.133  1.00  0.00    -0.414 A  
HETATM   11  C   UNL     1     -11.334  13.978  67.199  1.00  0.00    -0.348 A  
HETATM   12  C   UNL     1     -10.882  14.636  66.047  1.00  0.00    -0.318 A  
HETATM   13  C   UNL     1     -11.346  11.890  65.921  1.00  0.00    -0.365 A  
HETATM   14  C   UNL     1     -10.706  13.942  64.843  1.00  0.00    -0.422 A  
HETATM   15  C   UNL     1     -10.963  12.578  64.774  1.00  0.00    -0.339 A  
BRANCH   9  16
HETATM   16  N   UNL     1     -11.977  10.517  68.307  1.00  0.00    -0.784 NA 
HETATM   17  H1  UNL     1     -11.362   8.760  69.088  1.00  0.00     0.000 HD 
HETATM   18  N   UNL     1     -11.213   9.767  69.145  1.00  0.00    -0.427 NA 
HETATM   19  H   UNL     1     -12.653  10.101  67.666  1.00  0.00     0.000 HD 
HETATM   20  H2  UNL     1     -10.537  10.183  69.786  1.00  0.00     0.000 HD 
ENDBRANCH   9  16
ENDBRANCH   3   6
TORSDOF 2
ENDMDL
MODEL       59
REMARK 921   NORMALIZED FREE ENERGY PREDICTED BY IDOCK:   -4.82 KCAL/MOL
REMARK 922        TOTAL FREE ENERGY PREDICTED BY IDOCK:   -5.52 KCAL/MOL
REMARK 923 INTER-LIGAND FREE ENERGY PREDICTED BY IDOCK:   -5.39 KCAL/MOL
REMARK 924 INTRA-LIGAND FREE ENERGY PREDICTED BY IDOCK:   -0.13 KCAL/MOL
REMARK 927      BINDING AFFINITY PREDICTED BY RF-SCORE:    0.00 PKD
ROOT
HETATM    1  N   UNL     1      -8.928   7.017  69.260  1.00  0.00    -0.138 NA 
HETATM    2  H2  UNL     1      -9.824   6.601  69.008  1.00  0.00     0.000 HD 
HETATM    3  N   UNL     1      -8.903   8.105  70.043  1.00  0.00    -0.138 NA 
HETATM    4  H1  UNL     1      -8.065   6.598  68.914  1.00  0.00     0.000 HD 
HETATM    5  H   UNL     1      -8.006   8.521  70.296  1.00  0.00     0.000 HD 
ENDROOT
BRANCH   3   6
HETATM    6  C   UNL     1     -10.016   8.645  70.490  1.00  0.00    -0.189 A  
HETATM    7  N   UNL     1     -10.639   7.896  71.474  1.00  0.00    -0.219 NA 
HETATM    8  N   UNL     1     -11.916   8.135  71.866  1.00  0.00    -0.301 NA 
HETATM    9  C   UNL     1     -12.451   9.402  71.792  1.00  0.00    -0.391 A  
HETATM   10  C   UNL     1     -11.817  10.353  70.833  1.00  0.00    -0.475 A  
HETATM   11  C   UNL     1     -10.675   9.953  70.107  1.00  0.00    -0.361 A  
HETATM   12  C   UNL     1     -10.227  10.794  69.078  1.00  0.00    -0.229 A  
HETATM   13  C   UNL     1     -12.410  11.605  70.611  1.00  0.00    -0.437 A  
HETATM   14  C   UNL     1     -10.832  12.036  68.848  1.00  0.00    -0.252 A  
HETATM   15  C   UNL     1     -11.903  12.452  69.629  1.00  0.00    -0.380 A  
BRANCH   9  16
HETATM   16  N   UNL     1     -13.491   9.792  72.488  1.00  0.00    -0.633 NA 
HETATM   17  H1  UNL     1     -14.846   9.149  73.838  1.00  0.00     0.000 HD 
HETATM   18  N   UNL     1     -14.037   8.845  73.297  1.00  0.00    -1.248 NA 
HETATM   19  H   UNL     1     -13.865  10.739  72.426  1.00  0.00     0.000 HD 
HETATM   20  H2  UNL     1     -13.663   7.899  73.358  1.00  0.00     0.000 HD 
ENDBRANCH   9  16
ENDBRANCH   3   6
TORSDOF 2
ENDMDL
MODEL       60
REMARK 921   NORMALIZED FREE ENERGY PREDICTED BY IDOCK:   -4.82 KCAL/MOL
REMARK 922        TOTAL FREE ENERGY PREDICTED BY IDOCK:   -5.52 KCAL/MOL
REMARK 923 INTER-LIGAND FREE ENERGY PREDICTED BY IDOCK:   -5.40 KCAL/MOL
REMARK 924 INTRA-LIGAND FREE ENERGY PREDICTED BY IDOCK:   -0.11 KCAL/MOL
REMARK 927      BINDING AFFINITY PREDICTED BY RF-SCORE:    0.00 PKD
ROOT
HETATM    1  N   UNL     1      -6.643  12.588  66.892  1.00  0.00    -0.457 NA 
HETATM    2  H2  UNL     1      -6.742  13.482  67.372  1.00  0.00     0.000 HD 
HETATM    3  N   UNL     1      -7.741  11.929  66.493  1.00  0.00    -0.377 NA 
HETATM    4  H1  UNL     1      -5.712  12.208  66.724  1.00  0.00     0.000 HD 
HETATM    5  H   UNL     1      -7.642  11.034  66.013  1.00  0.00     0.000 HD 
ENDROOT
BRANCH   3   6
HETATM    6  C   UNL     1      -8.942  12.418  66.710  1.00  0.00    -0.205 A  
HETATM    7  N   UNL     1      -9.089  12.994  67.961  1.00  0.00    -0.204 NA 
HETATM    8  N   UNL     1     -10.304  13.306  68.476  1.00  0.00    -0.248 NA 
HETATM    9  C   UNL     1     -11.356  13.638  67.652  1.00  0.00    -0.300 A  
HETATM   10  C   UNL     1     -11.289  13.160  66.240  1.00  0.00    -0.348 A  
HETATM   11  C   UNL     1     -10.145  12.466  65.792  1.00  0.00    -0.273 A  
HETATM   12  C   UNL     1     -10.199  11.863  64.527  1.00  0.00    -0.320 A  
HETATM   13  C   UNL     1     -12.396  13.343  65.397  1.00  0.00    -0.522 A  
HETATM   14  C   UNL     1     -11.313  12.033  63.695  1.00  0.00    -0.536 A  
HETATM   15  C   UNL     1     -12.398  12.793  64.118  1.00  0.00    -0.485 A  
BRANCH   9  16
HETATM   16  N   UNL     1     -12.406  14.312  68.050  1.00  0.00    -0.564 NA 
HETATM   17  H1  UNL     1     -13.320  15.021  69.704  1.00  0.00     0.000 HD 
HETATM   18  N   UNL     1     -12.502  14.496  69.394  1.00  0.00    -0.566 NA 
HETATM   19  H   UNL     1     -13.103  14.672  67.399  1.00  0.00     0.000 HD 
HETATM   20  H2  UNL     1     -11.805  14.136  70.045  1.00  0.00     0.000 HD 
ENDBRANCH   9  16
ENDBRANCH   3   6
TORSDOF 2
ENDMDL
MODEL       61
REMARK 921   NORMALIZED FREE ENERGY PREDICTED BY IDOCK:   -4.80 KCAL/MOL
REMARK 922        TOTAL FREE ENERGY PREDICTED BY IDOCK:   -5.49 KCAL/MOL
REMARK 923 INTER-LIGAND FREE ENERGY PREDICTED BY IDOCK:   -5.37 KCAL/MOL
REMARK 924 INTRA-LIGAND FREE ENERGY PREDICTED BY IDOCK:   -0.12 KCAL/MOL
REMARK 927      BINDING AFFINITY PREDICTED BY RF-SCORE:    0.00 PKD
ROOT
HETATM    1  N   UNL     1     -11.389  15.860  69.129  1.00  0.00    -0.342 NA 
HETATM    2  H2  UNL     1     -10.431  15.791  68.785  1.00  0.00     0.000 HD 
HETATM    3  N   UNL     1     -12.326  15.034  68.643  1.00  0.00    -0.589 NA 
HETATM    4  H1  UNL     1     -11.618  16.556  69.839  1.00  0.00     0.000 HD 
HETATM    5  H   UNL     1     -13.284  15.102  68.987  1.00  0.00     0.000 HD 
ENDROOT
BRANCH   3   6
HETATM    6  C   UNL     1     -12.030  14.136  67.728  1.00  0.00    -0.354 A  
HETATM    7  N   UNL     1     -12.089  14.623  66.433  1.00  0.00    -0.282 NA 
HETATM    8  N   UNL     1     -12.085  13.805  65.351  1.00  0.00    -0.382 NA 
HETATM    9  C   UNL     1     -11.452  12.583  65.392  1.00  0.00    -0.344 A  
HETATM   10  C   UNL     1     -11.236  11.975  66.738  1.00  0.00    -0.376 A  
HETATM   11  C   UNL     1     -11.613  12.690  67.895  1.00  0.00    -0.401 A  
HETATM   12  C   UNL     1     -11.578  12.013  69.122  1.00  0.00    -0.370 A  
HETATM   13  C   UNL     1     -10.729  10.669  66.831  1.00  0.00    -0.297 A  
HETATM   14  C   UNL     1     -11.088  10.704  69.209  1.00  0.00    -0.306 A  
HETATM   15  C   UNL     1     -10.640  10.043  68.071  1.00  0.00    -0.280 A  
BRANCH   9  16
HETATM   16  N   UNL     1     -11.068  11.927  64.325  1.00  0.00    -0.334 NA 
HETATM   17  H1  UNL     1     -11.297  11.858  62.321  1.00  0.00     0.000 HD 
HETATM   18  N   UNL     1     -11.596  12.368  63.152  1.00  0.00    -0.709 NA 
HETATM   19  H   UNL     1     -10.420  11.141  64.370  1.00  0.00     0.000 HD 
HETATM   20  H2  UNL     1     -12.244  13.154  63.107  1.00  0.00     0.000 HD 
ENDBRANCH   9  16
ENDBRANCH   3   6
TORSDOF 2
ENDMDL
MODEL       62
REMARK 921   NORMALIZED FREE ENERGY PREDICTED BY IDOCK:   -4.78 KCAL/MOL
REMARK 922        TOTAL FREE ENERGY PREDICTED BY IDOCK:   -5.47 KCAL/MOL
REMARK 923 INTER-LIGAND FREE ENERGY PREDICTED BY IDOCK:   -5.35 KCAL/MOL
REMARK 924 INTRA-LIGAND FREE ENERGY PREDICTED BY IDOCK:   -0.12 KCAL/MOL
REMARK 927      BINDING AFFINITY PREDICTED BY RF-SCORE:    0.00 PKD
ROOT
HETATM    1  N   UNL     1     -11.197   9.481  69.562  1.00  0.00    -0.422 NA 
HETATM    2  H2  UNL     1     -10.481   9.845  70.190  1.00  0.00     0.000 HD 
HETATM    3  N   UNL     1     -12.121  10.313  69.061  1.00  0.00    -0.614 NA 
HETATM    4  H1  UNL     1     -11.199   8.489  69.324  1.00  0.00     0.000 HD 
HETATM    5  H   UNL     1     -12.838   9.949  68.432  1.00  0.00     0.000 HD 
ENDROOT
BRANCH   3   6
HETATM    6  C   UNL     1     -12.118  11.592  69.367  1.00  0.00    -0.263 A  
HETATM    7  N   UNL     1     -12.336  11.841  70.712  1.00  0.00    -0.374 NA 
HETATM    8  N   UNL     1     -12.637  13.078  71.179  1.00  0.00    -0.353 NA 
HETATM    9  C   UNL     1     -12.183  14.207  70.534  1.00  0.00    -0.361 A  
HETATM   10  C   UNL     1     -11.820  14.065  69.093  1.00  0.00    -0.391 A  
HETATM   11  C   UNL     1     -11.884  12.796  68.479  1.00  0.00    -0.345 A  
HETATM   12  C   UNL     1     -11.728  12.735  67.087  1.00  0.00    -0.443 A  
HETATM   13  C   UNL     1     -11.491  15.209  68.350  1.00  0.00    -0.347 A  
HETATM   14  C   UNL     1     -11.417  13.882  66.346  1.00  0.00    -0.354 A  
HETATM   15  C   UNL     1     -11.273  15.111  66.978  1.00  0.00    -0.308 A  
BRANCH   9  16
HETATM   16  N   UNL     1     -12.088  15.382  71.105  1.00  0.00    -0.327 NA 
HETATM   17  H1  UNL     1     -11.682  16.276  72.868  1.00  0.00     0.000 HD 
HETATM   18  N   UNL     1     -11.756  15.361  72.423  1.00  0.00    -0.446 NA 
HETATM   19  H   UNL     1     -12.253  16.251  70.598  1.00  0.00     0.000 HD 
HETATM   20  H2  UNL     1     -11.591  14.493  72.931  1.00  0.00     0.000 HD 
ENDBRANCH   9  16
ENDBRANCH   3   6
TORSDOF 2
ENDMDL
MODEL       63
REMARK 921   NORMALIZED FREE ENERGY PREDICTED BY IDOCK:   -4.78 KCAL/MOL
REMARK 922        TOTAL FREE ENERGY PREDICTED BY IDOCK:   -5.47 KCAL/MOL
REMARK 923 INTER-LIGAND FREE ENERGY PREDICTED BY IDOCK:   -5.38 KCAL/MOL
REMARK 924 INTRA-LIGAND FREE ENERGY PREDICTED BY IDOCK:   -0.08 KCAL/MOL
REMARK 927      BINDING AFFINITY PREDICTED BY RF-SCORE:    0.00 PKD
ROOT
HETATM    1  N   UNL     1     -10.978   7.766  67.724  1.00  0.00    -0.501 NA 
HETATM    2  H2  UNL     1     -11.017   7.562  66.726  1.00  0.00     0.000 HD 
HETATM    3  N   UNL     1     -10.814   9.032  68.135  1.00  0.00    -0.463 NA 
HETATM    4  H1  UNL     1     -11.065   7.002  68.395  1.00  0.00     0.000 HD 
HETATM    5  H   UNL     1     -10.775   9.235  69.133  1.00  0.00     0.000 HD 
ENDROOT
BRANCH   3   6
HETATM    6  C   UNL     1     -10.703  10.016  67.269  1.00  0.00    -0.244 A  
HETATM    7  N   UNL     1     -10.219   9.616  66.034  1.00  0.00    -0.235 NA 
HETATM    8  N   UNL     1      -9.781  10.504  65.107  1.00  0.00    -0.257 NA 
HETATM    9  C   UNL     1     -10.302  11.777  65.047  1.00  0.00    -0.281 A  
HETATM   10  C   UNL     1     -10.942  12.308  66.286  1.00  0.00    -0.327 A  
HETATM   11  C   UNL     1     -11.052  11.481  67.424  1.00  0.00    -0.339 A  
HETATM   12  C   UNL     1     -11.476  12.071  68.623  1.00  0.00    -0.350 A  
HETATM   13  C   UNL     1     -11.358  13.648  66.327  1.00  0.00    -0.325 A  
HETATM   14  C   UNL     1     -11.875  13.413  68.664  1.00  0.00    -0.397 A  
HETATM   15  C   UNL     1     -11.841  14.192  67.513  1.00  0.00    -0.437 A  
BRANCH   9  16
HETATM   16  N   UNL     1     -10.234  12.540  63.984  1.00  0.00    -0.518 NA 
HETATM   17  H1  UNL     1     -11.182  12.962  62.253  1.00  0.00     0.000 HD 
HETATM   18  N   UNL     1     -11.235  12.368  63.080  1.00  0.00    -0.709 NA 
HETATM   19  H   UNL     1      -9.483  13.215  63.844  1.00  0.00     0.000 HD 
HETATM   20  H2  UNL     1     -11.986  11.693  63.221  1.00  0.00     0.000 HD 
ENDBRANCH   9  16
ENDBRANCH   3   6
TORSDOF 2
ENDMDL
MODEL       64
REMARK 921   NORMALIZED FREE ENERGY PREDICTED BY IDOCK:   -4.77 KCAL/MOL
REMARK 922        TOTAL FREE ENERGY PREDICTED BY IDOCK:   -5.46 KCAL/MOL
REMARK 923 INTER-LIGAND FREE ENERGY PREDICTED BY IDOCK:   -5.33 KCAL/MOL
REMARK 924 INTRA-LIGAND FREE ENERGY PREDICTED BY IDOCK:   -0.12 KCAL/MOL
REMARK 927      BINDING AFFINITY PREDICTED BY RF-SCORE:    0.00 PKD
ROOT
HETATM    1  N   UNL     1     -10.353   8.425  68.523  1.00  0.00    -0.221 NA 
HETATM    2  H2  UNL     1     -10.247   7.822  67.707  1.00  0.00     0.000 HD 
HETATM    3  N   UNL     1     -10.549   9.740  68.351  1.00  0.00    -0.218 NA 
HETATM    4  H1  UNL     1     -10.310   8.017  69.457  1.00  0.00     0.000 HD 
HETATM    5  H   UNL     1     -10.655  10.343  69.167  1.00  0.00     0.000 HD 
ENDROOT
BRANCH   3   6
HETATM    6  C   UNL     1     -10.605  10.266  67.147  1.00  0.00    -0.260 A  
HETATM    7  N   UNL     1     -10.080   9.448  66.160  1.00  0.00    -0.284 NA 
HETATM    8  N   UNL     1      -9.798   9.906  64.915  1.00  0.00    -0.286 NA 
HETATM    9  C   UNL     1     -10.515  10.947  64.367  1.00  0.00    -0.333 A  
HETATM   10  C   UNL     1     -11.216  11.862  65.315  1.00  0.00    -0.351 A  
HETATM   11  C   UNL     1     -11.180  11.593  66.699  1.00  0.00    -0.362 A  
HETATM   12  C   UNL     1     -11.677  12.574  67.569  1.00  0.00    -0.439 A  
HETATM   13  C   UNL     1     -11.837  13.020  64.822  1.00  0.00    -0.409 A  
HETATM   14  C   UNL     1     -12.282  13.736  67.074  1.00  0.00    -0.381 A  
HETATM   15  C   UNL     1     -12.385  13.947  65.705  1.00  0.00    -0.511 A  
BRANCH   9  16
HETATM   16  N   UNL     1     -10.582  11.185  63.080  1.00  0.00    -0.801 NA 
HETATM   17  H1  UNL     1      -9.441  11.602  61.469  1.00  0.00     0.000 HD 
HETATM   18  N   UNL     1      -9.389  11.417  62.470  1.00  0.00    -0.481 NA 
HETATM   19  H   UNL     1     -11.466  11.196  62.572  1.00  0.00     0.000 HD 
HETATM   20  H2  UNL     1      -8.505  11.406  62.978  1.00  0.00     0.000 HD 
ENDBRANCH   9  16
ENDBRANCH   3   6
TORSDOF 2
ENDMDL
MODEL       65
REMARK 921   NORMALIZED FREE ENERGY PREDICTED BY IDOCK:   -4.76 KCAL/MOL
REMARK 922        TOTAL FREE ENERGY PREDICTED BY IDOCK:   -5.45 KCAL/MOL
REMARK 923 INTER-LIGAND FREE ENERGY PREDICTED BY IDOCK:   -5.32 KCAL/MOL
REMARK 924 INTRA-LIGAND FREE ENERGY PREDICTED BY IDOCK:   -0.12 KCAL/MOL
REMARK 927      BINDING AFFINITY PREDICTED BY RF-SCORE:    0.00 PKD
ROOT
HETATM    1  N   UNL     1     -10.636  12.112  69.277  1.00  0.00    -0.439 NA 
HETATM    2  H2  UNL     1     -11.307  12.862  69.439  1.00  0.00     0.000 HD 
HETATM    3  N   UNL     1      -9.867  12.138  68.179  1.00  0.00    -0.202 NA 
HETATM    4  H1  UNL     1     -10.559  11.353  69.955  1.00  0.00     0.000 HD 
HETATM    5  H   UNL     1      -9.196  11.387  68.017  1.00  0.00     0.000 HD 
ENDROOT
BRANCH   3   6
HETATM    6  C   UNL     1      -9.967  13.117  67.305  1.00  0.00    -0.230 A  
HETATM    7  N   UNL     1     -11.067  13.008  66.472  1.00  0.00    -0.282 NA 
HETATM    8  N   UNL     1     -11.199  13.752  65.346  1.00  0.00    -0.298 NA 
HETATM    9  C   UNL     1     -10.632  15.004  65.257  1.00  0.00    -0.397 A  
HETATM   10  C   UNL     1      -9.487  15.297  66.167  1.00  0.00    -0.361 A  
HETATM   11  C   UNL     1      -9.083  14.331  67.113  1.00  0.00    -0.237 A  
HETATM   12  C   UNL     1      -7.888  14.558  67.811  1.00  0.00    -0.171 A  
HETATM   13  C   UNL     1      -8.779  16.500  66.019  1.00  0.00    -0.255 A  
HETATM   14  C   UNL     1      -7.175  15.753  67.648  1.00  0.00    -0.189 A  
HETATM   15  C   UNL     1      -7.633  16.732  66.774  1.00  0.00    -0.283 A  
BRANCH   9  16
HETATM   16  N   UNL     1     -11.023  15.919  64.405  1.00  0.00    -0.893 NA 
HETATM   17  H1  UNL     1     -12.576  16.456  63.233  1.00  0.00     0.000 HD 
HETATM   18  N   UNL     1     -12.271  15.743  63.896  1.00  0.00    -1.086 NA 
HETATM   19  H   UNL     1     -10.433  16.707  64.141  1.00  0.00     0.000 HD 
HETATM   20  H2  UNL     1     -12.862  14.955  64.160  1.00  0.00     0.000 HD 
ENDBRANCH   9  16
ENDBRANCH   3   6
TORSDOF 2
ENDMDL
MODEL       66
REMARK 921   NORMALIZED FREE ENERGY PREDICTED BY IDOCK:   -4.71 KCAL/MOL
REMARK 922        TOTAL FREE ENERGY PREDICTED BY IDOCK:   -5.39 KCAL/MOL
REMARK 923 INTER-LIGAND FREE ENERGY PREDICTED BY IDOCK:   -5.27 KCAL/MOL
REMARK 924 INTRA-LIGAND FREE ENERGY PREDICTED BY IDOCK:   -0.13 KCAL/MOL
REMARK 927      BINDING AFFINITY PREDICTED BY RF-SCORE:    0.00 PKD
ROOT
HETATM    1  N   UNL     1      -8.851  12.124  68.496  1.00  0.00    -0.332 NA 
HETATM    2  H2  UNL     1      -9.521  12.719  68.982  1.00  0.00     0.000 HD 
HETATM    3  N   UNL     1      -8.708  12.237  67.168  1.00  0.00    -0.186 NA 
HETATM    4  H1  UNL     1      -8.299  11.451  69.029  1.00  0.00     0.000 HD 
HETATM    5  H   UNL     1      -8.037  11.641  66.682  1.00  0.00     0.000 HD 
ENDROOT
BRANCH   3   6
HETATM    6  C   UNL     1      -9.419  13.105  66.481  1.00  0.00    -0.243 A  
HETATM    7  N   UNL     1      -9.093  14.424  66.748  1.00  0.00    -0.259 NA 
HETATM    8  N   UNL     1      -9.879  15.457  66.356  1.00  0.00    -0.264 NA 
HETATM    9  C   UNL     1     -10.665  15.358  65.229  1.00  0.00    -0.421 A  
HETATM   10  C   UNL     1     -11.021  13.985  64.768  1.00  0.00    -0.410 A  
HETATM   11  C   UNL     1     -10.495  12.863  65.443  1.00  0.00    -0.308 A  
HETATM   12  C   UNL     1     -11.004  11.600  65.110  1.00  0.00    -0.326 A  
HETATM   13  C   UNL     1     -11.936  13.827  63.715  1.00  0.00    -0.365 A  
HETATM   14  C   UNL     1     -11.929  11.449  64.069  1.00  0.00     0.088 A  
HETATM   15  C   UNL     1     -12.374  12.555  63.357  1.00  0.00    -0.577 A  
BRANCH   9  16
HETATM   16  N   UNL     1     -11.131  16.394  64.575  1.00  0.00    -1.003 NA 
HETATM   17  H1  UNL     1     -11.159  18.412  64.586  1.00  0.00     0.000 HD 
HETATM   18  N   UNL     1     -10.797  17.606  65.094  1.00  0.00    -0.660 NA 
HETATM   19  H   UNL     1     -11.704  16.299  63.738  1.00  0.00     0.000 HD 
HETATM   20  H2  UNL     1     -10.223  17.701  65.932  1.00  0.00     0.000 HD 
ENDBRANCH   9  16
ENDBRANCH   3   6
TORSDOF 2
ENDMDL
MODEL       67
REMARK 921   NORMALIZED FREE ENERGY PREDICTED BY IDOCK:   -4.70 KCAL/MOL
REMARK 922        TOTAL FREE ENERGY PREDICTED BY IDOCK:   -5.38 KCAL/MOL
REMARK 923 INTER-LIGAND FREE ENERGY PREDICTED BY IDOCK:   -5.25 KCAL/MOL
REMARK 924 INTRA-LIGAND FREE ENERGY PREDICTED BY IDOCK:   -0.13 KCAL/MOL
REMARK 927      BINDING AFFINITY PREDICTED BY RF-SCORE:    0.00 PKD
ROOT
HETATM    1  N   UNL     1     -14.303   8.112  72.457  1.00  0.00    -0.715 NA 
HETATM    2  H2  UNL     1     -14.727   8.224  71.537  1.00  0.00     0.000 HD 
HETATM    3  N   UNL     1     -13.221   8.836  72.778  1.00  0.00    -0.665 NA 
HETATM    4  H1  UNL     1     -14.708   7.450  73.120  1.00  0.00     0.000 HD 
HETATM    5  H   UNL     1     -12.797   8.724  73.699  1.00  0.00     0.000 HD 
ENDROOT
BRANCH   3   6
HETATM    6  C   UNL     1     -12.699   9.689  71.924  1.00  0.00    -0.411 A  
HETATM    7  N   UNL     1     -13.166  10.984  72.076  1.00  0.00    -0.459 NA 
HETATM    8  N   UNL     1     -12.964  11.942  71.138  1.00  0.00    -0.250 NA 
HETATM    9  C   UNL     1     -11.853  11.908  70.324  1.00  0.00    -0.281 A  
HETATM   10  C   UNL     1     -11.186  10.587  70.139  1.00  0.00    -0.389 A  
HETATM   11  C   UNL     1     -11.661   9.461  70.846  1.00  0.00    -0.380 A  
HETATM   12  C   UNL     1     -11.140   8.205  70.501  1.00  0.00    -0.257 A  
HETATM   13  C   UNL     1     -10.143  10.465  69.208  1.00  0.00    -0.248 A  
HETATM   14  C   UNL     1     -10.111   8.086  69.559  1.00  0.00    -0.196 A  
HETATM   15  C   UNL     1      -9.595   9.215  68.934  1.00  0.00    -0.152 A  
BRANCH   9  16
HETATM   16  N   UNL     1     -11.386  12.956  69.690  1.00  0.00    -0.474 NA 
HETATM   17  H1  UNL     1     -11.911  14.783  69.013  1.00  0.00     0.000 HD 
HETATM   18  N   UNL     1     -12.275  13.967  69.506  1.00  0.00    -0.375 NA 
HETATM   19  H   UNL     1     -10.423  13.008  69.358  1.00  0.00     0.000 HD 
HETATM   20  H2  UNL     1     -13.237  13.915  69.838  1.00  0.00     0.000 HD 
ENDBRANCH   9  16
ENDBRANCH   3   6
TORSDOF 2
ENDMDL
MODEL       68
REMARK 921   NORMALIZED FREE ENERGY PREDICTED BY IDOCK:   -4.66 KCAL/MOL
REMARK 922        TOTAL FREE ENERGY PREDICTED BY IDOCK:   -5.34 KCAL/MOL
REMARK 923 INTER-LIGAND FREE ENERGY PREDICTED BY IDOCK:   -5.27 KCAL/MOL
REMARK 924 INTRA-LIGAND FREE ENERGY PREDICTED BY IDOCK:   -0.07 KCAL/MOL
REMARK 927      BINDING AFFINITY PREDICTED BY RF-SCORE:    0.00 PKD
ROOT
HETATM    1  N   UNL     1      -8.922  18.255  66.101  1.00  0.00    -0.498 NA 
HETATM    2  H2  UNL     1      -9.632  18.477  66.799  1.00  0.00     0.000 HD 
HETATM    3  N   UNL     1      -8.613  16.973  65.860  1.00  0.00    -0.525 NA 
HETATM    4  H1  UNL     1      -8.459  19.012  65.598  1.00  0.00     0.000 HD 
HETATM    5  H   UNL     1      -7.903  16.750  65.162  1.00  0.00     0.000 HD 
ENDROOT
BRANCH   3   6
HETATM    6  C   UNL     1      -9.211  15.997  66.509  1.00  0.00    -0.276 A  
HETATM    7  N   UNL     1      -8.649  15.727  67.745  1.00  0.00    -0.158 NA 
HETATM    8  N   UNL     1      -8.939  14.600  68.441  1.00  0.00    -0.175 NA 
HETATM    9  C   UNL     1     -10.163  13.984  68.308  1.00  0.00    -0.249 A  
HETATM   10  C   UNL     1     -10.929  14.258  67.058  1.00  0.00    -0.305 A  
HETATM   11  C   UNL     1     -10.418  15.173  66.113  1.00  0.00    -0.320 A  
HETATM   12  C   UNL     1     -11.060  15.257  64.869  1.00  0.00    -0.435 A  
HETATM   13  C   UNL     1     -12.111  13.546  66.803  1.00  0.00    -0.425 A  
HETATM   14  C   UNL     1     -12.230  14.532  64.613  1.00  0.00    -0.474 A  
HETATM   15  C   UNL     1     -12.769  13.699  65.586  1.00  0.00    -0.505 A  
BRANCH   9  16
HETATM   16  N   UNL     1     -10.661  13.158  69.196  1.00  0.00    -0.436 NA 
HETATM   17  H1  UNL     1     -11.793  13.097  70.866  1.00  0.00     0.000 HD 
HETATM   18  N   UNL     1     -11.405  13.738  70.175  1.00  0.00    -0.488 NA 
HETATM   19  H   UNL     1     -10.501  12.152  69.156  1.00  0.00     0.000 HD 
HETATM   20  H2  UNL     1     -11.565  14.745  70.214  1.00  0.00     0.000 HD 
ENDBRANCH   9  16
ENDBRANCH   3   6
TORSDOF 2
ENDMDL
MODEL       69
REMARK 921   NORMALIZED FREE ENERGY PREDICTED BY IDOCK:   -4.65 KCAL/MOL
REMARK 922        TOTAL FREE ENERGY PREDICTED BY IDOCK:   -5.33 KCAL/MOL
REMARK 923 INTER-LIGAND FREE ENERGY PREDICTED BY IDOCK:   -5.20 KCAL/MOL
REMARK 924 INTRA-LIGAND FREE ENERGY PREDICTED BY IDOCK:   -0.13 KCAL/MOL
REMARK 927      BINDING AFFINITY PREDICTED BY RF-SCORE:    0.00 PKD
ROOT
HETATM    1  N   UNL     1      -9.370  13.013  67.782  1.00  0.00    -0.192 NA 
HETATM    2  H2  UNL     1      -8.848  13.041  68.658  1.00  0.00     0.000 HD 
HETATM    3  N   UNL     1     -10.690  12.780  67.807  1.00  0.00    -0.217 NA 
HETATM    4  H1  UNL     1      -8.879  13.163  66.901  1.00  0.00     0.000 HD 
HETATM    5  H   UNL     1     -11.212  12.752  66.931  1.00  0.00     0.000 HD 
ENDROOT
BRANCH   3   6
HETATM    6  C   UNL     1     -11.323  12.587  68.944  1.00  0.00    -0.297 A  
HETATM    7  N   UNL     1     -11.971  13.715  69.417  1.00  0.00    -0.334 NA 
HETATM    8  N   UNL     1     -12.444  13.800  70.686  1.00  0.00    -0.357 NA 
HETATM    9  C   UNL     1     -12.853  12.672  71.363  1.00  0.00    -0.261 A  
HETATM   10  C   UNL     1     -12.302  11.365  70.901  1.00  0.00    -0.483 A  
HETATM   11  C   UNL     1     -11.461  11.324  69.768  1.00  0.00    -0.386 A  
HETATM   12  C   UNL     1     -10.808  10.117  69.482  1.00  0.00    -0.289 A  
HETATM   13  C   UNL     1     -12.568  10.204  71.643  1.00  0.00    -0.533 A  
HETATM   14  C   UNL     1     -11.063   8.964  70.236  1.00  0.00    -0.251 A  
HETATM   15  C   UNL     1     -11.960   9.001  71.296  1.00  0.00    -0.374 A  
BRANCH   9  16
HETATM   16  N   UNL     1     -13.660  12.698  72.395  1.00  0.00    -0.593 NA 
HETATM   17  H1  UNL     1     -14.867  13.922  73.452  1.00  0.00     0.000 HD 
HETATM   18  N   UNL     1     -14.239  13.901  72.649  1.00  0.00    -0.635 NA 
HETATM   19  H   UNL     1     -13.840  11.874  72.968  1.00  0.00     0.000 HD 
HETATM   20  H2  UNL     1     -14.059  14.725  72.077  1.00  0.00     0.000 HD 
ENDBRANCH   9  16
ENDBRANCH   3   6
TORSDOF 2
ENDMDL
MODEL       70
REMARK 921   NORMALIZED FREE ENERGY PREDICTED BY IDOCK:   -4.63 KCAL/MOL
REMARK 922        TOTAL FREE ENERGY PREDICTED BY IDOCK:   -5.30 KCAL/MOL
REMARK 923 INTER-LIGAND FREE ENERGY PREDICTED BY IDOCK:   -5.17 KCAL/MOL
REMARK 924 INTRA-LIGAND FREE ENERGY PREDICTED BY IDOCK:   -0.13 KCAL/MOL
REMARK 927      BINDING AFFINITY PREDICTED BY RF-SCORE:    0.00 PKD
ROOT
HETATM    1  N   UNL     1     -10.737  18.374  67.440  1.00  0.00    -0.407 NA 
HETATM    2  H2  UNL     1     -11.392  18.198  66.678  1.00  0.00     0.000 HD 
HETATM    3  N   UNL     1     -10.376  17.365  68.246  1.00  0.00    -0.353 NA 
HETATM    4  H1  UNL     1     -10.365  19.314  67.575  1.00  0.00     0.000 HD 
HETATM    5  H   UNL     1      -9.720  17.541  69.007  1.00  0.00     0.000 HD 
ENDROOT
BRANCH   3   6
HETATM    6  C   UNL     1     -10.855  16.153  68.071  1.00  0.00    -0.333 A  
HETATM    7  N   UNL     1     -10.751  15.698  66.768  1.00  0.00    -0.309 NA 
HETATM    8  N   UNL     1     -11.420  14.603  66.327  1.00  0.00    -0.359 NA 
HETATM    9  C   UNL     1     -11.734  13.575  67.188  1.00  0.00    -0.379 A  
HETATM   10  C   UNL     1     -11.792  13.900  68.643  1.00  0.00    -0.407 A  
HETATM   11  C   UNL     1     -11.460  15.200  69.081  1.00  0.00    -0.322 A  
HETATM   12  C   UNL     1     -11.715  15.524  70.421  1.00  0.00    -0.363 A  
HETATM   13  C   UNL     1     -12.249  12.930  69.549  1.00  0.00    -0.177 A  
HETATM   14  C   UNL     1     -12.187  14.557  71.318  1.00  0.00    -0.421 A  
HETATM   15  C   UNL     1     -12.428  13.258  70.890  1.00  0.00    -0.424 A  
BRANCH   9  16
HETATM   16  N   UNL     1     -12.011  12.356  66.793  1.00  0.00    -0.588 NA 
HETATM   17  H1  UNL     1     -11.383  10.896  65.550  1.00  0.00     0.000 HD 
HETATM   18  N   UNL     1     -11.168  11.844  65.858  1.00  0.00    -0.331 NA 
HETATM   19  H   UNL     1     -12.802  11.829  67.161  1.00  0.00     0.000 HD 
HETATM   20  H2  UNL     1     -10.376  12.370  65.490  1.00  0.00     0.000 HD 
ENDBRANCH   9  16
ENDBRANCH   3   6
TORSDOF 2
ENDMDL
MODEL       71
REMARK 921   NORMALIZED FREE ENERGY PREDICTED BY IDOCK:   -4.63 KCAL/MOL
REMARK 922        TOTAL FREE ENERGY PREDICTED BY IDOCK:   -5.30 KCAL/MOL
REMARK 923 INTER-LIGAND FREE ENERGY PREDICTED BY IDOCK:   -5.19 KCAL/MOL
REMARK 924 INTRA-LIGAND FREE ENERGY PREDICTED BY IDOCK:   -0.12 KCAL/MOL
REMARK 927      BINDING AFFINITY PREDICTED BY RF-SCORE:    0.00 PKD
ROOT
HETATM    1  N   UNL     1     -10.717  18.669  65.757  1.00  0.00    -0.476 NA 
HETATM    2  H2  UNL     1     -10.598  18.744  66.768  1.00  0.00     0.000 HD 
HETATM    3  N   UNL     1     -10.694  17.460  65.177  1.00  0.00    -0.627 NA 
HETATM    4  H1  UNL     1     -10.853  19.515  65.204  1.00  0.00     0.000 HD 
HETATM    5  H   UNL     1     -10.813  17.386  64.167  1.00  0.00     0.000 HD 
ENDROOT
BRANCH   3   6
HETATM    6  C   UNL     1     -10.520  16.369  65.891  1.00  0.00    -0.337 A  
HETATM    7  N   UNL     1      -9.777  16.572  67.042  1.00  0.00    -0.244 NA 
HETATM    8  N   UNL     1      -9.262  15.544  67.762  1.00  0.00    -0.180 NA 
HETATM    9  C   UNL     1      -9.886  14.316  67.784  1.00  0.00    -0.223 A  
HETATM   10  C   UNL     1     -10.796  13.996  66.646  1.00  0.00    -0.297 A  
HETATM   11  C   UNL     1     -11.035  14.966  65.649  1.00  0.00    -0.347 A  
HETATM   12  C   UNL     1     -11.732  14.566  64.501  1.00  0.00    -0.421 A  
HETATM   13  C   UNL     1     -11.342  12.707  66.542  1.00  0.00    -0.377 A  
HETATM   14  C   UNL     1     -12.261  13.273  64.393  1.00  0.00    -0.449 A  
HETATM   15  C   UNL     1     -12.089  12.355  65.421  1.00  0.00    -0.428 A  
BRANCH   9  16
HETATM   16  N   UNL     1      -9.696  13.422  68.723  1.00  0.00    -0.418 NA 
HETATM   17  H1  UNL     1      -8.308  12.168  69.481  1.00  0.00     0.000 HD 
HETATM   18  N   UNL     1      -8.456  12.864  68.750  1.00  0.00    -0.362 NA 
HETATM   19  H   UNL     1     -10.425  13.163  69.386  1.00  0.00     0.000 HD 
HETATM   20  H2  UNL     1      -7.726  13.123  68.087  1.00  0.00     0.000 HD 
ENDBRANCH   9  16
ENDBRANCH   3   6
TORSDOF 2
ENDMDL
MODEL       72
REMARK 921   NORMALIZED FREE ENERGY PREDICTED BY IDOCK:   -4.62 KCAL/MOL
REMARK 922        TOTAL FREE ENERGY PREDICTED BY IDOCK:   -5.30 KCAL/MOL
REMARK 923 INTER-LIGAND FREE ENERGY PREDICTED BY IDOCK:   -5.21 KCAL/MOL
REMARK 924 INTRA-LIGAND FREE ENERGY PREDICTED BY IDOCK:   -0.09 KCAL/MOL
REMARK 927      BINDING AFFINITY PREDICTED BY RF-SCORE:    0.00 PKD
ROOT
HETATM    1  N   UNL     1     -11.781  13.653  70.441  1.00  0.00    -0.521 NA 
HETATM    2  H2  UNL     1     -12.120  13.671  71.403  1.00  0.00     0.000 HD 
HETATM    3  N   UNL     1     -11.582  12.474  69.834  1.00  0.00    -0.496 NA 
HETATM    4  H1  UNL     1     -11.600  14.532  69.956  1.00  0.00     0.000 HD 
HETATM    5  H   UNL     1     -11.244  12.456  68.872  1.00  0.00     0.000 HD 
ENDROOT
BRANCH   3   6
HETATM    6  C   UNL     1     -11.816  11.341  70.460  1.00  0.00    -0.324 A  
HETATM    7  N   UNL     1     -12.992  11.344  71.191  1.00  0.00    -0.316 NA 
HETATM    8  N   UNL     1     -13.275  10.388  72.111  1.00  0.00    -0.410 NA 
HETATM    9  C   UNL     1     -12.777   9.111  71.977  1.00  0.00    -0.398 A  
HETATM   10  C   UNL     1     -11.557   8.943  71.135  1.00  0.00    -0.360 A  
HETATM   11  C   UNL     1     -11.013  10.058  70.464  1.00  0.00    -0.392 A  
HETATM   12  C   UNL     1      -9.763   9.905  69.847  1.00  0.00    -0.274 A  
HETATM   13  C   UNL     1     -10.923   7.691  71.083  1.00  0.00    -0.263 A  
HETATM   14  C   UNL     1      -9.126   8.658  69.811  1.00  0.00    -0.150 A  
HETATM   15  C   UNL     1      -9.716   7.549  70.404  1.00  0.00    -0.179 A  
BRANCH   9  16
HETATM   16  N   UNL     1     -13.296   8.064  72.570  1.00  0.00    -0.533 NA 
HETATM   17  H1  UNL     1     -14.721   6.650  72.363  1.00  0.00     0.000 HD 
HETATM   18  N   UNL     1     -14.317   7.465  71.902  1.00  0.00    -0.590 NA 
HETATM   19  H   UNL     1     -12.958   7.722  73.469  1.00  0.00     0.000 HD 
HETATM   20  H2  UNL     1     -14.656   7.807  71.002  1.00  0.00     0.000 HD 
ENDBRANCH   9  16
ENDBRANCH   3   6
TORSDOF 2
ENDMDL
MODEL       73
REMARK 921   NORMALIZED FREE ENERGY PREDICTED BY IDOCK:   -4.62 KCAL/MOL
REMARK 922        TOTAL FREE ENERGY PREDICTED BY IDOCK:   -5.29 KCAL/MOL
REMARK 923 INTER-LIGAND FREE ENERGY PREDICTED BY IDOCK:   -5.17 KCAL/MOL
REMARK 924 INTRA-LIGAND FREE ENERGY PREDICTED BY IDOCK:   -0.12 KCAL/MOL
REMARK 927      BINDING AFFINITY PREDICTED BY RF-SCORE:    0.00 PKD
ROOT
HETATM    1  N   UNL     1     -11.781   5.549  73.087  1.00  0.00    -0.527 NA 
HETATM    2  H2  UNL     1     -10.778   5.729  73.033  1.00  0.00     0.000 HD 
HETATM    3  N   UNL     1     -12.632   6.358  72.441  1.00  0.00    -0.543 NA 
HETATM    4  H1  UNL     1     -12.120   4.756  73.631  1.00  0.00     0.000 HD 
HETATM    5  H   UNL     1     -13.635   6.179  72.494  1.00  0.00     0.000 HD 
ENDROOT
BRANCH   3   6
HETATM    6  C   UNL     1     -12.195   7.381  71.738  1.00  0.00    -0.326 A  
HETATM    7  N   UNL     1     -12.380   8.603  72.363  1.00  0.00    -0.380 NA 
HETATM    8  N   UNL     1     -12.249   9.780  71.703  1.00  0.00    -0.393 NA 
HETATM    9  C   UNL     1     -11.393   9.897  70.630  1.00  0.00    -0.339 A  
HETATM   10  C   UNL     1     -11.030   8.640  69.912  1.00  0.00    -0.169 A  
HETATM   11  C   UNL     1     -11.506   7.401  70.390  1.00  0.00    -0.250 A  
HETATM   12  C   UNL     1     -11.310   6.270  69.585  1.00  0.00    -0.492 A  
HETATM   13  C   UNL     1     -10.282   8.716  68.727  1.00  0.00    -0.224 A  
HETATM   14  C   UNL     1     -10.577   6.352  68.394  1.00  0.00    -0.311 A  
HETATM   15  C   UNL     1     -10.042   7.566  67.979  1.00  0.00    -0.221 A  
BRANCH   9  16
HETATM   16  N   UNL     1     -10.920  11.040  70.199  1.00  0.00    -0.467 NA 
HETATM   17  H1  UNL     1     -11.332  13.014  70.119  1.00  0.00     0.000 HD 
HETATM   18  N   UNL     1     -11.700  12.124  70.454  1.00  0.00    -0.532 NA 
HETATM   19  H   UNL     1     -10.030  11.112  69.707  1.00  0.00     0.000 HD 
HETATM   20  H2  UNL     1     -12.590  12.052  70.947  1.00  0.00     0.000 HD 
ENDBRANCH   9  16
ENDBRANCH   3   6
TORSDOF 2
ENDMDL
MODEL       74
REMARK 921   NORMALIZED FREE ENERGY PREDICTED BY IDOCK:   -4.60 KCAL/MOL
REMARK 922        TOTAL FREE ENERGY PREDICTED BY IDOCK:   -5.28 KCAL/MOL
REMARK 923 INTER-LIGAND FREE ENERGY PREDICTED BY IDOCK:   -5.15 KCAL/MOL
REMARK 924 INTRA-LIGAND FREE ENERGY PREDICTED BY IDOCK:   -0.12 KCAL/MOL
REMARK 927      BINDING AFFINITY PREDICTED BY RF-SCORE:    0.00 PKD
ROOT
HETATM    1  N   UNL     1     -12.253  10.660  68.415  1.00  0.00    -0.762 NA 
HETATM    2  H2  UNL     1     -13.233  10.915  68.539  1.00  0.00     0.000 HD 
HETATM    3  N   UNL     1     -11.295  11.531  68.764  1.00  0.00    -0.238 NA 
HETATM    4  H1  UNL     1     -12.017   9.746  68.028  1.00  0.00     0.000 HD 
HETATM    5  H   UNL     1     -10.315  11.275  68.641  1.00  0.00     0.000 HD 
ENDROOT
BRANCH   3   6
HETATM    6  C   UNL     1     -11.599  12.709  69.263  1.00  0.00    -0.318 A  
HETATM    7  N   UNL     1     -12.230  12.644  70.495  1.00  0.00    -0.353 NA 
HETATM    8  N   UNL     1     -12.859  13.713  71.043  1.00  0.00    -0.312 NA 
HETATM    9  C   UNL     1     -12.441  14.996  70.767  1.00  0.00    -0.352 A  
HETATM   10  C   UNL     1     -11.665  15.202  69.509  1.00  0.00    -0.351 A  
HETATM   11  C   UNL     1     -11.332  14.091  68.705  1.00  0.00    -0.309 A  
HETATM   12  C   UNL     1     -10.779  14.341  67.441  1.00  0.00    -0.282 A  
HETATM   13  C   UNL     1     -11.341  16.506  69.105  1.00  0.00    -0.156 A  
HETATM   14  C   UNL     1     -10.472  15.645  67.034  1.00  0.00    -0.303 A  
HETATM   15  C   UNL     1     -10.728  16.723  67.874  1.00  0.00    -0.347 A  
BRANCH   9  16
HETATM   16  N   UNL     1     -12.716  16.028  71.526  1.00  0.00    -0.537 NA 
HETATM   17  H1  UNL     1     -13.749  16.575  73.171  1.00  0.00     0.000 HD 
HETATM   18  N   UNL     1     -13.535  15.772  72.580  1.00  0.00    -0.532 NA 
HETATM   19  H   UNL     1     -12.343  16.959  71.338  1.00  0.00     0.000 HD 
HETATM   20  H2  UNL     1     -13.908  14.841  72.768  1.00  0.00     0.000 HD 
ENDBRANCH   9  16
ENDBRANCH   3   6
TORSDOF 2
ENDMDL
MODEL       75
REMARK 921   NORMALIZED FREE ENERGY PREDICTED BY IDOCK:   -4.58 KCAL/MOL
REMARK 922        TOTAL FREE ENERGY PREDICTED BY IDOCK:   -5.25 KCAL/MOL
REMARK 923 INTER-LIGAND FREE ENERGY PREDICTED BY IDOCK:   -5.12 KCAL/MOL
REMARK 924 INTRA-LIGAND FREE ENERGY PREDICTED BY IDOCK:   -0.13 KCAL/MOL
REMARK 927      BINDING AFFINITY PREDICTED BY RF-SCORE:    0.00 PKD
ROOT
HETATM    1  N   UNL     1     -12.725  10.659  69.293  1.00  0.00    -0.618 NA 
HETATM    2  H2  UNL     1     -12.653   9.680  69.015  1.00  0.00     0.000 HD 
HETATM    3  N   UNL     1     -12.065  11.594  68.596  1.00  0.00    -0.469 NA 
HETATM    4  H1  UNL     1     -13.300  10.910  70.098  1.00  0.00     0.000 HD 
HETATM    5  H   UNL     1     -12.138  12.573  68.874  1.00  0.00     0.000 HD 
ENDROOT
BRANCH   3   6
HETATM    6  C   UNL     1     -11.324  11.270  67.558  1.00  0.00    -0.288 A  
HETATM    7  N   UNL     1     -10.383  10.292  67.833  1.00  0.00    -0.183 NA 
HETATM    8  N   UNL     1      -9.358  10.016  66.989  1.00  0.00    -0.152 NA 
HETATM    9  C   UNL     1      -9.491  10.209  65.631  1.00  0.00    -0.220 A  
HETATM   10  C   UNL     1     -10.537  11.173  65.182  1.00  0.00    -0.319 A  
HETATM   11  C   UNL     1     -11.380  11.783  66.135  1.00  0.00    -0.342 A  
HETATM   12  C   UNL     1     -12.213  12.824  65.701  1.00  0.00    -0.503 A  
HETATM   13  C   UNL     1     -10.618  11.518  63.823  1.00  0.00    -0.465 A  
HETATM   14  C   UNL     1     -12.279  13.177  64.347  1.00  0.00    -0.462 A  
HETATM   15  C   UNL     1     -11.503  12.509  63.407  1.00  0.00    -0.523 A  
BRANCH   9  16
HETATM   16  N   UNL     1      -8.734   9.622  64.737  1.00  0.00    -0.179 NA 
HETATM   17  H1  UNL     1      -8.149   7.806  64.080  1.00  0.00     0.000 HD 
HETATM   18  N   UNL     1      -8.737   8.263  64.776  1.00  0.00    -0.404 NA 
HETATM   19  H   UNL     1      -8.182  10.147  64.060  1.00  0.00     0.000 HD 
HETATM   20  H2  UNL     1      -9.290   7.738  65.454  1.00  0.00     0.000 HD 
ENDBRANCH   9  16
ENDBRANCH   3   6
TORSDOF 2
ENDMDL
MODEL       76
REMARK 921   NORMALIZED FREE ENERGY PREDICTED BY IDOCK:   -4.54 KCAL/MOL
REMARK 922        TOTAL FREE ENERGY PREDICTED BY IDOCK:   -5.20 KCAL/MOL
REMARK 923 INTER-LIGAND FREE ENERGY PREDICTED BY IDOCK:   -5.07 KCAL/MOL
REMARK 924 INTRA-LIGAND FREE ENERGY PREDICTED BY IDOCK:   -0.13 KCAL/MOL
REMARK 927      BINDING AFFINITY PREDICTED BY RF-SCORE:    0.00 PKD
ROOT
HETATM    1  N   UNL     1     -12.448  10.657  68.882  1.00  0.00    -0.730 NA 
HETATM    2  H2  UNL     1     -12.482  11.490  69.469  1.00  0.00     0.000 HD 
HETATM    3  N   UNL     1     -11.638  10.635  67.814  1.00  0.00    -0.662 NA 
HETATM    4  H1  UNL     1     -13.031   9.854  69.117  1.00  0.00     0.000 HD 
HETATM    5  H   UNL     1     -11.604   9.802  67.227  1.00  0.00     0.000 HD 
ENDROOT
BRANCH   3   6
HETATM    6  C   UNL     1     -10.886  11.671  67.512  1.00  0.00    -0.237 A  
HETATM    7  N   UNL     1      -9.649  11.660  68.135  1.00  0.00    -0.184 NA 
HETATM    8  N   UNL     1      -8.847  12.753  68.171  1.00  0.00    -0.192 NA 
HETATM    9  C   UNL     1      -8.886  13.690  67.162  1.00  0.00    -0.230 A  
HETATM   10  C   UNL     1     -10.131  13.755  66.342  1.00  0.00    -0.297 A  
HETATM   11  C   UNL     1     -11.169  12.827  66.576  1.00  0.00    -0.349 A  
HETATM   12  C   UNL     1     -12.394  13.040  65.928  1.00  0.00    -0.432 A  
HETATM   13  C   UNL     1     -10.283  14.784  65.400  1.00  0.00    -0.415 A  
HETATM   14  C   UNL     1     -12.547  14.078  65.000  1.00  0.00    -0.416 A  
HETATM   15  C   UNL     1     -11.488  14.932  64.718  1.00  0.00    -0.410 A  
BRANCH   9  16
HETATM   16  N   UNL     1      -7.913  14.533  66.917  1.00  0.00    -0.355 NA 
HETATM   17  H1  UNL     1      -6.136  15.176  67.624  1.00  0.00     0.000 HD 
HETATM   18  N   UNL     1      -6.893  14.520  67.815  1.00  0.00    -0.165 NA 
HETATM   19  H   UNL     1      -7.921  15.155  66.109  1.00  0.00     0.000 HD 
HETATM   20  H2  UNL     1      -6.885  13.898  68.622  1.00  0.00     0.000 HD 
ENDBRANCH   9  16
ENDBRANCH   3   6
TORSDOF 2
ENDMDL
MODEL       77
REMARK 921   NORMALIZED FREE ENERGY PREDICTED BY IDOCK:   -4.52 KCAL/MOL
REMARK 922        TOTAL FREE ENERGY PREDICTED BY IDOCK:   -5.18 KCAL/MOL
REMARK 923 INTER-LIGAND FREE ENERGY PREDICTED BY IDOCK:   -5.04 KCAL/MOL
REMARK 924 INTRA-LIGAND FREE ENERGY PREDICTED BY IDOCK:   -0.13 KCAL/MOL
REMARK 927      BINDING AFFINITY PREDICTED BY RF-SCORE:    0.00 PKD
ROOT
HETATM    1  N   UNL     1     -13.513  15.507  70.334  1.00  0.00    -0.780 NA 
HETATM    2  H2  UNL     1     -13.648  15.459  69.325  1.00  0.00     0.000 HD 
HETATM    3  N   UNL     1     -12.862  14.516  70.961  1.00  0.00    -0.334 NA 
HETATM    4  H1  UNL     1     -13.874  16.308  70.852  1.00  0.00     0.000 HD 
HETATM    5  H   UNL     1     -12.726  14.563  71.970  1.00  0.00     0.000 HD 
ENDROOT
BRANCH   3   6
HETATM    6  C   UNL     1     -12.396  13.482  70.293  1.00  0.00    -0.300 A  
HETATM    7  N   UNL     1     -11.828  13.819  69.076  1.00  0.00    -0.338 NA 
HETATM    8  N   UNL     1     -11.540  12.891  68.130  1.00  0.00    -0.315 NA 
HETATM    9  C   UNL     1     -11.226  11.597  68.483  1.00  0.00    -0.256 A  
HETATM   10  C   UNL     1     -11.698  11.123  69.817  1.00  0.00    -0.419 A  
HETATM   11  C   UNL     1     -12.369  12.018  70.677  1.00  0.00    -0.394 A  
HETATM   12  C   UNL     1     -12.969  11.491  71.830  1.00  0.00    -0.453 A  
HETATM   13  C   UNL     1     -11.535   9.774  70.167  1.00  0.00    -0.272 A  
HETATM   14  C   UNL     1     -12.817  10.140  72.168  1.00  0.00    -0.381 A  
HETATM   15  C   UNL     1     -12.081   9.290  71.352  1.00  0.00    -0.424 A  
BRANCH   9  16
HETATM   16  N   UNL     1     -10.574  10.769  67.704  1.00  0.00    -0.214 NA 
HETATM   17  H1  UNL     1      -8.788  10.487  66.807  1.00  0.00     0.000 HD 
HETATM   18  N   UNL     1      -9.296  11.131  67.414  1.00  0.00    -0.163 NA 
HETATM   19  H   UNL     1     -10.995   9.915  67.340  1.00  0.00     0.000 HD 
HETATM   20  H2  UNL     1      -8.875  11.985  67.777  1.00  0.00     0.000 HD 
ENDBRANCH   9  16
ENDBRANCH   3   6
TORSDOF 2
ENDMDL
MODEL       78
REMARK 921   NORMALIZED FREE ENERGY PREDICTED BY IDOCK:   -4.43 KCAL/MOL
REMARK 922        TOTAL FREE ENERGY PREDICTED BY IDOCK:   -5.08 KCAL/MOL
REMARK 923 INTER-LIGAND FREE ENERGY PREDICTED BY IDOCK:   -5.19 KCAL/MOL
REMARK 924 INTRA-LIGAND FREE ENERGY PREDICTED BY IDOCK:    0.11 KCAL/MOL
REMARK 927      BINDING AFFINITY PREDICTED BY RF-SCORE:    0.00 PKD
ROOT
HETATM    1  N   UNL     1     -11.891  15.368  68.437  1.00  0.00    -0.503 NA 
HETATM    2  H2  UNL     1     -10.904  15.535  68.243  1.00  0.00     0.000 HD 
HETATM    3  N   UNL     1     -12.440  14.191  68.102  1.00  0.00    -0.470 NA 
HETATM    4  H1  UNL     1     -12.445  16.098  68.885  1.00  0.00     0.000 HD 
HETATM    5  H   UNL     1     -13.427  14.024  68.297  1.00  0.00     0.000 HD 
ENDROOT
BRANCH   3   6
HETATM    6  C   UNL     1     -11.725  13.250  67.525  1.00  0.00    -0.366 A  
HETATM    7  N   UNL     1     -11.013  12.467  68.419  1.00  0.00    -0.235 NA 
HETATM    8  N   UNL     1     -10.021  11.633  68.021  1.00  0.00    -0.182 NA 
HETATM    9  C   UNL     1     -10.040  11.061  66.768  1.00  0.00    -0.220 A  
HETATM   10  C   UNL     1     -10.847  11.751  65.719  1.00  0.00    -0.341 A  
HETATM   11  C   UNL     1     -11.601  12.894  66.059  1.00  0.00    -0.424 A  
HETATM   12  C   UNL     1     -12.185  13.626  65.015  1.00  0.00    -0.450 A  
HETATM   13  C   UNL     1     -10.785  11.297  64.393  1.00  0.00    -0.407 A  
HETATM   14  C   UNL     1     -12.107  13.179  63.690  1.00  0.00    -0.583 A  
HETATM   15  C   UNL     1     -11.432  12.004  63.383  1.00  0.00    -0.489 A  
BRANCH   9  16
HETATM   16  N   UNL     1      -9.370   9.981  66.452  1.00  0.00    -0.162 NA 
HETATM   17  H1  UNL     1      -9.595   8.013  66.068  1.00  0.00     0.000 HD 
HETATM   18  N   UNL     1     -10.117   8.854  66.314  1.00  0.00    -0.359 NA 
HETATM   19  H   UNL     1      -8.358   9.985  66.321  1.00  0.00     0.000 HD 
HETATM   20  H2  UNL     1     -11.128   8.850  66.446  1.00  0.00     0.000 HD 
ENDBRANCH   9  16
ENDBRANCH   3   6
TORSDOF 2
ENDMDL
MODEL       79
REMARK 921   NORMALIZED FREE ENERGY PREDICTED BY IDOCK:   -4.42 KCAL/MOL
REMARK 922        TOTAL FREE ENERGY PREDICTED BY IDOCK:   -5.07 KCAL/MOL
REMARK 923 INTER-LIGAND FREE ENERGY PREDICTED BY IDOCK:   -4.98 KCAL/MOL
REMARK 924 INTRA-LIGAND FREE ENERGY PREDICTED BY IDOCK:   -0.10 KCAL/MOL
REMARK 927      BINDING AFFINITY PREDICTED BY RF-SCORE:    0.00 PKD
ROOT
HETATM    1  N   UNL     1     -11.655  12.101  70.282  1.00  0.00    -0.529 NA 
HETATM    2  H2  UNL     1     -12.412  11.947  70.947  1.00  0.00     0.000 HD 
HETATM    3  N   UNL     1     -10.909  11.062  69.879  1.00  0.00    -0.463 NA 
HETATM    4  H1  UNL     1     -11.477  13.043  69.933  1.00  0.00     0.000 HD 
HETATM    5  H   UNL     1     -10.152  11.216  69.214  1.00  0.00     0.000 HD 
ENDROOT
BRANCH   3   6
HETATM    6  C   UNL     1     -11.140   9.848  70.329  1.00  0.00    -0.308 A  
HETATM    7  N   UNL     1     -11.663   9.821  71.611  1.00  0.00    -0.373 NA 
HETATM    8  N   UNL     1     -11.715   8.684  72.348  1.00  0.00    -0.357 NA 
HETATM    9  C   UNL     1     -11.830   7.453  71.739  1.00  0.00    -0.294 A  
HETATM   10  C   UNL     1     -11.386   7.354  70.318  1.00  0.00    -0.244 A  
HETATM   11  C   UNL     1     -10.945   8.512  69.643  1.00  0.00    -0.093 A  
HETATM   12  C   UNL     1     -10.354   8.348  68.382  1.00  0.00    -0.239 A  
HETATM   13  C   UNL     1     -11.343   6.097  69.696  1.00  0.00    -0.442 A  
HETATM   14  C   UNL     1     -10.297   7.089  67.771  1.00  0.00    -0.255 A  
HETATM   15  C   UNL     1     -10.814   5.971  68.414  1.00  0.00    -0.361 A  
BRANCH   9  16
HETATM   16  N   UNL     1     -12.270   6.380  72.349  1.00  0.00    -0.536 NA 
HETATM   17  H1  UNL     1     -11.745   4.981  73.705  1.00  0.00     0.000 HD 
HETATM   18  N   UNL     1     -11.403   5.816  73.231  1.00  0.00    -0.486 NA 
HETATM   19  H   UNL     1     -13.198   5.995  72.174  1.00  0.00     0.000 HD 
HETATM   20  H2  UNL     1     -10.475   6.201  73.406  1.00  0.00     0.000 HD 
ENDBRANCH   9  16
ENDBRANCH   3   6
TORSDOF 2
ENDMDL
MODEL       80
REMARK 921   NORMALIZED FREE ENERGY PREDICTED BY IDOCK:   -4.42 KCAL/MOL
REMARK 922        TOTAL FREE ENERGY PREDICTED BY IDOCK:   -5.07 KCAL/MOL
REMARK 923 INTER-LIGAND FREE ENERGY PREDICTED BY IDOCK:   -4.93 KCAL/MOL
REMARK 924 INTRA-LIGAND FREE ENERGY PREDICTED BY IDOCK:   -0.14 KCAL/MOL
REMARK 927      BINDING AFFINITY PREDICTED BY RF-SCORE:    0.00 PKD
ROOT
HETATM    1  N   UNL     1     -11.669   5.320  73.118  1.00  0.00    -0.535 NA 
HETATM    2  H2  UNL     1     -11.838   5.217  72.117  1.00  0.00     0.000 HD 
HETATM    3  N   UNL     1     -11.058   6.422  73.575  1.00  0.00    -0.459 NA 
HETATM    4  H1  UNL     1     -11.969   4.582  73.755  1.00  0.00     0.000 HD 
HETATM    5  H   UNL     1     -10.889   6.524  74.576  1.00  0.00     0.000 HD 
ENDROOT
BRANCH   3   6
HETATM    6  C   UNL     1     -10.671   7.373  72.753  1.00  0.00    -0.314 A  
HETATM    7  N   UNL     1      -9.347   7.266  72.364  1.00  0.00    -0.137 NA 
HETATM    8  N   UNL     1      -8.689   8.280  71.749  1.00  0.00    -0.147 NA 
HETATM    9  C   UNL     1      -9.365   9.185  70.961  1.00  0.00    -0.263 A  
HETATM   10  C   UNL     1     -10.829   9.339  71.207  1.00  0.00    -0.417 A  
HETATM   11  C   UNL     1     -11.465   8.520  72.165  1.00  0.00    -0.446 A  
HETATM   12  C   UNL     1     -12.790   8.825  72.509  1.00  0.00    -0.380 A  
HETATM   13  C   UNL     1     -11.538  10.347  70.536  1.00  0.00    -0.433 A  
HETATM   14  C   UNL     1     -13.489   9.844  71.849  1.00  0.00    -0.467 A  
HETATM   15  C   UNL     1     -12.874  10.585  70.848  1.00  0.00    -0.485 A  
BRANCH   9  16
HETATM   16  N   UNL     1      -8.789   9.925  70.046  1.00  0.00    -0.318 NA 
HETATM   17  H1  UNL     1      -7.984   9.845  68.197  1.00  0.00     0.000 HD 
HETATM   18  N   UNL     1      -8.433   9.270  68.909  1.00  0.00    -0.127 NA 
HETATM   19  H   UNL     1      -8.618  10.921  70.178  1.00  0.00     0.000 HD 
HETATM   20  H2  UNL     1      -8.604   8.273  68.777  1.00  0.00     0.000 HD 
ENDBRANCH   9  16
ENDBRANCH   3   6
TORSDOF 2
ENDMDL
MODEL       81
REMARK 921   NORMALIZED FREE ENERGY PREDICTED BY IDOCK:   -4.40 KCAL/MOL
REMARK 922        TOTAL FREE ENERGY PREDICTED BY IDOCK:   -5.04 KCAL/MOL
REMARK 923 INTER-LIGAND FREE ENERGY PREDICTED BY IDOCK:   -4.91 KCAL/MOL
REMARK 924 INTRA-LIGAND FREE ENERGY PREDICTED BY IDOCK:   -0.13 KCAL/MOL
REMARK 927      BINDING AFFINITY PREDICTED BY RF-SCORE:    0.00 PKD
ROOT
HETATM    1  N   UNL     1     -10.403   9.081  67.239  1.00  0.00    -0.257 NA 
HETATM    2  H2  UNL     1      -9.649   9.723  66.998  1.00  0.00     0.000 HD 
HETATM    3  N   UNL     1     -11.385   9.491  68.054  1.00  0.00    -0.434 NA 
HETATM    4  H1  UNL     1     -10.399   8.136  66.854  1.00  0.00     0.000 HD 
HETATM    5  H   UNL     1     -12.140   8.849  68.295  1.00  0.00     0.000 HD 
ENDROOT
BRANCH   3   6
HETATM    6  C   UNL     1     -11.390  10.710  68.549  1.00  0.00    -0.284 A  
HETATM    7  N   UNL     1     -10.789  11.646  67.724  1.00  0.00    -0.206 NA 
HETATM    8  N   UNL     1     -10.453  12.886  68.160  1.00  0.00    -0.230 NA 
HETATM    9  C   UNL     1     -11.167  13.498  69.167  1.00  0.00    -0.260 A  
HETATM   10  C   UNL     1     -11.943  12.612  70.083  1.00  0.00    -0.375 A  
HETATM   11  C   UNL     1     -11.975  11.221  69.848  1.00  0.00    -0.440 A  
HETATM   12  C   UNL     1     -12.546  10.405  70.835  1.00  0.00    -0.478 A  
HETATM   13  C   UNL     1     -12.568  13.167  71.211  1.00  0.00    -0.382 A  
HETATM   14  C   UNL     1     -13.154  10.961  71.967  1.00  0.00    -0.462 A  
HETATM   15  C   UNL     1     -13.189  12.339  72.142  1.00  0.00    -0.466 A  
BRANCH   9  16
HETATM   16  N   UNL     1     -11.169  14.792  69.372  1.00  0.00    -0.271 NA 
HETATM   17  H1  UNL     1     -11.660  16.548  68.507  1.00  0.00     0.000 HD 
HETATM   18  N   UNL     1     -11.658  15.541  68.348  1.00  0.00    -0.367 NA 
HETATM   19  H   UNL     1     -10.829  15.208  70.238  1.00  0.00     0.000 HD 
HETATM   20  H2  UNL     1     -11.998  15.125  67.482  1.00  0.00     0.000 HD 
ENDBRANCH   9  16
ENDBRANCH   3   6
TORSDOF 2
ENDMDL
MODEL       82
REMARK 921   NORMALIZED FREE ENERGY PREDICTED BY IDOCK:   -4.39 KCAL/MOL
REMARK 922        TOTAL FREE ENERGY PREDICTED BY IDOCK:   -5.04 KCAL/MOL
REMARK 923 INTER-LIGAND FREE ENERGY PREDICTED BY IDOCK:   -4.91 KCAL/MOL
REMARK 924 INTRA-LIGAND FREE ENERGY PREDICTED BY IDOCK:   -0.13 KCAL/MOL
REMARK 927      BINDING AFFINITY PREDICTED BY RF-SCORE:    0.00 PKD
ROOT
HETATM    1  N   UNL     1      -9.404   9.749  67.571  1.00  0.00    -0.133 NA 
HETATM    2  H2  UNL     1     -10.027   8.970  67.357  1.00  0.00     0.000 HD 
HETATM    3  N   UNL     1      -9.535  10.399  68.736  1.00  0.00    -0.166 NA 
HETATM    4  H1  UNL     1      -8.689  10.020  66.895  1.00  0.00     0.000 HD 
HETATM    5  H   UNL     1      -8.912  11.178  68.949  1.00  0.00     0.000 HD 
ENDROOT
BRANCH   3   6
HETATM    6  C   UNL     1     -10.456  10.049  69.607  1.00  0.00    -0.248 A  
HETATM    7  N   UNL     1     -10.433   8.703  69.929  1.00  0.00    -0.214 NA 
HETATM    8  N   UNL     1     -11.452   8.098  70.587  1.00  0.00    -0.264 NA 
HETATM    9  C   UNL     1     -12.241   8.804  71.468  1.00  0.00    -0.327 A  
HETATM   10  C   UNL     1     -12.291  10.286  71.297  1.00  0.00    -0.506 A  
HETATM   11  C   UNL     1     -11.491  10.901  70.312  1.00  0.00    -0.391 A  
HETATM   12  C   UNL     1     -11.709  12.261  70.048  1.00  0.00    -0.319 A  
HETATM   13  C   UNL     1     -13.189  11.038  72.070  1.00  0.00    -0.447 A  
HETATM   14  C   UNL     1     -12.618  13.006  70.810  1.00  0.00    -0.321 A  
HETATM   15  C   UNL     1     -13.337  12.403  71.835  1.00  0.00    -0.450 A  
BRANCH   9  16
HETATM   16  N   UNL     1     -12.962   8.243  72.408  1.00  0.00    -0.561 NA 
HETATM   17  H1  UNL     1     -14.538   7.018  72.700  1.00  0.00     0.000 HD 
HETATM   18  N   UNL     1     -13.978   7.455  71.968  1.00  0.00    -0.564 NA 
HETATM   19  H   UNL     1     -12.773   8.388  73.400  1.00  0.00     0.000 HD 
HETATM   20  H2  UNL     1     -14.166   7.310  70.977  1.00  0.00     0.000 HD 
ENDBRANCH   9  16
ENDBRANCH   3   6
TORSDOF 2
ENDMDL
MODEL       83
REMARK 921   NORMALIZED FREE ENERGY PREDICTED BY IDOCK:   -4.35 KCAL/MOL
REMARK 922        TOTAL FREE ENERGY PREDICTED BY IDOCK:   -4.99 KCAL/MOL
REMARK 923 INTER-LIGAND FREE ENERGY PREDICTED BY IDOCK:   -4.90 KCAL/MOL
REMARK 924 INTRA-LIGAND FREE ENERGY PREDICTED BY IDOCK:   -0.09 KCAL/MOL
REMARK 927      BINDING AFFINITY PREDICTED BY RF-SCORE:    0.00 PKD
ROOT
HETATM    1  N   UNL     1      -9.794   7.042  66.203  1.00  0.00    -0.413 NA 
HETATM    2  H2  UNL     1     -10.766   7.019  66.512  1.00  0.00     0.000 HD 
HETATM    3  N   UNL     1      -9.216   8.220  65.932  1.00  0.00    -0.345 NA 
HETATM    4  H1  UNL     1      -9.278   6.167  66.107  1.00  0.00     0.000 HD 
HETATM    5  H   UNL     1      -8.244   8.243  65.624  1.00  0.00     0.000 HD 
ENDROOT
BRANCH   3   6
HETATM    6  C   UNL     1      -9.882   9.347  66.057  1.00  0.00    -0.296 A  
HETATM    7  N   UNL     1     -10.108   9.995  64.855  1.00  0.00    -0.244 NA 
HETATM    8  N   UNL     1     -10.529  11.283  64.794  1.00  0.00    -0.308 NA 
HETATM    9  C   UNL     1     -11.302  11.820  65.799  1.00  0.00    -0.250 A  
HETATM   10  C   UNL     1     -11.230  11.163  67.137  1.00  0.00    -0.320 A  
HETATM   11  C   UNL     1     -10.448  10.000  67.301  1.00  0.00    -0.313 A  
HETATM   12  C   UNL     1     -10.246   9.526  68.605  1.00  0.00    -0.215 A  
HETATM   13  C   UNL     1     -11.881  11.754  68.231  1.00  0.00    -0.340 A  
HETATM   14  C   UNL     1     -10.884  10.129  69.697  1.00  0.00    -0.299 A  
HETATM   15  C   UNL     1     -11.719  11.223  69.508  1.00  0.00    -0.415 A  
BRANCH   9  16
HETATM   16  N   UNL     1     -12.057  12.881  65.647  1.00  0.00    -0.438 NA 
HETATM   17  H1  UNL     1     -13.318  13.774  64.348  1.00  0.00     0.000 HD 
HETATM   18  N   UNL     1     -12.730  12.949  64.467  1.00  0.00    -0.705 NA 
HETATM   19  H   UNL     1     -12.135  13.603  66.362  1.00  0.00     0.000 HD 
HETATM   20  H2  UNL     1     -12.653  12.227  63.752  1.00  0.00     0.000 HD 
ENDBRANCH   9  16
ENDBRANCH   3   6
TORSDOF 2
ENDMDL
MODEL       84
REMARK 921   NORMALIZED FREE ENERGY PREDICTED BY IDOCK:   -4.33 KCAL/MOL
REMARK 922        TOTAL FREE ENERGY PREDICTED BY IDOCK:   -4.98 KCAL/MOL
REMARK 923 INTER-LIGAND FREE ENERGY PREDICTED BY IDOCK:   -4.85 KCAL/MOL
REMARK 924 INTRA-LIGAND FREE ENERGY PREDICTED BY IDOCK:   -0.12 KCAL/MOL
REMARK 927      BINDING AFFINITY PREDICTED BY RF-SCORE:    0.00 PKD
ROOT
HETATM    1  N   UNL     1      -6.461  13.872  67.265  1.00  0.00    -0.423 NA 
HETATM    2  H2  UNL     1      -6.468  12.944  67.689  1.00  0.00     0.000 HD 
HETATM    3  N   UNL     1      -7.622  14.471  66.967  1.00  0.00    -0.297 NA 
HETATM    4  H1  UNL     1      -5.569  14.329  67.076  1.00  0.00     0.000 HD 
HETATM    5  H   UNL     1      -7.614  15.399  66.543  1.00  0.00     0.000 HD 
ENDROOT
BRANCH   3   6
HETATM    6  C   UNL     1      -8.772  13.881  67.212  1.00  0.00    -0.217 A  
HETATM    7  N   UNL     1      -8.749  13.064  68.330  1.00  0.00    -0.187 NA 
HETATM    8  N   UNL     1      -9.734  12.169  68.592  1.00  0.00    -0.138 NA 
HETATM    9  C   UNL     1     -11.025  12.397  68.171  1.00  0.00    -0.228 A  
HETATM   10  C   UNL     1     -11.210  13.335  67.026  1.00  0.00    -0.319 A  
HETATM   11  C   UNL     1     -10.090  13.995  66.477  1.00  0.00    -0.287 A  
HETATM   12  C   UNL     1     -10.273  14.710  65.285  1.00  0.00    -0.421 A  
HETATM   13  C   UNL     1     -12.486  13.492  66.462  1.00  0.00    -0.309 A  
HETATM   14  C   UNL     1     -11.545  14.850  64.716  1.00  0.00    -0.410 A  
HETATM   15  C   UNL     1     -12.653  14.265  65.317  1.00  0.00    -0.405 A  
BRANCH   9  16
HETATM   16  N   UNL     1     -12.074  11.815  68.698  1.00  0.00    -0.421 NA 
HETATM   17  H1  UNL     1     -12.971  10.019  68.907  1.00  0.00     0.000 HD 
HETATM   18  N   UNL     1     -12.155  10.473  68.498  1.00  0.00    -0.790 NA 
HETATM   19  H   UNL     1     -12.781  12.332  69.221  1.00  0.00     0.000 HD 
HETATM   20  H2  UNL     1     -11.449   9.956  67.975  1.00  0.00     0.000 HD 
ENDBRANCH   9  16
ENDBRANCH   3   6
TORSDOF 2
ENDMDL
MODEL       85
REMARK 921   NORMALIZED FREE ENERGY PREDICTED BY IDOCK:   -4.31 KCAL/MOL
REMARK 922        TOTAL FREE ENERGY PREDICTED BY IDOCK:   -4.95 KCAL/MOL
REMARK 923 INTER-LIGAND FREE ENERGY PREDICTED BY IDOCK:   -4.82 KCAL/MOL
REMARK 924 INTRA-LIGAND FREE ENERGY PREDICTED BY IDOCK:   -0.13 KCAL/MOL
REMARK 927      BINDING AFFINITY PREDICTED BY RF-SCORE:    0.00 PKD
ROOT
HETATM    1  N   UNL     1     -11.367   4.523  64.974  1.00  0.00    -1.108 NA 
HETATM    2  H2  UNL     1     -12.271   4.505  65.446  1.00  0.00     0.000 HD 
HETATM    3  N   UNL     1     -10.288   4.970  65.632  1.00  0.00    -0.447 NA 
HETATM    4  H1  UNL     1     -11.298   4.201  64.008  1.00  0.00     0.000 HD 
HETATM    5  H   UNL     1      -9.384   4.988  65.160  1.00  0.00     0.000 HD 
ENDROOT
BRANCH   3   6
HETATM    6  C   UNL     1     -10.376   5.384  66.877  1.00  0.00    -0.260 A  
HETATM    7  N   UNL     1     -10.968   6.630  67.006  1.00  0.00    -0.410 NA 
HETATM    8  N   UNL     1     -10.908   7.343  68.158  1.00  0.00    -0.097 NA 
HETATM    9  C   UNL     1     -10.816   6.709  69.377  1.00  0.00    -0.292 A  
HETATM   10  C   UNL     1     -10.279   5.317  69.380  1.00  0.00    -0.321 A  
HETATM   11  C   UNL     1      -9.960   4.690  68.157  1.00  0.00    -0.127 A  
HETATM   12  C   UNL     1      -9.278   3.467  68.208  1.00  0.00    -0.234 A  
HETATM   13  C   UNL     1     -10.027   4.678  70.604  1.00  0.00    -0.293 A  
HETATM   14  C   UNL     1      -9.013   2.840  69.432  1.00  0.00    -0.171 A  
HETATM   15  C   UNL     1      -9.410   3.431  70.625  1.00  0.00    -0.232 A  
BRANCH   9  16
HETATM   16  N   UNL     1     -11.142   7.272  70.515  1.00  0.00    -0.261 NA 
HETATM   17  H1  UNL     1     -12.727   7.896  71.596  1.00  0.00     0.000 HD 
HETATM   18  N   UNL     1     -12.474   7.458  70.710  1.00  0.00    -0.564 NA 
HETATM   19  H   UNL     1     -10.445   7.552  71.205  1.00  0.00     0.000 HD 
HETATM   20  H2  UNL     1     -13.171   7.179  70.021  1.00  0.00     0.000 HD 
ENDBRANCH   9  16
ENDBRANCH   3   6
TORSDOF 2
ENDMDL
MODEL       86
REMARK 921   NORMALIZED FREE ENERGY PREDICTED BY IDOCK:   -4.30 KCAL/MOL
REMARK 922        TOTAL FREE ENERGY PREDICTED BY IDOCK:   -4.93 KCAL/MOL
REMARK 923 INTER-LIGAND FREE ENERGY PREDICTED BY IDOCK:   -4.81 KCAL/MOL
REMARK 924 INTRA-LIGAND FREE ENERGY PREDICTED BY IDOCK:   -0.12 KCAL/MOL
REMARK 927      BINDING AFFINITY PREDICTED BY RF-SCORE:    0.00 PKD
ROOT
HETATM    1  N   UNL     1     -12.499  10.394  69.446  1.00  0.00    -0.656 NA 
HETATM    2  H2  UNL     1     -13.003  11.168  69.013  1.00  0.00     0.000 HD 
HETATM    3  N   UNL     1     -11.419   9.885  68.835  1.00  0.00    -0.484 NA 
HETATM    4  H1  UNL     1     -12.824  10.020  70.337  1.00  0.00     0.000 HD 
HETATM    5  H   UNL     1     -10.915   9.111  69.268  1.00  0.00     0.000 HD 
ENDROOT
BRANCH   3   6
HETATM    6  C   UNL     1     -11.000  10.368  67.685  1.00  0.00    -0.312 A  
HETATM    7  N   UNL     1     -11.778  11.408  67.204  1.00  0.00    -0.544 NA 
HETATM    8  N   UNL     1     -11.679  11.854  65.927  1.00  0.00    -0.437 NA 
HETATM    9  C   UNL     1     -10.490  11.764  65.238  1.00  0.00    -0.274 A  
HETATM   10  C   UNL     1      -9.509  10.742  65.707  1.00  0.00    -0.244 A  
HETATM   11  C   UNL     1      -9.797   9.974  66.855  1.00  0.00    -0.248 A  
HETATM   12  C   UNL     1      -8.951   8.895  67.149  1.00  0.00    -0.141 A  
HETATM   13  C   UNL     1      -8.347  10.506  64.955  1.00  0.00    -0.140 A  
HETATM   14  C   UNL     1      -7.801   8.653  66.387  1.00  0.00    -0.099 A  
HETATM   15  C   UNL     1      -7.486   9.472  65.309  1.00  0.00    -0.107 A  
BRANCH   9  16
HETATM   16  N   UNL     1     -10.200  12.497  64.191  1.00  0.00    -0.493 NA 
HETATM   17  H1  UNL     1     -11.040  13.445  62.619  1.00  0.00     0.000 HD 
HETATM   18  N   UNL     1     -11.265  12.875  63.434  1.00  0.00    -0.633 NA 
HETATM   19  H   UNL     1      -9.244  12.764  63.959  1.00  0.00     0.000 HD 
HETATM   20  H2  UNL     1     -12.221  12.607  63.666  1.00  0.00     0.000 HD 
ENDBRANCH   9  16
ENDBRANCH   3   6
TORSDOF 2
ENDMDL
MODEL       87
REMARK 921   NORMALIZED FREE ENERGY PREDICTED BY IDOCK:   -4.27 KCAL/MOL
REMARK 922        TOTAL FREE ENERGY PREDICTED BY IDOCK:   -4.91 KCAL/MOL
REMARK 923 INTER-LIGAND FREE ENERGY PREDICTED BY IDOCK:   -4.78 KCAL/MOL
REMARK 924 INTRA-LIGAND FREE ENERGY PREDICTED BY IDOCK:   -0.12 KCAL/MOL
REMARK 927      BINDING AFFINITY PREDICTED BY RF-SCORE:    0.00 PKD
ROOT
HETATM    1  N   UNL     1     -11.776  11.210  70.552  1.00  0.00    -0.423 NA 
HETATM    2  H2  UNL     1     -11.786  10.239  70.241  1.00  0.00     0.000 HD 
HETATM    3  N   UNL     1     -11.367  12.169  69.708  1.00  0.00    -0.493 NA 
HETATM    4  H1  UNL     1     -12.078  11.437  71.499  1.00  0.00     0.000 HD 
HETATM    5  H   UNL     1     -11.357  13.140  70.019  1.00  0.00     0.000 HD 
ENDROOT
BRANCH   3   6
HETATM    6  C   UNL     1     -10.977  11.876  68.486  1.00  0.00    -0.235 A  
HETATM    7  N   UNL     1     -10.123  10.788  68.422  1.00  0.00    -0.163 NA 
HETATM    8  N   UNL     1      -9.404  10.497  67.310  1.00  0.00    -0.146 NA 
HETATM    9  C   UNL     1      -9.873  10.834  66.059  1.00  0.00    -0.235 A  
HETATM   10  C   UNL     1     -10.876  11.935  65.984  1.00  0.00    -0.342 A  
HETATM   11  C   UNL     1     -11.352  12.528  67.173  1.00  0.00    -0.381 A  
HETATM   12  C   UNL     1     -12.138  13.683  67.058  1.00  0.00    -0.423 A  
HETATM   13  C   UNL     1     -11.277  12.417  64.728  1.00  0.00    -0.353 A  
HETATM   14  C   UNL     1     -12.522  14.172  65.803  1.00  0.00    -0.490 A  
HETATM   15  C   UNL     1     -12.115  13.526  64.642  1.00  0.00    -0.450 A  
BRANCH   9  16
HETATM   16  N   UNL     1      -9.461  10.265  64.952  1.00  0.00    -0.253 NA 
HETATM   17  H1  UNL     1      -9.160   8.463  64.095  1.00  0.00     0.000 HD 
HETATM   18  N   UNL     1      -9.479   8.906  64.956  1.00  0.00    -0.395 NA 
HETATM   19  H   UNL     1      -9.150  10.804  64.145  1.00  0.00     0.000 HD 
HETATM   20  H2  UNL     1      -9.791   8.367  65.764  1.00  0.00     0.000 HD 
ENDBRANCH   9  16
ENDBRANCH   3   6
TORSDOF 2
ENDMDL
MODEL       88
REMARK 921   NORMALIZED FREE ENERGY PREDICTED BY IDOCK:   -4.24 KCAL/MOL
REMARK 922        TOTAL FREE ENERGY PREDICTED BY IDOCK:   -4.87 KCAL/MOL
REMARK 923 INTER-LIGAND FREE ENERGY PREDICTED BY IDOCK:   -4.74 KCAL/MOL
REMARK 924 INTRA-LIGAND FREE ENERGY PREDICTED BY IDOCK:   -0.13 KCAL/MOL
REMARK 927      BINDING AFFINITY PREDICTED BY RF-SCORE:    0.00 PKD
ROOT
HETATM    1  N   UNL     1     -12.005   9.385  70.487  1.00  0.00    -0.448 NA 
HETATM    2  H2  UNL     1     -12.954   9.583  70.168  1.00  0.00     0.000 HD 
HETATM    3  N   UNL     1     -10.965   9.931  69.842  1.00  0.00    -0.264 NA 
HETATM    4  H1  UNL     1     -11.864   8.776  71.293  1.00  0.00     0.000 HD 
HETATM    5  H   UNL     1     -10.016   9.734  70.161  1.00  0.00     0.000 HD 
ENDROOT
BRANCH   3   6
HETATM    6  C   UNL     1     -11.148  10.717  68.803  1.00  0.00    -0.259 A  
HETATM    7  N   UNL     1     -11.819  11.890  69.106  1.00  0.00    -0.311 NA 
HETATM    8  N   UNL     1     -12.340  12.695  68.147  1.00  0.00    -0.036 NA 
HETATM    9  C   UNL     1     -11.770  12.760  66.894  1.00  0.00    -0.380 A  
HETATM   10  C   UNL     1     -10.938  11.598  66.467  1.00  0.00    -0.349 A  
HETATM   11  C   UNL     1     -10.709  10.534  67.365  1.00  0.00    -0.334 A  
HETATM   12  C   UNL     1     -10.093   9.378  66.867  1.00  0.00    -0.314 A  
HETATM   13  C   UNL     1     -10.455  11.544  65.149  1.00  0.00    -0.340 A  
HETATM   14  C   UNL     1      -9.628   9.321  65.547  1.00  0.00    -0.291 A  
HETATM   15  C   UNL     1      -9.785  10.410  64.699  1.00  0.00    -0.392 A  
BRANCH   9  16
HETATM   16  N   UNL     1     -11.950  13.759  66.066  1.00  0.00    -0.390 NA 
HETATM   17  H1  UNL     1     -13.367  14.713  64.992  1.00  0.00     0.000 HD 
HETATM   18  N   UNL     1     -13.227  13.935  65.637  1.00  0.00    -0.629 NA 
HETATM   19  H   UNL     1     -11.185  14.362  65.764  1.00  0.00     0.000 HD 
HETATM   20  H2  UNL     1     -13.992  13.332  65.939  1.00  0.00     0.000 HD 
ENDBRANCH   9  16
ENDBRANCH   3   6
TORSDOF 2
ENDMDL
MODEL       89
REMARK 921   NORMALIZED FREE ENERGY PREDICTED BY IDOCK:   -4.22 KCAL/MOL
REMARK 922        TOTAL FREE ENERGY PREDICTED BY IDOCK:   -4.85 KCAL/MOL
REMARK 923 INTER-LIGAND FREE ENERGY PREDICTED BY IDOCK:   -4.72 KCAL/MOL
REMARK 924 INTRA-LIGAND FREE ENERGY PREDICTED BY IDOCK:   -0.13 KCAL/MOL
REMARK 927      BINDING AFFINITY PREDICTED BY RF-SCORE:    0.00 PKD
ROOT
HETATM    1  N   UNL     1     -11.811  14.710  65.592  1.00  0.00    -0.314 NA 
HETATM    2  H2  UNL     1     -12.256  14.932  66.483  1.00  0.00     0.000 HD 
HETATM    3  N   UNL     1     -11.251  13.505  65.417  1.00  0.00    -0.288 NA 
HETATM    4  H1  UNL     1     -11.798  15.409  64.849  1.00  0.00     0.000 HD 
HETATM    5  H   UNL     1     -10.805  13.283  64.527  1.00  0.00     0.000 HD 
ENDROOT
BRANCH   3   6
HETATM    6  C   UNL     1     -11.267  12.604  66.375  1.00  0.00    -0.305 A  
HETATM    7  N   UNL     1     -11.959  13.007  67.505  1.00  0.00    -0.342 NA 
HETATM    8  N   UNL     1     -11.865  12.348  68.686  1.00  0.00    -0.317 NA 
HETATM    9  C   UNL     1     -11.606  10.995  68.720  1.00  0.00    -0.318 A  
HETATM   10  C   UNL     1     -10.942  10.401  67.523  1.00  0.00    -0.358 A  
HETATM   11  C   UNL     1     -10.676  11.210  66.399  1.00  0.00    -0.303 A  
HETATM   12  C   UNL     1      -9.879  10.671  65.379  1.00  0.00    -0.325 A  
HETATM   13  C   UNL     1     -10.523   9.061  67.562  1.00  0.00    -0.338 A  
HETATM   14  C   UNL     1      -9.449   9.339  65.429  1.00  0.00    -0.281 A  
HETATM   15  C   UNL     1      -9.792   8.529  66.504  1.00  0.00    -0.342 A  
BRANCH   9  16
HETATM   16  N   UNL     1     -11.881  10.229  69.747  1.00  0.00    -0.434 NA 
HETATM   17  H1  UNL     1     -13.238   9.943  71.212  1.00  0.00     0.000 HD 
HETATM   18  N   UNL     1     -13.024  10.539  70.413  1.00  0.00    -0.459 NA 
HETATM   19  H   UNL     1     -11.279   9.455  70.027  1.00  0.00     0.000 HD 
HETATM   20  H2  UNL     1     -13.626  11.313  70.133  1.00  0.00     0.000 HD 
ENDBRANCH   9  16
ENDBRANCH   3   6
TORSDOF 2
ENDMDL
MODEL       90
REMARK 921   NORMALIZED FREE ENERGY PREDICTED BY IDOCK:   -4.19 KCAL/MOL
REMARK 922        TOTAL FREE ENERGY PREDICTED BY IDOCK:   -4.82 KCAL/MOL
REMARK 923 INTER-LIGAND FREE ENERGY PREDICTED BY IDOCK:   -4.69 KCAL/MOL
REMARK 924 INTRA-LIGAND FREE ENERGY PREDICTED BY IDOCK:   -0.12 KCAL/MOL
REMARK 927      BINDING AFFINITY PREDICTED BY RF-SCORE:    0.00 PKD
ROOT
HETATM    1  N   UNL     1     -10.142   7.900  66.806  1.00  0.00    -0.312 NA 
HETATM    2  H2  UNL     1     -10.310   7.656  67.782  1.00  0.00     0.000 HD 
HETATM    3  N   UNL     1     -10.382   9.151  66.387  1.00  0.00    -0.223 NA 
HETATM    4  H1  UNL     1      -9.792   7.189  66.164  1.00  0.00     0.000 HD 
HETATM    5  H   UNL     1     -10.214   9.395  65.411  1.00  0.00     0.000 HD 
ENDROOT
BRANCH   3   6
HETATM    6  C   UNL     1     -10.832  10.068  67.215  1.00  0.00    -0.217 A  
HETATM    7  N   UNL     1     -10.777   9.689  68.546  1.00  0.00    -0.217 NA 
HETATM    8  N   UNL     1     -11.433  10.368  69.520  1.00  0.00    -0.253 NA 
HETATM    9  C   UNL     1     -11.674  11.719  69.399  1.00  0.00    -0.341 A  
HETATM   10  C   UNL     1     -11.671  12.288  68.019  1.00  0.00    -0.417 A  
HETATM   11  C   UNL     1     -11.358  11.458  66.923  1.00  0.00    -0.284 A  
HETATM   12  C   UNL     1     -11.558  11.973  65.634  1.00  0.00    -0.356 A  
HETATM   13  C   UNL     1     -12.054  13.625  67.825  1.00  0.00    -0.325 A  
HETATM   14  C   UNL     1     -11.956  13.302  65.444  1.00  0.00    -0.432 A  
HETATM   15  C   UNL     1     -12.178  14.133  66.535  1.00  0.00    -0.463 A  
BRANCH   9  16
HETATM   16  N   UNL     1     -11.932  12.505  70.415  1.00  0.00    -0.519 NA 
HETATM   17  H1  UNL     1     -12.976  12.599  72.140  1.00  0.00     0.000 HD 
HETATM   18  N   UNL     1     -12.775  11.988  71.349  1.00  0.00    -0.335 NA 
HETATM   19  H   UNL     1     -11.530  13.438  70.500  1.00  0.00     0.000 HD 
HETATM   20  H2  UNL     1     -13.177  11.055  71.264  1.00  0.00     0.000 HD 
ENDBRANCH   9  16
ENDBRANCH   3   6
TORSDOF 2
ENDMDL
MODEL       91
REMARK 921   NORMALIZED FREE ENERGY PREDICTED BY IDOCK:   -4.19 KCAL/MOL
REMARK 922        TOTAL FREE ENERGY PREDICTED BY IDOCK:   -4.81 KCAL/MOL
REMARK 923 INTER-LIGAND FREE ENERGY PREDICTED BY IDOCK:   -4.70 KCAL/MOL
REMARK 924 INTRA-LIGAND FREE ENERGY PREDICTED BY IDOCK:   -0.11 KCAL/MOL
REMARK 927      BINDING AFFINITY PREDICTED BY RF-SCORE:    0.00 PKD
ROOT
HETATM    1  N   UNL     1     -10.256   5.617  65.806  1.00  0.00    -0.396 NA 
HETATM    2  H2  UNL     1      -9.294   5.954  65.833  1.00  0.00     0.000 HD 
HETATM    3  N   UNL     1     -11.162   6.139  66.646  1.00  0.00    -0.758 NA 
HETATM    4  H1  UNL     1     -10.515   4.889  65.140  1.00  0.00     0.000 HD 
HETATM    5  H   UNL     1     -12.124   5.802  66.619  1.00  0.00     0.000 HD 
ENDROOT
BRANCH   3   6
HETATM    6  C   UNL     1     -10.829   7.078  67.504  1.00  0.00    -0.267 A  
HETATM    7  N   UNL     1     -10.554   8.299  66.912  1.00  0.00    -0.299 NA 
HETATM    8  N   UNL     1      -9.939   9.306  67.580  1.00  0.00    -0.189 NA 
HETATM    9  C   UNL     1     -10.080   9.438  68.943  1.00  0.00    -0.190 A  
HETATM   10  C   UNL     1     -10.466   8.216  69.707  1.00  0.00    -0.227 A  
HETATM   11  C   UNL     1     -10.737   7.017  69.014  1.00  0.00    -0.234 A  
HETATM   12  C   UNL     1     -10.902   5.847  69.770  1.00  0.00    -0.447 A  
HETATM   13  C   UNL     1     -10.480   8.256  71.110  1.00  0.00    -0.254 A  
HETATM   14  C   UNL     1     -10.899   5.888  71.171  1.00  0.00    -0.334 A  
HETATM   15  C   UNL     1     -10.715   7.093  71.839  1.00  0.00    -0.243 A  
BRANCH   9  16
HETATM   16  N   UNL     1      -9.862  10.556  69.591  1.00  0.00    -0.409 NA 
HETATM   17  H1  UNL     1     -10.740  12.293  70.125  1.00  0.00     0.000 HD 
HETATM   18  N   UNL     1     -10.909  11.423  69.621  1.00  0.00    -0.456 NA 
HETATM   19  H   UNL     1      -8.971  10.762  70.042  1.00  0.00     0.000 HD 
HETATM   20  H2  UNL     1     -11.800  11.217  69.170  1.00  0.00     0.000 HD 
ENDBRANCH   9  16
ENDBRANCH   3   6
TORSDOF 2
ENDMDL
MODEL       92
REMARK 921   NORMALIZED FREE ENERGY PREDICTED BY IDOCK:   -4.16 KCAL/MOL
REMARK 922        TOTAL FREE ENERGY PREDICTED BY IDOCK:   -4.78 KCAL/MOL
REMARK 923 INTER-LIGAND FREE ENERGY PREDICTED BY IDOCK:   -4.70 KCAL/MOL
REMARK 924 INTRA-LIGAND FREE ENERGY PREDICTED BY IDOCK:   -0.08 KCAL/MOL
REMARK 927      BINDING AFFINITY PREDICTED BY RF-SCORE:    0.00 PKD
ROOT
HETATM    1  N   UNL     1      -7.445  12.165  66.379  1.00  0.00    -0.262 NA 
HETATM    2  H2  UNL     1      -7.490  12.304  65.370  1.00  0.00     0.000 HD 
HETATM    3  N   UNL     1      -8.094  13.011  67.192  1.00  0.00    -0.334 NA 
HETATM    4  H1  UNL     1      -6.907  11.384  66.755  1.00  0.00     0.000 HD 
HETATM    5  H   UNL     1      -8.049  12.872  68.201  1.00  0.00     0.000 HD 
ENDROOT
BRANCH   3   6
HETATM    6  C   UNL     1      -8.788  14.018  66.708  1.00  0.00    -0.157 A  
HETATM    7  N   UNL     1      -8.259  15.259  67.023  1.00  0.00    -0.218 NA 
HETATM    8  N   UNL     1      -8.960  16.408  66.855  1.00  0.00    -0.204 NA 
HETATM    9  C   UNL     1      -9.918  16.513  65.871  1.00  0.00    -0.317 A  
HETATM   10  C   UNL     1     -10.514  15.242  65.365  1.00  0.00    -0.422 A  
HETATM   11  C   UNL     1     -10.034  14.006  65.848  1.00  0.00    -0.325 A  
HETATM   12  C   UNL     1     -10.745  12.848  65.502  1.00  0.00    -0.301 A  
HETATM   13  C   UNL     1     -11.594  15.295  64.471  1.00  0.00    -0.312 A  
HETATM   14  C   UNL     1     -11.834  12.907  64.623  1.00  0.00    -0.422 A  
HETATM   15  C   UNL     1     -12.241  14.123  64.088  1.00  0.00    -0.423 A  
BRANCH   9  16
HETATM   16  N   UNL     1     -10.345  17.655  65.392  1.00  0.00    -0.570 NA 
HETATM   17  H1  UNL     1     -10.828  19.538  65.936  1.00  0.00     0.000 HD 
HETATM   18  N   UNL     1     -10.496  18.648  66.308  1.00  0.00    -0.434 NA 
HETATM   19  H   UNL     1     -10.551  17.790  64.402  1.00  0.00     0.000 HD 
HETATM   20  H2  UNL     1     -10.291  18.514  67.298  1.00  0.00     0.000 HD 
ENDBRANCH   9  16
ENDBRANCH   3   6
TORSDOF 2
ENDMDL
MODEL       93
REMARK 921   NORMALIZED FREE ENERGY PREDICTED BY IDOCK:   -4.16 KCAL/MOL
REMARK 922        TOTAL FREE ENERGY PREDICTED BY IDOCK:   -4.78 KCAL/MOL
REMARK 923 INTER-LIGAND FREE ENERGY PREDICTED BY IDOCK:   -4.70 KCAL/MOL
REMARK 924 INTRA-LIGAND FREE ENERGY PREDICTED BY IDOCK:   -0.08 KCAL/MOL
REMARK 927      BINDING AFFINITY PREDICTED BY RF-SCORE:    0.00 PKD
ROOT
HETATM    1  N   UNL     1     -11.215  10.454  70.933  1.00  0.00    -0.357 NA 
HETATM    2  H2  UNL     1     -10.304  10.672  70.529  1.00  0.00     0.000 HD 
HETATM    3  N   UNL     1     -12.233  11.311  70.769  1.00  0.00    -0.377 NA 
HETATM    4  H1  UNL     1     -11.337   9.587  71.456  1.00  0.00     0.000 HD 
HETATM    5  H   UNL     1     -13.143  11.093  71.173  1.00  0.00     0.000 HD 
ENDROOT
BRANCH   3   6
HETATM    6  C   UNL     1     -12.075  12.429  70.094  1.00  0.00    -0.290 A  
HETATM    7  N   UNL     1     -12.238  13.569  70.863  1.00  0.00    -0.347 NA 
HETATM    8  N   UNL     1     -12.385  14.799  70.312  1.00  0.00    -0.331 NA 
HETATM    9  C   UNL     1     -11.814  15.100  69.095  1.00  0.00    -0.313 A  
HETATM   10  C   UNL     1     -11.495  13.955  68.193  1.00  0.00    -0.346 A  
HETATM   11  C   UNL     1     -11.718  12.634  68.637  1.00  0.00    -0.364 A  
HETATM   12  C   UNL     1     -11.595  11.600  67.699  1.00  0.00    -0.349 A  
HETATM   13  C   UNL     1     -11.050  14.210  66.887  1.00  0.00    -0.312 A  
HETATM   14  C   UNL     1     -11.166  11.860  66.391  1.00  0.00    -0.387 A  
HETATM   15  C   UNL     1     -10.869  13.158  65.994  1.00  0.00    -0.287 A  
BRANCH   9  16
HETATM   16  N   UNL     1     -11.572  16.322  68.688  1.00  0.00    -0.304 NA 
HETATM   17  H1  UNL     1     -10.370  17.909  69.016  1.00  0.00     0.000 HD 
HETATM   18  N   UNL     1     -10.558  16.958  69.332  1.00  0.00    -0.335 NA 
HETATM   19  H   UNL     1     -12.108  16.765  67.942  1.00  0.00     0.000 HD 
HETATM   20  H2  UNL     1     -10.023  16.516  70.078  1.00  0.00     0.000 HD 
ENDBRANCH   9  16
ENDBRANCH   3   6
TORSDOF 2
ENDMDL
MODEL       94
REMARK 921   NORMALIZED FREE ENERGY PREDICTED BY IDOCK:   -4.16 KCAL/MOL
REMARK 922        TOTAL FREE ENERGY PREDICTED BY IDOCK:   -4.78 KCAL/MOL
REMARK 923 INTER-LIGAND FREE ENERGY PREDICTED BY IDOCK:   -4.65 KCAL/MOL
REMARK 924 INTRA-LIGAND FREE ENERGY PREDICTED BY IDOCK:   -0.13 KCAL/MOL
REMARK 927      BINDING AFFINITY PREDICTED BY RF-SCORE:    0.00 PKD
ROOT
HETATM    1  N   UNL     1      -6.834   7.850  70.213  1.00  0.00    -0.038 NA 
HETATM    2  H2  UNL     1      -7.440   7.227  69.679  1.00  0.00     0.000 HD 
HETATM    3  N   UNL     1      -7.312   9.024  70.649  1.00  0.00    -0.085 NA 
HETATM    4  H1  UNL     1      -5.873   7.568  70.408  1.00  0.00     0.000 HD 
HETATM    5  H   UNL     1      -6.706   9.646  71.183  1.00  0.00     0.000 HD 
ENDROOT
BRANCH   3   6
HETATM    6  C   UNL     1      -8.551   9.386  70.398  1.00  0.00    -0.230 A  
HETATM    7  N   UNL     1      -8.680  10.177  69.268  1.00  0.00    -0.168 NA 
HETATM    8  N   UNL     1      -9.814  10.869  68.995  1.00  0.00    -0.202 NA 
HETATM    9  C   UNL     1     -11.041  10.410  69.421  1.00  0.00    -0.254 A  
HETATM   10  C   UNL     1     -11.049   9.471  70.580  1.00  0.00    -0.364 A  
HETATM   11  C   UNL     1      -9.826   9.040  71.137  1.00  0.00    -0.371 A  
HETATM   12  C   UNL     1      -9.873   8.320  72.340  1.00  0.00    -0.375 A  
HETATM   13  C   UNL     1     -12.274   9.088  71.149  1.00  0.00    -0.331 A  
HETATM   14  C   UNL     1     -11.098   7.954  72.913  1.00  0.00    -0.442 A  
HETATM   15  C   UNL     1     -12.294   8.315  72.306  1.00  0.00    -0.410 A  
BRANCH   9  16
HETATM   16  N   UNL     1     -12.180  10.780  68.888  1.00  0.00    -0.795 NA 
HETATM   17  H1  UNL     1     -12.963  11.790  67.327  1.00  0.00     0.000 HD 
HETATM   18  N   UNL     1     -12.077  11.502  67.742  1.00  0.00    -0.587 NA 
HETATM   19  H   UNL     1     -13.080  10.542  69.305  1.00  0.00     0.000 HD 
HETATM   20  H2  UNL     1     -11.177  11.740  67.325  1.00  0.00     0.000 HD 
ENDBRANCH   9  16
ENDBRANCH   3   6
TORSDOF 2
ENDMDL
MODEL       95
REMARK 921   NORMALIZED FREE ENERGY PREDICTED BY IDOCK:   -4.16 KCAL/MOL
REMARK 922        TOTAL FREE ENERGY PREDICTED BY IDOCK:   -4.78 KCAL/MOL
REMARK 923 INTER-LIGAND FREE ENERGY PREDICTED BY IDOCK:   -4.66 KCAL/MOL
REMARK 924 INTRA-LIGAND FREE ENERGY PREDICTED BY IDOCK:   -0.12 KCAL/MOL
REMARK 927      BINDING AFFINITY PREDICTED BY RF-SCORE:    0.00 PKD
ROOT
HETATM    1  N   UNL     1     -12.832  11.754  63.058  1.00  0.00    -0.884 NA 
HETATM    2  H2  UNL     1     -12.919  10.901  63.611  1.00  0.00     0.000 HD 
HETATM    3  N   UNL     1     -11.958  12.699  63.434  1.00  0.00    -0.633 NA 
HETATM    4  H1  UNL     1     -13.412  11.874  62.228  1.00  0.00     0.000 HD 
HETATM    5  H   UNL     1     -11.871  13.551  62.880  1.00  0.00     0.000 HD 
ENDROOT
BRANCH   3   6
HETATM    6  C   UNL     1     -11.210  12.543  64.505  1.00  0.00    -0.325 A  
HETATM    7  N   UNL     1     -11.108  11.227  64.923  1.00  0.00    -0.177 NA 
HETATM    8  N   UNL     1     -10.617  10.891  66.142  1.00  0.00    -0.237 NA 
HETATM    9  C   UNL     1      -9.683  11.685  66.770  1.00  0.00    -0.201 A  
HETATM   10  C   UNL     1      -9.616  13.116  66.351  1.00  0.00    -0.259 A  
HETATM   11  C   UNL     1     -10.441  13.575  65.302  1.00  0.00    -0.345 A  
HETATM   12  C   UNL     1     -10.495  14.956  65.069  1.00  0.00    -0.429 A  
HETATM   13  C   UNL     1      -8.787  14.002  67.056  1.00  0.00    -0.234 A  
HETATM   14  C   UNL     1      -9.678  15.840  65.787  1.00  0.00    -0.372 A  
HETATM   15  C   UNL     1      -8.808  15.362  66.759  1.00  0.00    -0.300 A  
BRANCH   9  16
HETATM   16  N   UNL     1      -8.889  11.259  67.722  1.00  0.00    -0.138 NA 
HETATM   17  H1  UNL     1      -8.392   9.608  68.771  1.00  0.00     0.000 HD 
HETATM   18  N   UNL     1      -9.009   9.940  68.031  1.00  0.00    -0.122 NA 
HETATM   19  H   UNL     1      -8.228  11.872  68.197  1.00  0.00     0.000 HD 
HETATM   20  H2  UNL     1      -9.670   9.327  67.555  1.00  0.00     0.000 HD 
ENDBRANCH   9  16
ENDBRANCH   3   6
TORSDOF 2
ENDMDL
MODEL       96
REMARK 921   NORMALIZED FREE ENERGY PREDICTED BY IDOCK:   -4.15 KCAL/MOL
REMARK 922        TOTAL FREE ENERGY PREDICTED BY IDOCK:   -4.77 KCAL/MOL
REMARK 923 INTER-LIGAND FREE ENERGY PREDICTED BY IDOCK:   -4.65 KCAL/MOL
REMARK 924 INTRA-LIGAND FREE ENERGY PREDICTED BY IDOCK:   -0.12 KCAL/MOL
REMARK 927      BINDING AFFINITY PREDICTED BY RF-SCORE:    0.00 PKD
ROOT
HETATM    1  N   UNL     1     -10.145   7.469  66.261  1.00  0.00    -0.463 NA 
HETATM    2  H2  UNL     1     -10.601   6.758  66.831  1.00  0.00     0.000 HD 
HETATM    3  N   UNL     1     -10.044   8.723  66.725  1.00  0.00    -0.269 NA 
HETATM    4  H1  UNL     1      -9.772   7.216  65.346  1.00  0.00     0.000 HD 
HETATM    5  H   UNL     1      -9.587   9.435  66.155  1.00  0.00     0.000 HD 
ENDROOT
BRANCH   3   6
HETATM    6  C   UNL     1     -10.525   9.049  67.905  1.00  0.00    -0.234 A  
HETATM    7  N   UNL     1     -10.404   8.045  68.851  1.00  0.00    -0.211 NA 
HETATM    8  N   UNL     1     -11.071   8.078  70.031  1.00  0.00    -0.205 NA 
HETATM    9  C   UNL     1     -11.400   9.278  70.622  1.00  0.00    -0.275 A  
HETATM   10  C   UNL     1     -11.477  10.474  69.733  1.00  0.00    -0.365 A  
HETATM   11  C   UNL     1     -11.147  10.350  68.367  1.00  0.00    -0.322 A  
HETATM   12  C   UNL     1     -11.419  11.439  67.527  1.00  0.00    -0.336 A  
HETATM   13  C   UNL     1     -11.950  11.689  70.253  1.00  0.00    -0.445 A  
HETATM   14  C   UNL     1     -11.907  12.645  68.047  1.00  0.00    -0.376 A  
HETATM   15  C   UNL     1     -12.147  12.779  69.409  1.00  0.00    -0.248 A  
BRANCH   9  16
HETATM   16  N   UNL     1     -11.676   9.408  71.897  1.00  0.00    -0.363 NA 
HETATM   17  H1  UNL     1     -12.409   8.405  73.486  1.00  0.00     0.000 HD 
HETATM   18  N   UNL     1     -12.195   8.303  72.494  1.00  0.00    -0.536 NA 
HETATM   19  H   UNL     1     -11.512  10.278  72.404  1.00  0.00     0.000 HD 
HETATM   20  H2  UNL     1     -12.358   7.434  71.987  1.00  0.00     0.000 HD 
ENDBRANCH   9  16
ENDBRANCH   3   6
TORSDOF 2
ENDMDL
MODEL       97
REMARK 921   NORMALIZED FREE ENERGY PREDICTED BY IDOCK:   -4.15 KCAL/MOL
REMARK 922        TOTAL FREE ENERGY PREDICTED BY IDOCK:   -4.76 KCAL/MOL
REMARK 923 INTER-LIGAND FREE ENERGY PREDICTED BY IDOCK:   -4.64 KCAL/MOL
REMARK 924 INTRA-LIGAND FREE ENERGY PREDICTED BY IDOCK:   -0.12 KCAL/MOL
REMARK 927      BINDING AFFINITY PREDICTED BY RF-SCORE:    0.00 PKD
ROOT
HETATM    1  N   UNL     1     -12.554  14.135  63.091  1.00  0.00    -0.911 NA 
HETATM    2  H2  UNL     1     -12.244  15.022  63.489  1.00  0.00     0.000 HD 
HETATM    3  N   UNL     1     -12.158  12.985  63.654  1.00  0.00    -0.571 NA 
HETATM    4  H1  UNL     1     -13.161  14.138  62.272  1.00  0.00     0.000 HD 
HETATM    5  H   UNL     1     -12.467  12.098  63.256  1.00  0.00     0.000 HD 
ENDROOT
BRANCH   3   6
HETATM    6  C   UNL     1     -11.375  12.982  64.711  1.00  0.00    -0.317 A  
HETATM    7  N   UNL     1     -11.453  14.142  65.463  1.00  0.00    -0.317 NA 
HETATM    8  N   UNL     1     -10.544  14.446  66.422  1.00  0.00    -0.292 NA 
HETATM    9  C   UNL     1      -9.886  13.452  67.112  1.00  0.00    -0.237 A  
HETATM   10  C   UNL     1      -9.803  12.113  66.459  1.00  0.00    -0.232 A  
HETATM   11  C   UNL     1     -10.448  11.899  65.222  1.00  0.00    -0.317 A  
HETATM   12  C   UNL     1     -10.186  10.698  64.547  1.00  0.00    -0.399 A  
HETATM   13  C   UNL     1      -9.022  11.106  67.048  1.00  0.00    -0.156 A  
HETATM   14  C   UNL     1      -9.392   9.702  65.131  1.00  0.00    -0.322 A  
HETATM   15  C   UNL     1      -8.833   9.895  66.388  1.00  0.00    -0.159 A  
BRANCH   9  16
HETATM   16  N   UNL     1      -9.314  13.633  68.277  1.00  0.00    -0.204 NA 
HETATM   17  H1  UNL     1      -9.027  15.013  69.721  1.00  0.00     0.000 HD 
HETATM   18  N   UNL     1      -9.472  14.871  68.815  1.00  0.00    -0.210 NA 
HETATM   19  H   UNL     1      -8.786  12.898  68.746  1.00  0.00     0.000 HD 
HETATM   20  H2  UNL     1     -10.000  15.607  68.346  1.00  0.00     0.000 HD 
ENDBRANCH   9  16
ENDBRANCH   3   6
TORSDOF 2
ENDMDL
MODEL       98
REMARK 921   NORMALIZED FREE ENERGY PREDICTED BY IDOCK:   -4.14 KCAL/MOL
REMARK 922        TOTAL FREE ENERGY PREDICTED BY IDOCK:   -4.76 KCAL/MOL
REMARK 923 INTER-LIGAND FREE ENERGY PREDICTED BY IDOCK:   -4.63 KCAL/MOL
REMARK 924 INTRA-LIGAND FREE ENERGY PREDICTED BY IDOCK:   -0.13 KCAL/MOL
REMARK 927      BINDING AFFINITY PREDICTED BY RF-SCORE:    0.00 PKD
ROOT
HETATM    1  N   UNL     1      -9.922  10.299  70.058  1.00  0.00    -0.420 NA 
HETATM    2  H2  UNL     1     -10.312  11.126  70.511  1.00  0.00     0.000 HD 
HETATM    3  N   UNL     1      -9.802  10.273  68.723  1.00  0.00    -0.172 NA 
HETATM    4  H1  UNL     1      -9.629   9.506  70.628  1.00  0.00     0.000 HD 
HETATM    5  H   UNL     1      -9.411   9.447  68.270  1.00  0.00     0.000 HD 
ENDROOT
BRANCH   3   6
HETATM    6  C   UNL     1     -10.179  11.297  67.989  1.00  0.00    -0.183 A  
HETATM    7  N   UNL     1     -11.477  11.192  67.516  1.00  0.00    -0.510 NA 
HETATM    8  N   UNL     1     -11.956  11.995  66.534  1.00  0.00    -0.601 NA 
HETATM    9  C   UNL     1     -11.470  13.273  66.366  1.00  0.00    -0.329 A  
HETATM   10  C   UNL     1     -10.110  13.559  66.912  1.00  0.00    -0.256 A  
HETATM   11  C   UNL     1      -9.420  12.556  67.626  1.00  0.00    -0.188 A  
HETATM   12  C   UNL     1      -8.077  12.791  67.950  1.00  0.00    -0.159 A  
HETATM   13  C   UNL     1      -9.506  14.797  66.642  1.00  0.00    -0.293 A  
HETATM   14  C   UNL     1      -7.472  14.022  67.664  1.00  0.00    -0.186 A  
HETATM   15  C   UNL     1      -8.192  15.031  67.036  1.00  0.00    -0.246 A  
BRANCH   9  16
HETATM   16  N   UNL     1     -12.118  14.220  65.734  1.00  0.00    -0.407 NA 
HETATM   17  H1  UNL     1     -13.748  14.556  64.592  1.00  0.00     0.000 HD 
HETATM   18  N   UNL     1     -13.243  13.819  65.085  1.00  0.00    -0.682 NA 
HETATM   19  H   UNL     1     -11.801  15.189  65.729  1.00  0.00     0.000 HD 
HETATM   20  H2  UNL     1     -13.560  12.850  65.090  1.00  0.00     0.000 HD 
ENDBRANCH   9  16
ENDBRANCH   3   6
TORSDOF 2
ENDMDL
MODEL       99
REMARK 921   NORMALIZED FREE ENERGY PREDICTED BY IDOCK:   -4.13 KCAL/MOL
REMARK 922        TOTAL FREE ENERGY PREDICTED BY IDOCK:   -4.75 KCAL/MOL
REMARK 923 INTER-LIGAND FREE ENERGY PREDICTED BY IDOCK:   -4.61 KCAL/MOL
REMARK 924 INTRA-LIGAND FREE ENERGY PREDICTED BY IDOCK:   -0.13 KCAL/MOL
REMARK 927      BINDING AFFINITY PREDICTED BY RF-SCORE:    0.00 PKD
ROOT
HETATM    1  N   UNL     1     -12.362  15.060  69.212  1.00  0.00    -0.578 NA 
HETATM    2  H2  UNL     1     -11.632  14.464  69.602  1.00  0.00     0.000 HD 
HETATM    3  N   UNL     1     -12.020  16.174  68.549  1.00  0.00    -0.261 NA 
HETATM    4  H1  UNL     1     -13.341  14.799  69.332  1.00  0.00     0.000 HD 
HETATM    5  H   UNL     1     -12.749  16.771  68.159  1.00  0.00     0.000 HD 
ENDROOT
BRANCH   3   6
HETATM    6  C   UNL     1     -10.757  16.510  68.395  1.00  0.00    -0.339 A  
HETATM    7  N   UNL     1      -9.868  15.546  68.837  1.00  0.00    -0.207 NA 
HETATM    8  N   UNL     1      -8.549  15.805  69.016  1.00  0.00    -0.219 NA 
HETATM    9  C   UNL     1      -7.908  16.759  68.257  1.00  0.00    -0.194 A  
HETATM   10  C   UNL     1      -8.758  17.817  67.637  1.00  0.00    -0.244 A  
HETATM   11  C   UNL     1     -10.160  17.761  67.786  1.00  0.00    -0.345 A  
HETATM   12  C   UNL     1     -10.906  18.870  67.362  1.00  0.00    -0.449 A  
HETATM   13  C   UNL     1      -8.145  18.894  66.977  1.00  0.00    -0.272 A  
HETATM   14  C   UNL     1     -10.290  19.951  66.719  1.00  0.00    -0.599 A  
HETATM   15  C   UNL     1      -8.917  19.951  66.504  1.00  0.00    -0.442 A  
BRANCH   9  16
HETATM   16  N   UNL     1      -6.609  16.798  68.086  1.00  0.00    -0.141 NA 
HETATM   17  H1  UNL     1      -5.091  15.864  67.140  1.00  0.00     0.000 HD 
HETATM   18  N   UNL     1      -6.101  15.834  67.274  1.00  0.00    -0.324 NA 
HETATM   19  H   UNL     1      -6.021  17.502  68.531  1.00  0.00     0.000 HD 
HETATM   20  H2  UNL     1      -6.690  15.130  66.829  1.00  0.00     0.000 HD 
ENDBRANCH   9  16
ENDBRANCH   3   6
TORSDOF 2
ENDMDL
MODEL      100
REMARK 921   NORMALIZED FREE ENERGY PREDICTED BY IDOCK:   -4.10 KCAL/MOL
REMARK 922        TOTAL FREE ENERGY PREDICTED BY IDOCK:   -4.71 KCAL/MOL
REMARK 923 INTER-LIGAND FREE ENERGY PREDICTED BY IDOCK:   -4.58 KCAL/MOL
REMARK 924 INTRA-LIGAND FREE ENERGY PREDICTED BY IDOCK:   -0.13 KCAL/MOL
REMARK 927      BINDING AFFINITY PREDICTED BY RF-SCORE:    0.00 PKD
ROOT
HETATM    1  N   UNL     1      -6.910  14.632  67.112  1.00  0.00    -0.362 NA 
HETATM    2  H2  UNL     1      -7.127  13.886  66.451  1.00  0.00     0.000 HD 
HETATM    3  N   UNL     1      -7.780  14.921  68.091  1.00  0.00    -0.109 NA 
HETATM    4  H1  UNL     1      -6.034  15.147  67.019  1.00  0.00     0.000 HD 
HETATM    5  H   UNL     1      -7.564  15.667  68.752  1.00  0.00     0.000 HD 
ENDROOT
BRANCH   3   6
HETATM    6  C   UNL     1      -8.910  14.257  68.211  1.00  0.00    -0.185 A  
HETATM    7  N   UNL     1      -8.949  13.090  67.467  1.00  0.00    -0.183 NA 
HETATM    8  N   UNL     1     -10.103  12.413  67.242  1.00  0.00    -0.208 NA 
HETATM    9  C   UNL     1     -11.135  12.456  68.153  1.00  0.00    -0.247 A  
HETATM   10  C   UNL     1     -11.169  13.619  69.087  1.00  0.00    -0.309 A  
HETATM   11  C   UNL     1     -10.128  14.571  69.054  1.00  0.00    -0.187 A  
HETATM   12  C   UNL     1     -10.292  15.746  69.801  1.00  0.00    -0.307 A  
HETATM   13  C   UNL     1     -12.274  13.790  69.935  1.00  0.00    -0.383 A  
HETATM   14  C   UNL     1     -11.405  15.920  70.634  1.00  0.00    -0.421 A  
HETATM   15  C   UNL     1     -12.380  14.934  70.720  1.00  0.00    -0.392 A  
BRANCH   9  16
HETATM   16  N   UNL     1     -12.088  11.558  68.213  1.00  0.00    -0.575 NA 
HETATM   17  H1  UNL     1     -12.415   9.567  68.172  1.00  0.00     0.000 HD 
HETATM   18  N   UNL     1     -11.674  10.266  68.125  1.00  0.00    -0.714 NA 
HETATM   19  H   UNL     1     -13.070  11.811  68.319  1.00  0.00     0.000 HD 
HETATM   20  H2  UNL     1     -10.692  10.014  68.019  1.00  0.00     0.000 HD 
ENDBRANCH   9  16
ENDBRANCH   3   6
TORSDOF 2
ENDMDL
MODEL      101
REMARK 921   NORMALIZED FREE ENERGY PREDICTED BY IDOCK:   -4.08 KCAL/MOL
REMARK 922        TOTAL FREE ENERGY PREDICTED BY IDOCK:   -4.69 KCAL/MOL
REMARK 923 INTER-LIGAND FREE ENERGY PREDICTED BY IDOCK:   -4.57 KCAL/MOL
REMARK 924 INTRA-LIGAND FREE ENERGY PREDICTED BY IDOCK:   -0.12 KCAL/MOL
REMARK 927      BINDING AFFINITY PREDICTED BY RF-SCORE:    0.00 PKD
ROOT
HETATM    1  N   UNL     1     -11.042   5.114  65.860  1.00  0.00    -0.803 NA 
HETATM    2  H2  UNL     1     -11.667   4.638  66.510  1.00  0.00     0.000 HD 
HETATM    3  N   UNL     1     -10.430   6.244  66.241  1.00  0.00    -0.456 NA 
HETATM    4  H1  UNL     1     -10.892   4.723  64.930  1.00  0.00     0.000 HD 
HETATM    5  H   UNL     1      -9.804   6.721  65.591  1.00  0.00     0.000 HD 
ENDROOT
BRANCH   3   6
HETATM    6  C   UNL     1     -10.623   6.748  67.441  1.00  0.00    -0.302 A  
HETATM    7  N   UNL     1     -10.959   5.801  68.393  1.00  0.00    -0.181 NA 
HETATM    8  N   UNL     1     -11.457   6.141  69.608  1.00  0.00    -0.391 NA 
HETATM    9  C   UNL     1     -11.122   7.339  70.198  1.00  0.00    -0.258 A  
HETATM   10  C   UNL     1     -10.651   8.431  69.297  1.00  0.00    -0.193 A  
HETATM   11  C   UNL     1     -10.499   8.180  67.916  1.00  0.00    -0.259 A  
HETATM   12  C   UNL     1     -10.247   9.275  67.077  1.00  0.00    -0.331 A  
HETATM   13  C   UNL     1     -10.436   9.715  69.823  1.00  0.00    -0.263 A  
HETATM   14  C   UNL     1     -10.050  10.557  67.604  1.00  0.00    -0.211 A  
HETATM   15  C   UNL     1     -10.118  10.772  68.975  1.00  0.00    -0.225 A  
BRANCH   9  16
HETATM   16  N   UNL     1     -11.227   7.570  71.483  1.00  0.00    -0.240 NA 
HETATM   17  H1  UNL     1     -12.433   7.261  73.071  1.00  0.00     0.000 HD 
HETATM   18  N   UNL     1     -12.351   7.081  72.071  1.00  0.00    -0.456 NA 
HETATM   19  H   UNL     1     -10.517   8.082  72.006  1.00  0.00     0.000 HD 
HETATM   20  H2  UNL     1     -13.062   6.570  71.548  1.00  0.00     0.000 HD 
ENDBRANCH   9  16
ENDBRANCH   3   6
TORSDOF 2
ENDMDL
MODEL      102
REMARK 921   NORMALIZED FREE ENERGY PREDICTED BY IDOCK:   -4.06 KCAL/MOL
REMARK 922        TOTAL FREE ENERGY PREDICTED BY IDOCK:   -4.67 KCAL/MOL
REMARK 923 INTER-LIGAND FREE ENERGY PREDICTED BY IDOCK:   -4.56 KCAL/MOL
REMARK 924 INTRA-LIGAND FREE ENERGY PREDICTED BY IDOCK:   -0.11 KCAL/MOL
REMARK 927      BINDING AFFINITY PREDICTED BY RF-SCORE:    0.00 PKD
ROOT
HETATM    1  N   UNL     1      -9.826  19.876  66.914  1.00  0.00    -0.384 NA 
HETATM    2  H2  UNL     1     -10.815  19.641  66.997  1.00  0.00     0.000 HD 
HETATM    3  N   UNL     1      -8.936  18.905  66.659  1.00  0.00    -0.313 NA 
HETATM    4  H1  UNL     1      -9.529  20.845  67.024  1.00  0.00     0.000 HD 
HETATM    5  H   UNL     1      -7.947  19.140  66.575  1.00  0.00     0.000 HD 
ENDROOT
BRANCH   3   6
HETATM    6  C   UNL     1      -9.319  17.655  66.517  1.00  0.00    -0.272 A  
HETATM    7  N   UNL     1     -10.045  17.426  65.360  1.00  0.00    -0.443 NA 
HETATM    8  N   UNL     1     -10.752  16.286  65.163  1.00  0.00    -0.604 NA 
HETATM    9  C   UNL     1     -10.356  15.101  65.743  1.00  0.00    -0.339 A  
HETATM   10  C   UNL     1      -9.488  15.194  66.953  1.00  0.00    -0.253 A  
HETATM   11  C   UNL     1      -9.055  16.458  67.405  1.00  0.00    -0.206 A  
HETATM   12  C   UNL     1      -8.410  16.522  68.649  1.00  0.00    -0.235 A  
HETATM   13  C   UNL     1      -9.177  14.027  67.669  1.00  0.00    -0.194 A  
HETATM   14  C   UNL     1      -8.115  15.357  69.368  1.00  0.00    -0.249 A  
HETATM   15  C   UNL     1      -8.474  14.112  68.868  1.00  0.00     0.002 A  
BRANCH   9  16
HETATM   16  N   UNL     1     -10.727  13.921  65.310  1.00  0.00    -0.325 NA 
HETATM   17  H1  UNL     1     -10.267  12.496  63.956  1.00  0.00     0.000 HD 
HETATM   18  N   UNL     1      -9.980  13.415  64.294  1.00  0.00    -0.746 NA 
HETATM   19  H   UNL     1     -11.520  13.418  65.707  1.00  0.00     0.000 HD 
HETATM   20  H2  UNL     1      -9.186  13.918  63.897  1.00  0.00     0.000 HD 
ENDBRANCH   9  16
ENDBRANCH   3   6
TORSDOF 2
ENDMDL
MODEL      103
REMARK 921   NORMALIZED FREE ENERGY PREDICTED BY IDOCK:   -4.06 KCAL/MOL
REMARK 922        TOTAL FREE ENERGY PREDICTED BY IDOCK:   -4.67 KCAL/MOL
REMARK 923 INTER-LIGAND FREE ENERGY PREDICTED BY IDOCK:   -4.53 KCAL/MOL
REMARK 924 INTRA-LIGAND FREE ENERGY PREDICTED BY IDOCK:   -0.14 KCAL/MOL
REMARK 927      BINDING AFFINITY PREDICTED BY RF-SCORE:    0.00 PKD
ROOT
HETATM    1  N   UNL     1      -5.316  18.409  68.870  1.00  0.00    -0.190 NA 
HETATM    2  H2  UNL     1      -4.992  18.327  67.907  1.00  0.00     0.000 HD 
HETATM    3  N   UNL     1      -6.597  18.143  69.162  1.00  0.00    -0.256 NA 
HETATM    4  H1  UNL     1      -4.659  18.692  69.598  1.00  0.00     0.000 HD 
HETATM    5  H   UNL     1      -6.921  18.225  70.125  1.00  0.00     0.000 HD 
ENDROOT
BRANCH   3   6
HETATM    6  C   UNL     1      -7.444  17.778  68.223  1.00  0.00    -0.247 A  
HETATM    7  N   UNL     1      -7.299  16.459  67.828  1.00  0.00    -0.131 NA 
HETATM    8  N   UNL     1      -7.879  15.972  66.703  1.00  0.00    -0.249 NA 
HETATM    9  C   UNL     1      -9.059  16.505  66.231  1.00  0.00    -0.313 A  
HETATM   10  C   UNL     1      -9.393  17.896  66.653  1.00  0.00    -0.293 A  
HETATM   11  C   UNL     1      -8.546  18.573  67.557  1.00  0.00    -0.272 A  
HETATM   12  C   UNL     1      -8.781  19.938  67.776  1.00  0.00    -0.377 A  
HETATM   13  C   UNL     1     -10.504  18.540  66.087  1.00  0.00    -0.447 A  
HETATM   14  C   UNL     1      -9.882  20.581  67.196  1.00  0.00    -0.567 A  
HETATM   15  C   UNL     1     -10.756  19.878  66.376  1.00  0.00    -0.440 A  
BRANCH   9  16
HETATM   16  N   UNL     1      -9.868  15.871  65.418  1.00  0.00    -0.424 NA 
HETATM   17  H1  UNL     1     -10.710  14.068  65.082  1.00  0.00     0.000 HD 
HETATM   18  N   UNL     1     -10.080  14.561  65.715  1.00  0.00    -0.325 NA 
HETATM   19  H   UNL     1     -10.306  16.327  64.618  1.00  0.00     0.000 HD 
HETATM   20  H2  UNL     1      -9.641  14.105  66.514  1.00  0.00     0.000 HD 
ENDBRANCH   9  16
ENDBRANCH   3   6
TORSDOF 2
ENDMDL
MODEL      104
REMARK 921   NORMALIZED FREE ENERGY PREDICTED BY IDOCK:   -4.05 KCAL/MOL
REMARK 922        TOTAL FREE ENERGY PREDICTED BY IDOCK:   -4.66 KCAL/MOL
REMARK 923 INTER-LIGAND FREE ENERGY PREDICTED BY IDOCK:   -4.53 KCAL/MOL
REMARK 924 INTRA-LIGAND FREE ENERGY PREDICTED BY IDOCK:   -0.13 KCAL/MOL
REMARK 927      BINDING AFFINITY PREDICTED BY RF-SCORE:    0.00 PKD
ROOT
HETATM    1  N   UNL     1     -12.010  12.305  70.662  1.00  0.00    -0.503 NA 
HETATM    2  H2  UNL     1     -11.016  12.186  70.464  1.00  0.00     0.000 HD 
HETATM    3  N   UNL     1     -12.629  13.431  70.282  1.00  0.00    -0.180 NA 
HETATM    4  H1  UNL     1     -12.517  11.563  71.146  1.00  0.00     0.000 HD 
HETATM    5  H   UNL     1     -13.623  13.550  70.479  1.00  0.00     0.000 HD 
ENDROOT
BRANCH   3   6
HETATM    6  C   UNL     1     -11.975  14.387  69.657  1.00  0.00    -0.336 A  
HETATM    7  N   UNL     1     -11.472  15.360  70.505  1.00  0.00    -0.296 NA 
HETATM    8  N   UNL     1     -11.011  16.550  70.047  1.00  0.00    -0.322 NA 
HETATM    9  C   UNL     1     -10.462  16.658  68.788  1.00  0.00    -0.324 A  
HETATM   10  C   UNL     1     -10.845  15.617  67.790  1.00  0.00    -0.307 A  
HETATM   11  C   UNL     1     -11.676  14.546  68.182  1.00  0.00    -0.369 A  
HETATM   12  C   UNL     1     -12.173  13.702  67.178  1.00  0.00    -0.340 A  
HETATM   13  C   UNL     1     -10.434  15.758  66.455  1.00  0.00    -0.304 A  
HETATM   14  C   UNL     1     -11.773  13.857  65.844  1.00  0.00    -0.372 A  
HETATM   15  C   UNL     1     -10.886  14.865  65.488  1.00  0.00    -0.365 A  
BRANCH   9  16
HETATM   16  N   UNL     1      -9.663  17.630  68.425  1.00  0.00    -0.305 NA 
HETATM   17  H1  UNL     1      -7.755  18.272  68.571  1.00  0.00     0.000 HD 
HETATM   18  N   UNL     1      -8.378  17.515  68.853  1.00  0.00    -0.205 NA 
HETATM   19  H   UNL     1      -9.982  18.418  67.861  1.00  0.00     0.000 HD 
HETATM   20  H2  UNL     1      -8.059  16.728  69.417  1.00  0.00     0.000 HD 
ENDBRANCH   9  16
ENDBRANCH   3   6
TORSDOF 2
ENDMDL
MODEL      105
REMARK 921   NORMALIZED FREE ENERGY PREDICTED BY IDOCK:   -4.04 KCAL/MOL
REMARK 922        TOTAL FREE ENERGY PREDICTED BY IDOCK:   -4.65 KCAL/MOL
REMARK 923 INTER-LIGAND FREE ENERGY PREDICTED BY IDOCK:   -4.54 KCAL/MOL
REMARK 924 INTRA-LIGAND FREE ENERGY PREDICTED BY IDOCK:   -0.11 KCAL/MOL
REMARK 927      BINDING AFFINITY PREDICTED BY RF-SCORE:    0.00 PKD
ROOT
HETATM    1  N   UNL     1      -9.935  11.833  65.941  1.00  0.00    -0.229 NA 
HETATM    2  H2  UNL     1     -10.669  12.286  65.397  1.00  0.00     0.000 HD 
HETATM    3  N   UNL     1      -9.644  12.289  67.168  1.00  0.00    -0.196 NA 
HETATM    4  H1  UNL     1      -9.433  11.039  65.543  1.00  0.00     0.000 HD 
HETATM    5  H   UNL     1      -8.910  11.835  67.711  1.00  0.00     0.000 HD 
ENDROOT
BRANCH   3   6
HETATM    6  C   UNL     1     -10.292  13.312  67.681  1.00  0.00    -0.230 A  
HETATM    7  N   UNL     1     -11.176  12.962  68.688  1.00  0.00    -0.263 NA 
HETATM    8  N   UNL     1     -12.122  13.816  69.150  1.00  0.00    -0.352 NA 
HETATM    9  C   UNL     1     -11.917  15.178  69.123  1.00  0.00    -0.274 A  
HETATM   10  C   UNL     1     -10.916  15.694  68.143  1.00  0.00    -0.314 A  
HETATM   11  C   UNL     1     -10.182  14.786  67.352  1.00  0.00    -0.236 A  
HETATM   12  C   UNL     1      -9.401  15.309  66.311  1.00  0.00    -0.345 A  
HETATM   13  C   UNL     1     -10.774  17.080  67.969  1.00  0.00    -0.365 A  
HETATM   14  C   UNL     1      -9.274  16.692  66.130  1.00  0.00    -0.312 A  
HETATM   15  C   UNL     1      -9.938  17.575  66.973  1.00  0.00    -0.311 A  
BRANCH   9  16
HETATM   16  N   UNL     1     -12.570  16.026  69.878  1.00  0.00    -0.550 NA 
HETATM   17  H1  UNL     1     -12.681  16.732  71.765  1.00  0.00     0.000 HD 
HETATM   18  N   UNL     1     -12.172  16.072  71.177  1.00  0.00    -0.560 NA 
HETATM   19  H   UNL     1     -13.324  16.610  69.517  1.00  0.00     0.000 HD 
HETATM   20  H2  UNL     1     -11.419  15.488  71.538  1.00  0.00     0.000 HD 
ENDBRANCH   9  16
ENDBRANCH   3   6
TORSDOF 2
ENDMDL
MODEL      106
REMARK 921   NORMALIZED FREE ENERGY PREDICTED BY IDOCK:   -4.04 KCAL/MOL
REMARK 922        TOTAL FREE ENERGY PREDICTED BY IDOCK:   -4.65 KCAL/MOL
REMARK 923 INTER-LIGAND FREE ENERGY PREDICTED BY IDOCK:   -4.51 KCAL/MOL
REMARK 924 INTRA-LIGAND FREE ENERGY PREDICTED BY IDOCK:   -0.13 KCAL/MOL
REMARK 927      BINDING AFFINITY PREDICTED BY RF-SCORE:    0.00 PKD
ROOT
HETATM    1  N   UNL     1     -11.946  16.200  71.317  1.00  0.00    -0.601 NA 
HETATM    2  H2  UNL     1     -12.424  16.715  70.578  1.00  0.00     0.000 HD 
HETATM    3  N   UNL     1     -11.207  15.127  71.003  1.00  0.00    -0.475 NA 
HETATM    4  H1  UNL     1     -12.038  16.511  72.285  1.00  0.00     0.000 HD 
HETATM    5  H   UNL     1     -10.729  14.612  71.743  1.00  0.00     0.000 HD 
ENDROOT
BRANCH   3   6
HETATM    6  C   UNL     1     -11.089  14.727  69.756  1.00  0.00    -0.258 A  
HETATM    7  N   UNL     1     -11.992  13.738  69.402  1.00  0.00    -0.332 NA 
HETATM    8  N   UNL     1     -11.859  13.010  68.266  1.00  0.00    -0.349 NA 
HETATM    9  C   UNL     1     -11.247  13.543  67.153  1.00  0.00    -0.305 A  
HETATM   10  C   UNL     1     -10.311  14.684  67.374  1.00  0.00    -0.241 A  
HETATM   11  C   UNL     1     -10.146  15.209  68.674  1.00  0.00    -0.222 A  
HETATM   12  C   UNL     1      -9.119  16.142  68.876  1.00  0.00    -0.246 A  
HETATM   13  C   UNL     1      -9.550  15.169  66.299  1.00  0.00    -0.325 A  
HETATM   14  C   UNL     1      -8.351  16.612  67.804  1.00  0.00    -0.184 A  
HETATM   15  C   UNL     1      -8.583  16.147  66.515  1.00  0.00    -0.341 A  
BRANCH   9  16
HETATM   16  N   UNL     1     -11.420  13.083  65.938  1.00  0.00    -0.323 NA 
HETATM   17  H1  UNL     1     -11.304  11.398  64.834  1.00  0.00     0.000 HD 
HETATM   18  N   UNL     1     -11.169  11.757  65.779  1.00  0.00    -0.311 NA 
HETATM   19  H   UNL     1     -11.722  13.678  65.167  1.00  0.00     0.000 HD 
HETATM   20  H2  UNL     1     -10.867  11.162  66.550  1.00  0.00     0.000 HD 
ENDBRANCH   9  16
ENDBRANCH   3   6
TORSDOF 2
ENDMDL
MODEL      107
REMARK 921   NORMALIZED FREE ENERGY PREDICTED BY IDOCK:   -4.01 KCAL/MOL
REMARK 922        TOTAL FREE ENERGY PREDICTED BY IDOCK:   -4.61 KCAL/MOL
REMARK 923 INTER-LIGAND FREE ENERGY PREDICTED BY IDOCK:   -4.49 KCAL/MOL
REMARK 924 INTRA-LIGAND FREE ENERGY PREDICTED BY IDOCK:   -0.12 KCAL/MOL
REMARK 927      BINDING AFFINITY PREDICTED BY RF-SCORE:    0.00 PKD
ROOT
HETATM    1  N   UNL     1      -7.318   9.329  71.792  1.00  0.00    -0.315 NA 
HETATM    2  H2  UNL     1      -7.361   8.360  72.109  1.00  0.00     0.000 HD 
HETATM    3  N   UNL     1      -8.140   9.742  70.816  1.00  0.00    -0.389 NA 
HETATM    4  H1  UNL     1      -6.650   9.968  72.222  1.00  0.00     0.000 HD 
HETATM    5  H   UNL     1      -8.096  10.710  70.499  1.00  0.00     0.000 HD 
ENDROOT
BRANCH   3   6
HETATM    6  C   UNL     1      -9.001   8.917  70.262  1.00  0.00    -0.183 A  
HETATM    7  N   UNL     1      -8.616   8.472  69.008  1.00  0.00    -0.129 NA 
HETATM    8  N   UNL     1      -9.475   7.844  68.168  1.00  0.00    -0.146 NA 
HETATM    9  C   UNL     1     -10.522   7.096  68.658  1.00  0.00    -0.197 A  
HETATM   10  C   UNL     1     -10.987   7.405  70.042  1.00  0.00    -0.264 A  
HETATM   11  C   UNL     1     -10.307   8.377  70.806  1.00  0.00    -0.228 A  
HETATM   12  C   UNL     1     -10.887   8.780  72.017  1.00  0.00    -0.428 A  
HETATM   13  C   UNL     1     -12.141   6.778  70.537  1.00  0.00    -0.332 A  
HETATM   14  C   UNL     1     -12.048   8.164  72.500  1.00  0.00    -0.377 A  
HETATM   15  C   UNL     1     -12.659   7.148  71.775  1.00  0.00    -0.381 A  
BRANCH   9  16
HETATM   16  N   UNL     1     -11.138   6.168  67.968  1.00  0.00    -0.359 NA 
HETATM   17  H1  UNL     1     -11.991   5.808  66.175  1.00  0.00     0.000 HD 
HETATM   18  N   UNL     1     -11.511   6.530  66.712  1.00  0.00    -0.760 NA 
HETATM   19  H   UNL     1     -11.325   5.240  68.346  1.00  0.00     0.000 HD 
HETATM   20  H2  UNL     1     -11.325   7.459  66.334  1.00  0.00     0.000 HD 
ENDBRANCH   9  16
ENDBRANCH   3   6
TORSDOF 2
ENDMDL
MODEL      108
REMARK 921   NORMALIZED FREE ENERGY PREDICTED BY IDOCK:   -4.01 KCAL/MOL
REMARK 922        TOTAL FREE ENERGY PREDICTED BY IDOCK:   -4.61 KCAL/MOL
REMARK 923 INTER-LIGAND FREE ENERGY PREDICTED BY IDOCK:   -4.89 KCAL/MOL
REMARK 924 INTRA-LIGAND FREE ENERGY PREDICTED BY IDOCK:    0.28 KCAL/MOL
REMARK 927      BINDING AFFINITY PREDICTED BY RF-SCORE:    0.00 PKD
ROOT
HETATM    1  N   UNL     1     -11.211  16.391  68.408  1.00  0.00    -0.361 NA 
HETATM    2  H2  UNL     1     -11.986  15.738  68.519  1.00  0.00     0.000 HD 
HETATM    3  N   UNL     1     -10.382  16.260  67.362  1.00  0.00    -0.280 NA 
HETATM    4  H1  UNL     1     -11.079  17.135  69.093  1.00  0.00     0.000 HD 
HETATM    5  H   UNL     1      -9.607  16.914  67.251  1.00  0.00     0.000 HD 
ENDROOT
BRANCH   3   6
HETATM    6  C   UNL     1     -10.553  15.301  66.478  1.00  0.00    -0.304 A  
HETATM    7  N   UNL     1     -11.243  15.705  65.348  1.00  0.00    -0.238 NA 
HETATM    8  N   UNL     1     -11.752  14.819  64.456  1.00  0.00    -0.409 NA 
HETATM    9  C   UNL     1     -11.158  13.592  64.262  1.00  0.00    -0.315 A  
HETATM   10  C   UNL     1     -10.304  13.069  65.368  1.00  0.00    -0.313 A  
HETATM   11  C   UNL     1     -10.083  13.862  66.513  1.00  0.00    -0.286 A  
HETATM   12  C   UNL     1      -9.444  13.265  67.609  1.00  0.00    -0.211 A  
HETATM   13  C   UNL     1      -9.794  11.763  65.286  1.00  0.00    -0.267 A  
HETATM   14  C   UNL     1      -8.951  11.956  67.530  1.00  0.00    -0.171 A  
HETATM   15  C   UNL     1      -9.102  11.217  66.363  1.00  0.00    -0.198 A  
BRANCH   9  16
HETATM   16  N   UNL     1     -11.331  12.863  63.186  1.00  0.00    -0.720 NA 
HETATM   17  H1  UNL     1     -12.249  11.197  62.513  1.00  0.00     0.000 HD 
HETATM   18  N   UNL     1     -12.114  11.765  63.350  1.00  0.00    -0.816 NA 
HETATM   19  H   UNL     1     -10.907  13.103  62.290  1.00  0.00     0.000 HD 
HETATM   20  H2  UNL     1     -12.538  11.525  64.246  1.00  0.00     0.000 HD 
ENDBRANCH   9  16
ENDBRANCH   3   6
TORSDOF 2
ENDMDL
MODEL      109
REMARK 921   NORMALIZED FREE ENERGY PREDICTED BY IDOCK:   -3.97 KCAL/MOL
REMARK 922        TOTAL FREE ENERGY PREDICTED BY IDOCK:   -4.57 KCAL/MOL
REMARK 923 INTER-LIGAND FREE ENERGY PREDICTED BY IDOCK:   -4.45 KCAL/MOL
REMARK 924 INTRA-LIGAND FREE ENERGY PREDICTED BY IDOCK:   -0.12 KCAL/MOL
REMARK 927      BINDING AFFINITY PREDICTED BY RF-SCORE:    0.00 PKD
ROOT
HETATM    1  N   UNL     1     -11.172   6.330  66.731  1.00  0.00    -0.746 NA 
HETATM    2  H2  UNL     1     -12.084   6.394  67.183  1.00  0.00     0.000 HD 
HETATM    3  N   UNL     1     -10.225   7.232  67.025  1.00  0.00    -0.251 NA 
HETATM    4  H1  UNL     1     -10.996   5.581  66.062  1.00  0.00     0.000 HD 
HETATM    5  H   UNL     1      -9.313   7.168  66.573  1.00  0.00     0.000 HD 
ENDROOT
BRANCH   3   6
HETATM    6  C   UNL     1     -10.453   8.198  67.889  1.00  0.00    -0.197 A  
HETATM    7  N   UNL     1     -10.640   9.436  67.299  1.00  0.00    -0.265 NA 
HETATM    8  N   UNL     1     -10.617  10.589  68.013  1.00  0.00    -0.197 NA 
HETATM    9  C   UNL     1     -11.000  10.607  69.336  1.00  0.00    -0.255 A  
HETATM   10  C   UNL     1     -10.937   9.315  70.079  1.00  0.00    -0.254 A  
HETATM   11  C   UNL     1     -10.568   8.136  69.397  1.00  0.00    -0.206 A  
HETATM   12  C   UNL     1     -10.329   6.986  70.163  1.00  0.00    -0.213 A  
HETATM   13  C   UNL     1     -11.174   9.303  71.462  1.00  0.00    -0.457 A  
HETATM   14  C   UNL     1     -10.550   6.982  71.546  1.00  0.00    -0.232 A  
HETATM   15  C   UNL     1     -10.996   8.130  72.190  1.00  0.00    -0.372 A  
BRANCH   9  16
HETATM   16  N   UNL     1     -11.377  11.692  69.968  1.00  0.00    -0.499 NA 
HETATM   17  H1  UNL     1     -12.156  13.529  69.669  1.00  0.00     0.000 HD 
HETATM   18  N   UNL     1     -11.863  12.685  69.177  1.00  0.00    -0.307 NA 
HETATM   19  H   UNL     1     -11.310  11.784  70.981  1.00  0.00     0.000 HD 
HETATM   20  H2  UNL     1     -11.930  12.593  68.164  1.00  0.00     0.000 HD 
ENDBRANCH   9  16
ENDBRANCH   3   6
TORSDOF 2
ENDMDL
MODEL      110
REMARK 921   NORMALIZED FREE ENERGY PREDICTED BY IDOCK:   -3.95 KCAL/MOL
REMARK 922        TOTAL FREE ENERGY PREDICTED BY IDOCK:   -4.54 KCAL/MOL
REMARK 923 INTER-LIGAND FREE ENERGY PREDICTED BY IDOCK:   -4.45 KCAL/MOL
REMARK 924 INTRA-LIGAND FREE ENERGY PREDICTED BY IDOCK:   -0.09 KCAL/MOL
REMARK 927      BINDING AFFINITY PREDICTED BY RF-SCORE:    0.00 PKD
ROOT
HETATM    1  N   UNL     1      -6.561   8.613  72.840  1.00  0.00    -0.244 NA 
HETATM    2  H2  UNL     1      -6.564   8.358  71.852  1.00  0.00     0.000 HD 
HETATM    3  N   UNL     1      -7.688   8.489  73.557  1.00  0.00    -0.381 NA 
HETATM    4  H1  UNL     1      -5.702   8.958  73.267  1.00  0.00     0.000 HD 
HETATM    5  H   UNL     1      -7.685   8.744  74.544  1.00  0.00     0.000 HD 
ENDROOT
BRANCH   3   6
HETATM    6  C   UNL     1      -8.796   8.045  73.006  1.00  0.00    -0.239 A  
HETATM    7  N   UNL     1      -9.273   8.853  71.987  1.00  0.00    -0.386 NA 
HETATM    8  N   UNL     1     -10.525   8.720  71.484  1.00  0.00    -0.274 NA 
HETATM    9  C   UNL     1     -11.160   7.498  71.485  1.00  0.00    -0.236 A  
HETATM   10  C   UNL     1     -10.686   6.487  72.475  1.00  0.00    -0.255 A  
HETATM   11  C   UNL     1      -9.584   6.786  73.304  1.00  0.00    -0.184 A  
HETATM   12  C   UNL     1      -9.293   5.899  74.350  1.00  0.00    -0.154 A  
HETATM   13  C   UNL     1     -11.390   5.282  72.620  1.00  0.00    -0.296 A  
HETATM   14  C   UNL     1     -10.009   4.705  74.502  1.00  0.00    -0.236 A  
HETATM   15  C   UNL     1     -11.037   4.385  73.624  1.00  0.00    -0.361 A  
BRANCH   9  16
HETATM   16  N   UNL     1     -12.163   7.200  70.695  1.00  0.00    -0.571 NA 
HETATM   17  H1  UNL     1     -12.595   6.527  68.843  1.00  0.00     0.000 HD 
HETATM   18  N   UNL     1     -11.815   6.759  69.457  1.00  0.00    -0.633 NA 
HETATM   19  H   UNL     1     -13.135   7.293  70.989  1.00  0.00     0.000 HD 
HETATM   20  H2  UNL     1     -10.843   6.666  69.164  1.00  0.00     0.000 HD 
ENDBRANCH   9  16
ENDBRANCH   3   6
TORSDOF 2
ENDMDL
MODEL      111
REMARK 921   NORMALIZED FREE ENERGY PREDICTED BY IDOCK:   -3.93 KCAL/MOL
REMARK 922        TOTAL FREE ENERGY PREDICTED BY IDOCK:   -4.52 KCAL/MOL
REMARK 923 INTER-LIGAND FREE ENERGY PREDICTED BY IDOCK:   -4.43 KCAL/MOL
REMARK 924 INTRA-LIGAND FREE ENERGY PREDICTED BY IDOCK:   -0.09 KCAL/MOL
REMARK 927      BINDING AFFINITY PREDICTED BY RF-SCORE:    0.00 PKD
ROOT
HETATM    1  N   UNL     1      -6.936   9.663  71.269  1.00  0.00    -0.328 NA 
HETATM    2  H2  UNL     1      -6.735   8.831  71.824  1.00  0.00     0.000 HD 
HETATM    3  N   UNL     1      -8.156   9.821  70.734  1.00  0.00    -0.389 NA 
HETATM    4  H1  UNL     1      -6.207  10.363  71.131  1.00  0.00     0.000 HD 
HETATM    5  H   UNL     1      -8.357  10.653  70.180  1.00  0.00     0.000 HD 
ENDROOT
BRANCH   3   6
HETATM    6  C   UNL     1      -9.096   8.920  70.914  1.00  0.00    -0.230 A  
HETATM    7  N   UNL     1      -9.651   8.942  72.182  1.00  0.00    -0.322 NA 
HETATM    8  N   UNL     1     -10.430   7.934  72.649  1.00  0.00    -0.293 NA 
HETATM    9  C   UNL     1     -11.189   7.172  71.789  1.00  0.00    -0.246 A  
HETATM   10  C   UNL     1     -10.760   7.130  70.361  1.00  0.00    -0.255 A  
HETATM   11  C   UNL     1      -9.662   7.909  69.939  1.00  0.00    -0.176 A  
HETATM   12  C   UNL     1      -9.167   7.695  68.644  1.00  0.00    -0.141 A  
HETATM   13  C   UNL     1     -11.407   6.257  69.473  1.00  0.00    -0.475 A  
HETATM   14  C   UNL     1      -9.806   6.810  67.766  1.00  0.00    -0.148 A  
HETATM   15  C   UNL     1     -10.938   6.113  68.170  1.00  0.00    -0.398 A  
BRANCH   9  16
HETATM   16  N   UNL     1     -12.231   6.472  72.166  1.00  0.00    -0.492 NA 
HETATM   17  H1  UNL     1     -14.220   6.603  72.478  1.00  0.00     0.000 HD 
HETATM   18  N   UNL     1     -13.409   7.148  72.185  1.00  0.00    -0.533 NA 
HETATM   19  H   UNL     1     -12.161   5.489  72.428  1.00  0.00     0.000 HD 
HETATM   20  H2  UNL     1     -13.479   8.131  71.923  1.00  0.00     0.000 HD 
ENDBRANCH   9  16
ENDBRANCH   3   6
TORSDOF 2
ENDMDL
MODEL      112
REMARK 921   NORMALIZED FREE ENERGY PREDICTED BY IDOCK:   -3.92 KCAL/MOL
REMARK 922        TOTAL FREE ENERGY PREDICTED BY IDOCK:   -4.52 KCAL/MOL
REMARK 923 INTER-LIGAND FREE ENERGY PREDICTED BY IDOCK:   -4.39 KCAL/MOL
REMARK 924 INTRA-LIGAND FREE ENERGY PREDICTED BY IDOCK:   -0.12 KCAL/MOL
REMARK 927      BINDING AFFINITY PREDICTED BY RF-SCORE:    0.00 PKD
ROOT
HETATM    1  N   UNL     1     -10.606  19.691  66.162  1.00  0.00    -0.493 NA 
HETATM    2  H2  UNL     1     -11.081  18.844  66.475  1.00  0.00     0.000 HD 
HETATM    3  N   UNL     1      -9.268  19.755  66.213  1.00  0.00    -0.384 NA 
HETATM    4  H1  UNL     1     -11.157  20.477  65.816  1.00  0.00     0.000 HD 
HETATM    5  H   UNL     1      -8.793  20.602  65.900  1.00  0.00     0.000 HD 
ENDROOT
BRANCH   3   6
HETATM    6  C   UNL     1      -8.557  18.741  66.659  1.00  0.00    -0.302 A  
HETATM    7  N   UNL     1      -8.680  17.596  65.890  1.00  0.00    -0.520 NA 
HETATM    8  N   UNL     1      -8.253  16.384  66.323  1.00  0.00    -0.329 NA 
HETATM    9  C   UNL     1      -7.198  16.280  67.202  1.00  0.00    -0.208 A  
HETATM   10  C   UNL     1      -6.889  17.478  68.037  1.00  0.00    -0.190 A  
HETATM   11  C   UNL     1      -7.624  18.668  67.849  1.00  0.00    -0.264 A  
HETATM   12  C   UNL     1      -7.443  19.702  68.778  1.00  0.00    -0.364 A  
HETATM   13  C   UNL     1      -5.923  17.381  69.050  1.00  0.00    -0.198 A  
HETATM   14  C   UNL     1      -6.489  19.595  69.798  1.00  0.00    -0.355 A  
HETATM   15  C   UNL     1      -5.713  18.449  69.918  1.00  0.00    -0.242 A  
BRANCH   9  16
HETATM   16  N   UNL     1      -6.488  15.190  67.359  1.00  0.00    -0.310 NA 
HETATM   17  H1  UNL     1      -6.487  13.211  66.966  1.00  0.00     0.000 HD 
HETATM   18  N   UNL     1      -7.039  14.059  66.844  1.00  0.00    -0.235 NA 
HETATM   19  H   UNL     1      -5.586  15.189  67.835  1.00  0.00     0.000 HD 
HETATM   20  H2  UNL     1      -7.941  14.060  66.368  1.00  0.00     0.000 HD 
ENDBRANCH   9  16
ENDBRANCH   3   6
TORSDOF 2
ENDMDL
MODEL      113
REMARK 921   NORMALIZED FREE ENERGY PREDICTED BY IDOCK:   -3.91 KCAL/MOL
REMARK 922        TOTAL FREE ENERGY PREDICTED BY IDOCK:   -4.50 KCAL/MOL
REMARK 923 INTER-LIGAND FREE ENERGY PREDICTED BY IDOCK:   -4.37 KCAL/MOL
REMARK 924 INTRA-LIGAND FREE ENERGY PREDICTED BY IDOCK:   -0.13 KCAL/MOL
REMARK 927      BINDING AFFINITY PREDICTED BY RF-SCORE:    0.00 PKD
ROOT
HETATM    1  N   UNL     1     -12.778   8.305  72.518  1.00  0.00    -0.582 NA 
HETATM    2  H2  UNL     1     -13.574   8.612  71.959  1.00  0.00     0.000 HD 
HETATM    3  N   UNL     1     -11.547   8.339  71.989  1.00  0.00    -0.315 NA 
HETATM    4  H1  UNL     1     -12.932   7.976  73.472  1.00  0.00     0.000 HD 
HETATM    5  H   UNL     1     -10.751   8.031  72.549  1.00  0.00     0.000 HD 
ENDROOT
BRANCH   3   6
HETATM    6  C   UNL     1     -11.348   8.762  70.760  1.00  0.00    -0.272 A  
HETATM    7  N   UNL     1     -11.441  10.137  70.625  1.00  0.00    -0.326 NA 
HETATM    8  N   UNL     1     -11.539  10.741  69.415  1.00  0.00    -0.287 NA 
HETATM    9  C   UNL     1     -10.977  10.170  68.294  1.00  0.00    -0.248 A  
HETATM   10  C   UNL     1     -10.733   8.699  68.332  1.00  0.00    -0.098 A  
HETATM   11  C   UNL     1     -11.010   7.976  69.511  1.00  0.00    -0.062 A  
HETATM   12  C   UNL     1     -10.957   6.576  69.448  1.00  0.00    -0.395 A  
HETATM   13  C   UNL     1     -10.301   8.042  67.169  1.00  0.00    -0.395 A  
HETATM   14  C   UNL     1     -10.541   5.923  68.280  1.00  0.00    -0.310 A  
HETATM   15  C   UNL     1     -10.189   6.655  67.153  1.00  0.00    -0.275 A  
BRANCH   9  16
HETATM   16  N   UNL     1     -10.685  10.841  67.207  1.00  0.00    -0.257 NA 
HETATM   17  H1  UNL     1     -11.324  12.361  66.044  1.00  0.00     0.000 HD 
HETATM   18  N   UNL     1     -11.551  11.839  66.890  1.00  0.00    -0.548 NA 
HETATM   19  H   UNL     1      -9.867  10.628  66.638  1.00  0.00     0.000 HD 
HETATM   20  H2  UNL     1     -12.370  12.052  67.459  1.00  0.00     0.000 HD 
ENDBRANCH   9  16
ENDBRANCH   3   6
TORSDOF 2
ENDMDL
MODEL      114
REMARK 921   NORMALIZED FREE ENERGY PREDICTED BY IDOCK:   -3.91 KCAL/MOL
REMARK 922        TOTAL FREE ENERGY PREDICTED BY IDOCK:   -4.50 KCAL/MOL
REMARK 923 INTER-LIGAND FREE ENERGY PREDICTED BY IDOCK:   -4.37 KCAL/MOL
REMARK 924 INTRA-LIGAND FREE ENERGY PREDICTED BY IDOCK:   -0.12 KCAL/MOL
REMARK 927      BINDING AFFINITY PREDICTED BY RF-SCORE:    0.00 PKD
ROOT
HETATM    1  N   UNL     1      -5.354  17.107  66.208  1.00  0.00    -0.351 NA 
HETATM    2  H2  UNL     1      -5.377  16.781  67.174  1.00  0.00     0.000 HD 
HETATM    3  N   UNL     1      -6.406  17.773  65.710  1.00  0.00    -0.215 NA 
HETATM    4  H1  UNL     1      -4.530  16.922  65.636  1.00  0.00     0.000 HD 
HETATM    5  H   UNL     1      -6.382  18.099  64.744  1.00  0.00     0.000 HD 
ENDROOT
BRANCH   3   6
HETATM    6  C   UNL     1      -7.468  18.012  66.448  1.00  0.00    -0.262 A  
HETATM    7  N   UNL     1      -7.545  19.318  66.903  1.00  0.00    -0.234 NA 
HETATM    8  N   UNL     1      -8.401  19.693  67.885  1.00  0.00    -0.308 NA 
HETATM    9  C   UNL     1      -9.595  19.032  68.071  1.00  0.00    -0.328 A  
HETATM   10  C   UNL     1      -9.689  17.639  67.546  1.00  0.00    -0.280 A  
HETATM   11  C   UNL     1      -8.603  17.088  66.833  1.00  0.00    -0.250 A  
HETATM   12  C   UNL     1      -8.647  15.719  66.529  1.00  0.00    -0.343 A  
HETATM   13  C   UNL     1     -10.826  16.869  67.835  1.00  0.00    -0.310 A  
HETATM   14  C   UNL     1      -9.777  14.950  66.834  1.00  0.00    -0.248 A  
HETATM   15  C   UNL     1     -10.874  15.528  67.461  1.00  0.00    -0.306 A  
BRANCH   9  16
HETATM   16  N   UNL     1     -10.621  19.549  68.702  1.00  0.00    -0.439 NA 
HETATM   17  H1  UNL     1     -11.143  20.474  70.418  1.00  0.00     0.000 HD 
HETATM   18  N   UNL     1     -10.345  20.072  69.926  1.00  0.00    -0.501 NA 
HETATM   19  H   UNL     1     -11.559  19.558  68.304  1.00  0.00     0.000 HD 
HETATM   20  H2  UNL     1      -9.406  20.063  70.325  1.00  0.00     0.000 HD 
ENDBRANCH   9  16
ENDBRANCH   3   6
TORSDOF 2
ENDMDL
MODEL      115
REMARK 921   NORMALIZED FREE ENERGY PREDICTED BY IDOCK:   -3.90 KCAL/MOL
REMARK 922        TOTAL FREE ENERGY PREDICTED BY IDOCK:   -4.49 KCAL/MOL
REMARK 923 INTER-LIGAND FREE ENERGY PREDICTED BY IDOCK:   -4.34 KCAL/MOL
REMARK 924 INTRA-LIGAND FREE ENERGY PREDICTED BY IDOCK:   -0.14 KCAL/MOL
REMARK 927      BINDING AFFINITY PREDICTED BY RF-SCORE:    0.00 PKD
ROOT
HETATM    1  N   UNL     1     -12.639  14.676  69.063  1.00  0.00    -0.501 NA 
HETATM    2  H2  UNL     1     -12.372  14.030  69.807  1.00  0.00     0.000 HD 
HETATM    3  N   UNL     1     -12.201  14.462  67.814  1.00  0.00    -0.624 NA 
HETATM    4  H1  UNL     1     -13.236  15.473  69.282  1.00  0.00     0.000 HD 
HETATM    5  H   UNL     1     -12.468  15.108  67.071  1.00  0.00     0.000 HD 
ENDROOT
BRANCH   3   6
HETATM    6  C   UNL     1     -11.431  13.433  67.533  1.00  0.00    -0.323 A  
HETATM    7  N   UNL     1     -12.127  12.330  67.067  1.00  0.00    -0.543 NA 
HETATM    8  N   UNL     1     -11.562  11.101  66.982  1.00  0.00    -0.430 NA 
HETATM    9  C   UNL     1     -10.209  10.960  66.766  1.00  0.00    -0.231 A  
HETATM   10  C   UNL     1      -9.338  12.113  67.138  1.00  0.00    -0.193 A  
HETATM   11  C   UNL     1      -9.925  13.304  67.616  1.00  0.00    -0.229 A  
HETATM   12  C   UNL     1      -9.074  14.288  68.139  1.00  0.00    -0.193 A  
HETATM   13  C   UNL     1      -7.943  11.971  67.078  1.00  0.00    -0.150 A  
HETATM   14  C   UNL     1      -7.682  14.136  68.092  1.00  0.00    -0.140 A  
HETATM   15  C   UNL     1      -7.118  12.992  67.540  1.00  0.00    -0.158 A  
BRANCH   9  16
HETATM   16  N   UNL     1      -9.659   9.869  66.291  1.00  0.00    -0.194 NA 
HETATM   17  H1  UNL     1      -9.444   8.792  64.598  1.00  0.00     0.000 HD 
HETATM   18  N   UNL     1      -9.872   9.641  64.968  1.00  0.00    -0.434 NA 
HETATM   19  H   UNL     1      -9.110   9.236  66.873  1.00  0.00     0.000 HD 
HETATM   20  H2  UNL     1     -10.421  10.273  64.387  1.00  0.00     0.000 HD 
ENDBRANCH   9  16
ENDBRANCH   3   6
TORSDOF 2
ENDMDL
MODEL      116
REMARK 921   NORMALIZED FREE ENERGY PREDICTED BY IDOCK:   -3.89 KCAL/MOL
REMARK 922        TOTAL FREE ENERGY PREDICTED BY IDOCK:   -4.47 KCAL/MOL
REMARK 923 INTER-LIGAND FREE ENERGY PREDICTED BY IDOCK:   -4.36 KCAL/MOL
REMARK 924 INTRA-LIGAND FREE ENERGY PREDICTED BY IDOCK:   -0.11 KCAL/MOL
REMARK 927      BINDING AFFINITY PREDICTED BY RF-SCORE:    0.00 PKD
ROOT
HETATM    1  N   UNL     1     -11.055  15.925  69.929  1.00  0.00    -0.313 NA 
HETATM    2  H2  UNL     1     -10.633  15.158  70.454  1.00  0.00     0.000 HD 
HETATM    3  N   UNL     1     -11.008  15.912  68.589  1.00  0.00    -0.300 NA 
HETATM    4  H1  UNL     1     -11.506  16.689  70.433  1.00  0.00     0.000 HD 
HETATM    5  H   UNL     1     -11.430  16.679  68.065  1.00  0.00     0.000 HD 
ENDROOT
BRANCH   3   6
HETATM    6  C   UNL     1     -10.427  14.927  67.940  1.00  0.00    -0.250 A  
HETATM    7  N   UNL     1      -9.145  14.649  68.386  1.00  0.00    -0.186 NA 
HETATM    8  N   UNL     1      -8.289  13.867  67.683  1.00  0.00    -0.167 NA 
HETATM    9  C   UNL     1      -8.758  12.862  66.866  1.00  0.00    -0.161 A  
HETATM   10  C   UNL     1     -10.164  12.983  66.381  1.00  0.00    -0.283 A  
HETATM   11  C   UNL     1     -10.965  14.057  66.824  1.00  0.00    -0.298 A  
HETATM   12  C   UNL     1     -12.206  14.248  66.199  1.00  0.00    -0.430 A  
HETATM   13  C   UNL     1     -10.646  12.068  65.432  1.00  0.00    -0.319 A  
HETATM   14  C   UNL     1     -12.677  13.343  65.240  1.00  0.00    -0.481 A  
HETATM   15  C   UNL     1     -11.911  12.242  64.877  1.00  0.00    -0.417 A  
BRANCH   9  16
HETATM   16  N   UNL     1      -8.031  11.844  66.477  1.00  0.00    -0.378 NA 
HETATM   17  H1  UNL     1      -6.121  11.250  66.210  1.00  0.00     0.000 HD 
HETATM   18  N   UNL     1      -6.687  12.042  66.513  1.00  0.00    -0.376 NA 
HETATM   19  H   UNL     1      -8.445  10.964  66.169  1.00  0.00     0.000 HD 
HETATM   20  H2  UNL     1      -6.273  12.922  66.822  1.00  0.00     0.000 HD 
ENDBRANCH   9  16
ENDBRANCH   3   6
TORSDOF 2
ENDMDL
MODEL      117
REMARK 921   NORMALIZED FREE ENERGY PREDICTED BY IDOCK:   -3.87 KCAL/MOL
REMARK 922        TOTAL FREE ENERGY PREDICTED BY IDOCK:   -4.46 KCAL/MOL
REMARK 923 INTER-LIGAND FREE ENERGY PREDICTED BY IDOCK:   -4.82 KCAL/MOL
REMARK 924 INTRA-LIGAND FREE ENERGY PREDICTED BY IDOCK:    0.37 KCAL/MOL
REMARK 927      BINDING AFFINITY PREDICTED BY RF-SCORE:    0.00 PKD
ROOT
HETATM    1  N   UNL     1     -10.879  14.321  64.508  1.00  0.00    -0.603 NA 
HETATM    2  H2  UNL     1     -11.032  14.011  65.468  1.00  0.00     0.000 HD 
HETATM    3  N   UNL     1     -10.408  13.452  63.602  1.00  0.00    -0.439 NA 
HETATM    4  H1  UNL     1     -11.088  15.286  64.253  1.00  0.00     0.000 HD 
HETATM    5  H   UNL     1     -10.255  13.762  62.642  1.00  0.00     0.000 HD 
ENDROOT
BRANCH   3   6
HETATM    6  C   UNL     1     -10.139  12.208  63.932  1.00  0.00    -0.361 A  
HETATM    7  N   UNL     1      -9.407  11.526  62.974  1.00  0.00    -0.321 NA 
HETATM    8  N   UNL     1      -9.264  10.177  62.997  1.00  0.00    -0.275 NA 
HETATM    9  C   UNL     1      -9.288   9.485  64.188  1.00  0.00     0.024 A  
HETATM   10  C   UNL     1      -9.968  10.144  65.342  1.00  0.00    -0.377 A  
HETATM   11  C   UNL     1     -10.485  11.449  65.195  1.00  0.00    -0.351 A  
HETATM   12  C   UNL     1     -11.285  11.955  66.229  1.00  0.00    -0.392 A  
HETATM   13  C   UNL     1     -10.152   9.426  66.534  1.00  0.00    -0.332 A  
HETATM   14  C   UNL     1     -11.480  11.229  67.411  1.00  0.00    -0.300 A  
HETATM   15  C   UNL     1     -10.893   9.980  67.574  1.00  0.00    -0.326 A  
BRANCH   9  16
HETATM   16  N   UNL     1      -8.782   8.287  64.342  1.00  0.00    -0.400 NA 
HETATM   17  H1  UNL     1      -7.902   6.779  63.330  1.00  0.00     0.000 HD 
HETATM   18  N   UNL     1      -8.297   7.712  63.210  1.00  0.00    -0.372 NA 
HETATM   19  H   UNL     1      -8.753   7.818  65.248  1.00  0.00     0.000 HD 
HETATM   20  H2  UNL     1      -8.325   8.180  62.305  1.00  0.00     0.000 HD 
ENDBRANCH   9  16
ENDBRANCH   3   6
TORSDOF 2
ENDMDL
MODEL      118
REMARK 921   NORMALIZED FREE ENERGY PREDICTED BY IDOCK:   -3.86 KCAL/MOL
REMARK 922        TOTAL FREE ENERGY PREDICTED BY IDOCK:   -4.44 KCAL/MOL
REMARK 923 INTER-LIGAND FREE ENERGY PREDICTED BY IDOCK:   -4.81 KCAL/MOL
REMARK 924 INTRA-LIGAND FREE ENERGY PREDICTED BY IDOCK:    0.37 KCAL/MOL
REMARK 927      BINDING AFFINITY PREDICTED BY RF-SCORE:    0.00 PKD
ROOT
HETATM    1  N   UNL     1      -8.751  11.026  69.387  1.00  0.00    -0.376 NA 
HETATM    2  H2  UNL     1      -9.757  11.173  69.299  1.00  0.00     0.000 HD 
HETATM    3  N   UNL     1      -8.292  10.069  70.205  1.00  0.00    -0.352 NA 
HETATM    4  H1  UNL     1      -8.110  11.611  68.850  1.00  0.00     0.000 HD 
HETATM    5  H   UNL     1      -7.287   9.922  70.293  1.00  0.00     0.000 HD 
ENDROOT
BRANCH   3   6
HETATM    6  C   UNL     1      -9.119   9.315  70.897  1.00  0.00    -0.222 A  
HETATM    7  N   UNL     1      -8.518   8.200  71.456  1.00  0.00    -0.116 NA 
HETATM    8  N   UNL     1      -9.237   7.170  71.968  1.00  0.00    -0.134 NA 
HETATM    9  C   UNL     1     -10.487   7.381  72.506  1.00  0.00    -0.236 A  
HETATM   10  C   UNL     1     -11.220   8.603  72.062  1.00  0.00    -0.434 A  
HETATM   11  C   UNL     1     -10.592   9.513  71.185  1.00  0.00    -0.388 A  
HETATM   12  C   UNL     1     -11.376  10.538  70.637  1.00  0.00    -0.363 A  
HETATM   13  C   UNL     1     -12.552   8.791  72.464  1.00  0.00    -0.375 A  
HETATM   14  C   UNL     1     -12.709  10.714  71.028  1.00  0.00    -0.512 A  
HETATM   15  C   UNL     1     -13.288   9.859  71.958  1.00  0.00    -0.532 A  
BRANCH   9  16
HETATM   16  N   UNL     1     -11.064   6.558  73.347  1.00  0.00    -0.482 NA 
HETATM   17  H1  UNL     1     -11.557   4.618  73.605  1.00  0.00     0.000 HD 
HETATM   18  N   UNL     1     -11.108   5.259  72.950  1.00  0.00    -0.285 NA 
HETATM   19  H   UNL     1     -11.453   6.871  74.236  1.00  0.00     0.000 HD 
HETATM   20  H2  UNL     1     -10.719   4.947  72.061  1.00  0.00     0.000 HD 
ENDBRANCH   9  16
ENDBRANCH   3   6
TORSDOF 2
ENDMDL
MODEL      119
REMARK 921   NORMALIZED FREE ENERGY PREDICTED BY IDOCK:   -3.82 KCAL/MOL
REMARK 922        TOTAL FREE ENERGY PREDICTED BY IDOCK:   -4.40 KCAL/MOL
REMARK 923 INTER-LIGAND FREE ENERGY PREDICTED BY IDOCK:   -4.27 KCAL/MOL
REMARK 924 INTRA-LIGAND FREE ENERGY PREDICTED BY IDOCK:   -0.12 KCAL/MOL
REMARK 927      BINDING AFFINITY PREDICTED BY RF-SCORE:    0.00 PKD
ROOT
HETATM    1  N   UNL     1      -9.718  16.249  67.971  1.00  0.00    -0.228 NA 
HETATM    2  H2  UNL     1      -9.506  16.495  68.938  1.00  0.00     0.000 HD 
HETATM    3  N   UNL     1     -10.624  15.293  67.717  1.00  0.00    -0.260 NA 
HETATM    4  H1  UNL     1      -9.238  16.733  67.213  1.00  0.00     0.000 HD 
HETATM    5  H   UNL     1     -10.836  15.047  66.750  1.00  0.00     0.000 HD 
ENDROOT
BRANCH   3   6
HETATM    6  C   UNL     1     -11.244  14.669  68.695  1.00  0.00    -0.275 A  
HETATM    7  N   UNL     1     -11.819  15.523  69.622  1.00  0.00    -0.346 NA 
HETATM    8  N   UNL     1     -12.261  15.090  70.828  1.00  0.00    -0.302 NA 
HETATM    9  C   UNL     1     -12.718  13.801  70.991  1.00  0.00    -0.343 A  
HETATM   10  C   UNL     1     -12.251  12.785  70.003  1.00  0.00    -0.279 A  
HETATM   11  C   UNL     1     -11.437  13.185  68.923  1.00  0.00    -0.343 A  
HETATM   12  C   UNL     1     -10.858  12.181  68.133  1.00  0.00    -0.256 A  
HETATM   13  C   UNL     1     -12.566  11.432  70.205  1.00  0.00    -0.174 A  
HETATM   14  C   UNL     1     -11.162  10.831  68.348  1.00  0.00    -0.345 A  
HETATM   15  C   UNL     1     -12.034  10.459  69.364  1.00  0.00    -0.151 A  
BRANCH   9  16
HETATM   16  N   UNL     1     -13.502  13.427  71.972  1.00  0.00    -0.465 NA 
HETATM   17  H1  UNL     1     -13.809  13.661  73.953  1.00  0.00     0.000 HD 
HETATM   18  N   UNL     1     -13.199  13.952  73.189  1.00  0.00    -0.507 NA 
HETATM   19  H   UNL     1     -14.284  12.787  71.833  1.00  0.00     0.000 HD 
HETATM   20  H2  UNL     1     -12.418  14.592  73.328  1.00  0.00     0.000 HD 
ENDBRANCH   9  16
ENDBRANCH   3   6
TORSDOF 2
ENDMDL
MODEL      120
REMARK 921   NORMALIZED FREE ENERGY PREDICTED BY IDOCK:   -3.80 KCAL/MOL
REMARK 922        TOTAL FREE ENERGY PREDICTED BY IDOCK:   -4.38 KCAL/MOL
REMARK 923 INTER-LIGAND FREE ENERGY PREDICTED BY IDOCK:   -4.38 KCAL/MOL
REMARK 924 INTRA-LIGAND FREE ENERGY PREDICTED BY IDOCK:    0.00 KCAL/MOL
REMARK 927      BINDING AFFINITY PREDICTED BY RF-SCORE:    0.00 PKD
ROOT
HETATM    1  N   UNL     1     -12.067   9.353  70.306  1.00  0.00    -0.465 NA 
HETATM    2  H2  UNL     1     -11.549   8.629  69.807  1.00  0.00     0.000 HD 
HETATM    3  N   UNL     1     -12.012  10.621  69.875  1.00  0.00    -0.352 NA 
HETATM    4  H1  UNL     1     -12.618   9.099  71.126  1.00  0.00     0.000 HD 
HETATM    5  H   UNL     1     -12.529  11.344  70.375  1.00  0.00     0.000 HD 
ENDROOT
BRANCH   3   6
HETATM    6  C   UNL     1     -11.301  10.947  68.817  1.00  0.00    -0.292 A  
HETATM    7  N   UNL     1     -12.031  11.596  67.836  1.00  0.00    -0.623 NA 
HETATM    8  N   UNL     1     -11.558  11.769  66.577  1.00  0.00    -0.511 NA 
HETATM    9  C   UNL     1     -10.205  11.877  66.340  1.00  0.00    -0.209 A  
HETATM   10  C   UNL     1      -9.288  11.299  67.366  1.00  0.00    -0.168 A  
HETATM   11  C   UNL     1      -9.825  10.744  68.548  1.00  0.00    -0.182 A  
HETATM   12  C   UNL     1      -8.956  10.038  69.392  1.00  0.00    -0.205 A  
HETATM   13  C   UNL     1      -7.910  11.249  67.109  1.00  0.00    -0.151 A  
HETATM   14  C   UNL     1      -7.582   9.976  69.122  1.00  0.00    -0.096 A  
HETATM   15  C   UNL     1      -7.057  10.602  67.998  1.00  0.00    -0.085 A  
BRANCH   9  16
HETATM   16  N   UNL     1      -9.697  12.421  65.262  1.00  0.00    -0.444 NA 
HETATM   17  H1  UNL     1      -9.632  14.148  64.221  1.00  0.00     0.000 HD 
HETATM   18  N   UNL     1     -10.027  13.724  65.060  1.00  0.00    -0.600 NA 
HETATM   19  H   UNL     1      -9.098  11.904  64.619  1.00  0.00     0.000 HD 
HETATM   20  H2  UNL     1     -10.626  14.242  65.702  1.00  0.00     0.000 HD 
ENDBRANCH   9  16
ENDBRANCH   3   6
TORSDOF 2
ENDMDL
MODEL      121
REMARK 921   NORMALIZED FREE ENERGY PREDICTED BY IDOCK:   -3.80 KCAL/MOL
REMARK 922        TOTAL FREE ENERGY PREDICTED BY IDOCK:   -4.38 KCAL/MOL
REMARK 923 INTER-LIGAND FREE ENERGY PREDICTED BY IDOCK:   -4.25 KCAL/MOL
REMARK 924 INTRA-LIGAND FREE ENERGY PREDICTED BY IDOCK:   -0.13 KCAL/MOL
REMARK 927      BINDING AFFINITY PREDICTED BY RF-SCORE:    0.00 PKD
ROOT
HETATM    1  N   UNL     1      -9.427  11.962  64.278  1.00  0.00    -0.457 NA 
HETATM    2  H2  UNL     1      -8.942  12.855  64.184  1.00  0.00     0.000 HD 
HETATM    3  N   UNL     1     -10.141  11.712  65.384  1.00  0.00    -0.248 NA 
HETATM    4  H1  UNL     1      -9.360  11.274  63.528  1.00  0.00     0.000 HD 
HETATM    5  H   UNL     1     -10.626  10.820  65.478  1.00  0.00     0.000 HD 
ENDROOT
BRANCH   3   6
HETATM    6  C   UNL     1     -10.227  12.601  66.351  1.00  0.00    -0.251 A  
HETATM    7  N   UNL     1      -9.677  13.829  66.026  1.00  0.00    -0.270 NA 
HETATM    8  N   UNL     1      -9.422  14.778  66.960  1.00  0.00    -0.222 NA 
HETATM    9  C   UNL     1     -10.183  14.863  68.105  1.00  0.00    -0.226 A  
HETATM   10  C   UNL     1     -10.912  13.632  68.529  1.00  0.00    -0.289 A  
HETATM   11  C   UNL     1     -10.856  12.476  67.722  1.00  0.00    -0.254 A  
HETATM   12  C   UNL     1     -11.384  11.287  68.245  1.00  0.00    -0.359 A  
HETATM   13  C   UNL     1     -11.582  13.618  69.762  1.00  0.00    -0.322 A  
HETATM   14  C   UNL     1     -12.038  11.273  69.484  1.00  0.00    -0.386 A  
HETATM   15  C   UNL     1     -12.159  12.441  70.228  1.00  0.00    -0.377 A  
BRANCH   9  16
HETATM   16  N   UNL     1     -10.268  15.943  68.842  1.00  0.00    -0.215 NA 
HETATM   17  H1  UNL     1     -10.958  17.840  68.829  1.00  0.00     0.000 HD 
HETATM   18  N   UNL     1     -10.891  16.999  68.256  1.00  0.00    -0.370 NA 
HETATM   19  H   UNL     1      -9.892  15.989  69.789  1.00  0.00     0.000 HD 
HETATM   20  H2  UNL     1     -11.267  16.953  67.309  1.00  0.00     0.000 HD 
ENDBRANCH   9  16
ENDBRANCH   3   6
TORSDOF 2
ENDMDL
MODEL      122
REMARK 921   NORMALIZED FREE ENERGY PREDICTED BY IDOCK:   -3.80 KCAL/MOL
REMARK 922        TOTAL FREE ENERGY PREDICTED BY IDOCK:   -4.38 KCAL/MOL
REMARK 923 INTER-LIGAND FREE ENERGY PREDICTED BY IDOCK:   -4.26 KCAL/MOL
REMARK 924 INTRA-LIGAND FREE ENERGY PREDICTED BY IDOCK:   -0.12 KCAL/MOL
REMARK 927      BINDING AFFINITY PREDICTED BY RF-SCORE:    0.00 PKD
ROOT
HETATM    1  N   UNL     1      -5.923  20.271  71.030  1.00  0.00    -0.512 NA 
HETATM    2  H2  UNL     1      -5.071  19.974  70.556  1.00  0.00     0.000 HD 
HETATM    3  N   UNL     1      -7.093  20.226  70.376  1.00  0.00     0.078 NA 
HETATM    4  H1  UNL     1      -5.873  20.597  71.995  1.00  0.00     0.000 HD 
HETATM    5  H   UNL     1      -7.945  20.524  70.850  1.00  0.00     0.000 HD 
ENDROOT
BRANCH   3   6
HETATM    6  C   UNL     1      -7.157  19.805  69.131  1.00  0.00    -0.314 A  
HETATM    7  N   UNL     1      -5.917  19.603  68.549  1.00  0.00    -0.225 NA 
HETATM    8  N   UNL     1      -5.764  19.436  67.212  1.00  0.00    -0.175 NA 
HETATM    9  C   UNL     1      -6.766  18.875  66.451  1.00  0.00    -0.205 A  
HETATM   10  C   UNL     1      -8.152  18.938  67.001  1.00  0.00    -0.272 A  
HETATM   11  C   UNL     1      -8.370  19.490  68.281  1.00  0.00    -0.375 A  
HETATM   12  C   UNL     1      -9.695  19.713  68.680  1.00  0.00    -0.486 A  
HETATM   13  C   UNL     1      -9.228  18.515  66.206  1.00  0.00    -0.231 A  
HETATM   14  C   UNL     1     -10.768  19.305  67.877  1.00  0.00    -0.417 A  
HETATM   15  C   UNL     1     -10.535  18.684  66.655  1.00  0.00    -0.459 A  
BRANCH   9  16
HETATM   16  N   UNL     1      -6.568  18.330  65.277  1.00  0.00    -0.437 NA 
HETATM   17  H1  UNL     1      -5.360  18.404  63.661  1.00  0.00     0.000 HD 
HETATM   18  N   UNL     1      -5.515  18.828  64.576  1.00  0.00    -0.229 NA 
HETATM   19  H   UNL     1      -7.161  17.584  64.913  1.00  0.00     0.000 HD 
HETATM   20  H2  UNL     1      -4.922  19.574  64.939  1.00  0.00     0.000 HD 
ENDBRANCH   9  16
ENDBRANCH   3   6
TORSDOF 2
ENDMDL
MODEL      123
REMARK 921   NORMALIZED FREE ENERGY PREDICTED BY IDOCK:   -3.80 KCAL/MOL
REMARK 922        TOTAL FREE ENERGY PREDICTED BY IDOCK:   -4.38 KCAL/MOL
REMARK 923 INTER-LIGAND FREE ENERGY PREDICTED BY IDOCK:   -4.26 KCAL/MOL
REMARK 924 INTRA-LIGAND FREE ENERGY PREDICTED BY IDOCK:   -0.12 KCAL/MOL
REMARK 927      BINDING AFFINITY PREDICTED BY RF-SCORE:    0.00 PKD
ROOT
HETATM    1  N   UNL     1     -11.043  17.398  64.717  1.00  0.00    -0.883 NA 
HETATM    2  H2  UNL     1     -10.751  16.628  64.115  1.00  0.00     0.000 HD 
HETATM    3  N   UNL     1     -10.455  17.563  65.910  1.00  0.00    -0.504 NA 
HETATM    4  H1  UNL     1     -11.778  18.031  64.401  1.00  0.00     0.000 HD 
HETATM    5  H   UNL     1     -10.746  18.333  66.512  1.00  0.00     0.000 HD 
ENDROOT
BRANCH   3   6
HETATM    6  C   UNL     1      -9.507  16.747  66.317  1.00  0.00    -0.286 A  
HETATM    7  N   UNL     1      -9.879  15.413  66.301  1.00  0.00    -0.276 NA 
HETATM    8  N   UNL     1      -9.156  14.453  66.929  1.00  0.00    -0.241 NA 
HETATM    9  C   UNL     1      -7.795  14.586  67.090  1.00  0.00    -0.101 A  
HETATM   10  C   UNL     1      -7.237  15.969  67.037  1.00  0.00    -0.249 A  
HETATM   11  C   UNL     1      -8.092  17.056  66.759  1.00  0.00    -0.277 A  
HETATM   12  C   UNL     1      -7.575  18.350  66.912  1.00  0.00    -0.234 A  
HETATM   13  C   UNL     1      -5.882  16.177  67.340  1.00  0.00    -0.166 A  
HETATM   14  C   UNL     1      -6.227  18.554  67.230  1.00  0.00    -0.181 A  
HETATM   15  C   UNL     1      -5.376  17.472  67.418  1.00  0.00    -0.146 A  
BRANCH   9  16
HETATM   16  N   UNL     1      -6.988  13.578  67.316  1.00  0.00    -0.386 NA 
HETATM   17  H1  UNL     1      -6.633  11.663  66.787  1.00  0.00     0.000 HD 
HETATM   18  N   UNL     1      -7.261  12.447  66.611  1.00  0.00    -0.325 NA 
HETATM   19  H   UNL     1      -6.211  13.637  67.973  1.00  0.00     0.000 HD 
HETATM   20  H2  UNL     1      -8.038  12.388  65.954  1.00  0.00     0.000 HD 
ENDBRANCH   9  16
ENDBRANCH   3   6
TORSDOF 2
ENDMDL
MODEL      124
REMARK 921   NORMALIZED FREE ENERGY PREDICTED BY IDOCK:   -3.80 KCAL/MOL
REMARK 922        TOTAL FREE ENERGY PREDICTED BY IDOCK:   -4.37 KCAL/MOL
REMARK 923 INTER-LIGAND FREE ENERGY PREDICTED BY IDOCK:   -4.28 KCAL/MOL
REMARK 924 INTRA-LIGAND FREE ENERGY PREDICTED BY IDOCK:   -0.09 KCAL/MOL
REMARK 927      BINDING AFFINITY PREDICTED BY RF-SCORE:    0.00 PKD
ROOT
HETATM    1  N   UNL     1      -7.450  14.728  69.849  1.00  0.00    -0.387 NA 
HETATM    2  H2  UNL     1      -8.024  15.261  70.502  1.00  0.00     0.000 HD 
HETATM    3  N   UNL     1      -7.597  14.921  68.530  1.00  0.00    -0.114 NA 
HETATM    4  H1  UNL     1      -6.772  14.056  70.210  1.00  0.00     0.000 HD 
HETATM    5  H   UNL     1      -7.023  14.388  67.877  1.00  0.00     0.000 HD 
ENDROOT
BRANCH   3   6
HETATM    6  C   UNL     1      -8.471  15.787  68.066  1.00  0.00    -0.161 A  
HETATM    7  N   UNL     1      -8.495  16.981  68.767  1.00  0.00    -0.255 NA 
HETATM    8  N   UNL     1      -9.496  17.885  68.623  1.00  0.00    -0.305 NA 
HETATM    9  C   UNL     1     -10.182  17.995  67.434  1.00  0.00    -0.363 A  
HETATM   10  C   UNL     1     -10.165  16.809  66.528  1.00  0.00    -0.319 A  
HETATM   11  C   UNL     1      -9.406  15.673  66.881  1.00  0.00    -0.252 A  
HETATM   12  C   UNL     1      -9.570  14.512  66.111  1.00  0.00    -0.325 A  
HETATM   13  C   UNL     1     -10.965  16.811  65.375  1.00  0.00    -0.062 A  
HETATM   14  C   UNL     1     -10.383  14.513  64.970  1.00  0.00    -0.442 A  
HETATM   15  C   UNL     1     -11.057  15.667  64.588  1.00  0.00    -0.387 A  
BRANCH   9  16
HETATM   16  N   UNL     1     -10.862  19.059  67.083  1.00  0.00    -0.448 NA 
HETATM   17  H1  UNL     1     -10.670  20.859  66.191  1.00  0.00     0.000 HD 
HETATM   18  N   UNL     1     -10.141  20.031  66.464  1.00  0.00    -0.463 NA 
HETATM   19  H   UNL     1     -11.862  19.151  67.262  1.00  0.00     0.000 HD 
HETATM   20  H2  UNL     1      -9.141  19.938  66.285  1.00  0.00     0.000 HD 
ENDBRANCH   9  16
ENDBRANCH   3   6
TORSDOF 2
ENDMDL
MODEL      125
REMARK 921   NORMALIZED FREE ENERGY PREDICTED BY IDOCK:   -3.78 KCAL/MOL
REMARK 922        TOTAL FREE ENERGY PREDICTED BY IDOCK:   -4.36 KCAL/MOL
REMARK 923 INTER-LIGAND FREE ENERGY PREDICTED BY IDOCK:   -4.25 KCAL/MOL
REMARK 924 INTRA-LIGAND FREE ENERGY PREDICTED BY IDOCK:   -0.11 KCAL/MOL
REMARK 927      BINDING AFFINITY PREDICTED BY RF-SCORE:    0.00 PKD
ROOT
HETATM    1  N   UNL     1      -8.302  18.748  66.131  1.00  0.00    -0.461 NA 
HETATM    2  H2  UNL     1      -8.951  18.669  66.914  1.00  0.00     0.000 HD 
HETATM    3  N   UNL     1      -7.573  17.683  65.769  1.00  0.00    -0.527 NA 
HETATM    4  H1  UNL     1      -8.220  19.635  65.635  1.00  0.00     0.000 HD 
HETATM    5  H   UNL     1      -6.924  17.761  64.986  1.00  0.00     0.000 HD 
ENDROOT
BRANCH   3   6
HETATM    6  C   UNL     1      -7.680  16.539  66.409  1.00  0.00    -0.259 A  
HETATM    7  N   UNL     1      -6.573  16.229  67.181  1.00  0.00    -0.192 NA 
HETATM    8  N   UNL     1      -6.373  14.989  67.694  1.00  0.00    -0.241 NA 
HETATM    9  C   UNL     1      -7.438  14.172  68.003  1.00  0.00    -0.140 A  
HETATM   10  C   UNL     1      -8.730  14.449  67.310  1.00  0.00    -0.228 A  
HETATM   11  C   UNL     1      -8.831  15.555  66.440  1.00  0.00    -0.359 A  
HETATM   12  C   UNL     1      -9.991  15.669  65.660  1.00  0.00    -0.388 A  
HETATM   13  C   UNL     1      -9.804  13.562  67.476  1.00  0.00    -0.227 A  
HETATM   14  C   UNL     1     -11.055  14.772  65.815  1.00  0.00    -0.338 A  
HETATM   15  C   UNL     1     -10.973  13.737  66.739  1.00  0.00    -0.307 A  
BRANCH   9  16
HETATM   16  N   UNL     1      -7.361  13.163  68.836  1.00  0.00    -0.246 NA 
HETATM   17  H1  UNL     1      -6.770  12.669  70.701  1.00  0.00     0.000 HD 
HETATM   18  N   UNL     1      -6.829  13.454  70.053  1.00  0.00    -0.333 NA 
HETATM   19  H   UNL     1      -7.678  12.226  68.589  1.00  0.00     0.000 HD 
HETATM   20  H2  UNL     1      -6.513  14.391  70.300  1.00  0.00     0.000 HD 
ENDBRANCH   9  16
ENDBRANCH   3   6
TORSDOF 2
ENDMDL
MODEL      126
REMARK 921   NORMALIZED FREE ENERGY PREDICTED BY IDOCK:   -3.77 KCAL/MOL
REMARK 922        TOTAL FREE ENERGY PREDICTED BY IDOCK:   -4.35 KCAL/MOL
REMARK 923 INTER-LIGAND FREE ENERGY PREDICTED BY IDOCK:   -4.35 KCAL/MOL
REMARK 924 INTRA-LIGAND FREE ENERGY PREDICTED BY IDOCK:    0.00 KCAL/MOL
REMARK 927      BINDING AFFINITY PREDICTED BY RF-SCORE:    0.00 PKD
ROOT
HETATM    1  N   UNL     1     -13.742   8.575  70.959  1.00  0.00    -0.549 NA 
HETATM    2  H2  UNL     1     -13.326   7.645  70.907  1.00  0.00     0.000 HD 
HETATM    3  N   UNL     1     -12.950   9.656  70.929  1.00  0.00    -0.543 NA 
HETATM    4  H1  UNL     1     -14.756   8.667  71.033  1.00  0.00     0.000 HD 
HETATM    5  H   UNL     1     -13.367  10.585  70.981  1.00  0.00     0.000 HD 
ENDROOT
BRANCH   3   6
HETATM    6  C   UNL     1     -11.644   9.536  70.833  1.00  0.00    -0.326 A  
HETATM    7  N   UNL     1     -11.103  10.205  69.748  1.00  0.00    -0.262 NA 
HETATM    8  N   UNL     1      -9.834   9.987  69.322  1.00  0.00    -0.202 NA 
HETATM    9  C   UNL     1      -8.851   9.598  70.204  1.00  0.00    -0.231 A  
HETATM   10  C   UNL     1      -9.294   8.941  71.469  1.00  0.00    -0.335 A  
HETATM   11  C   UNL     1     -10.672   8.812  71.742  1.00  0.00    -0.413 A  
HETATM   12  C   UNL     1     -11.051   8.021  72.835  1.00  0.00    -0.399 A  
HETATM   13  C   UNL     1      -8.334   8.394  72.334  1.00  0.00    -0.219 A  
HETATM   14  C   UNL     1     -10.090   7.462  73.687  1.00  0.00    -0.376 A  
HETATM   15  C   UNL     1      -8.736   7.670  73.453  1.00  0.00    -0.253 A  
BRANCH   9  16
HETATM   16  N   UNL     1      -7.569   9.744  69.974  1.00  0.00    -0.147 NA 
HETATM   17  H1  UNL     1      -6.240  10.920  69.013  1.00  0.00     0.000 HD 
HETATM   18  N   UNL     1      -7.237  10.806  69.193  1.00  0.00    -0.096 NA 
HETATM   19  H   UNL     1      -6.870   9.106  70.353  1.00  0.00     0.000 HD 
HETATM   20  H2  UNL     1      -7.936  11.444  68.813  1.00  0.00     0.000 HD 
ENDBRANCH   9  16
ENDBRANCH   3   6
TORSDOF 2
ENDMDL
MODEL      127
REMARK 921   NORMALIZED FREE ENERGY PREDICTED BY IDOCK:   -3.77 KCAL/MOL
REMARK 922        TOTAL FREE ENERGY PREDICTED BY IDOCK:   -4.34 KCAL/MOL
REMARK 923 INTER-LIGAND FREE ENERGY PREDICTED BY IDOCK:   -4.22 KCAL/MOL
REMARK 924 INTRA-LIGAND FREE ENERGY PREDICTED BY IDOCK:   -0.13 KCAL/MOL
REMARK 927      BINDING AFFINITY PREDICTED BY RF-SCORE:    0.00 PKD
ROOT
HETATM    1  N   UNL     1     -10.627  20.017  66.501  1.00  0.00    -0.416 NA 
HETATM    2  H2  UNL     1     -11.364  19.913  67.199  1.00  0.00     0.000 HD 
HETATM    3  N   UNL     1      -9.610  19.144  66.480  1.00  0.00    -0.339 NA 
HETATM    4  H1  UNL     1     -10.677  20.783  65.830  1.00  0.00     0.000 HD 
HETATM    5  H   UNL     1      -8.873  19.248  65.783  1.00  0.00     0.000 HD 
ENDROOT
BRANCH   3   6
HETATM    6  C   UNL     1      -9.547  18.156  67.346  1.00  0.00    -0.275 A  
HETATM    7  N   UNL     1     -10.776  17.581  67.623  1.00  0.00    -0.345 NA 
HETATM    8  N   UNL     1     -10.964  16.745  68.674  1.00  0.00    -0.328 NA 
HETATM    9  C   UNL     1      -9.933  15.962  69.145  1.00  0.00    -0.245 A  
HETATM   10  C   UNL     1      -8.544  16.413  68.841  1.00  0.00    -0.250 A  
HETATM   11  C   UNL     1      -8.341  17.555  68.038  1.00  0.00    -0.241 A  
HETATM   12  C   UNL     1      -7.037  18.061  67.937  1.00  0.00    -0.216 A  
HETATM   13  C   UNL     1      -7.458  15.736  69.418  1.00  0.00    -0.216 A  
HETATM   14  C   UNL     1      -5.958  17.393  68.529  1.00  0.00    -0.162 A  
HETATM   15  C   UNL     1      -6.164  16.220  69.246  1.00  0.00    -0.169 A  
BRANCH   9  16
HETATM   16  N   UNL     1     -10.113  14.880  69.863  1.00  0.00    -0.460 NA 
HETATM   17  H1  UNL     1     -10.945  14.217  71.578  1.00  0.00     0.000 HD 
HETATM   18  N   UNL     1     -10.805  15.059  71.019  1.00  0.00    -0.554 NA 
HETATM   19  H   UNL     1      -9.759  13.969  69.574  1.00  0.00     0.000 HD 
HETATM   20  H2  UNL     1     -11.159  15.970  71.308  1.00  0.00     0.000 HD 
ENDBRANCH   9  16
ENDBRANCH   3   6
TORSDOF 2
ENDMDL
MODEL      128
REMARK 921   NORMALIZED FREE ENERGY PREDICTED BY IDOCK:   -3.77 KCAL/MOL
REMARK 922        TOTAL FREE ENERGY PREDICTED BY IDOCK:   -4.34 KCAL/MOL
REMARK 923 INTER-LIGAND FREE ENERGY PREDICTED BY IDOCK:   -4.20 KCAL/MOL
REMARK 924 INTRA-LIGAND FREE ENERGY PREDICTED BY IDOCK:   -0.14 KCAL/MOL
REMARK 927      BINDING AFFINITY PREDICTED BY RF-SCORE:    0.00 PKD
ROOT
HETATM    1  N   UNL     1      -7.641  15.388  68.199  1.00  0.00    -0.110 NA 
HETATM    2  H2  UNL     1      -8.470  15.645  68.736  1.00  0.00     0.000 HD 
HETATM    3  N   UNL     1      -7.744  14.475  67.223  1.00  0.00    -0.278 NA 
HETATM    4  H1  UNL     1      -6.747  15.830  68.413  1.00  0.00     0.000 HD 
HETATM    5  H   UNL     1      -6.915  14.218  66.686  1.00  0.00     0.000 HD 
ENDROOT
BRANCH   3   6
HETATM    6  C   UNL     1      -8.897  13.905  66.946  1.00  0.00    -0.193 A  
HETATM    7  N   UNL     1      -9.669  14.622  66.048  1.00  0.00    -0.310 NA 
HETATM    8  N   UNL     1     -10.982  14.351  65.845  1.00  0.00    -0.306 NA 
HETATM    9  C   UNL     1     -11.474  13.075  66.013  1.00  0.00    -0.335 A  
HETATM   10  C   UNL     1     -10.690  12.155  66.888  1.00  0.00    -0.271 A  
HETATM   11  C   UNL     1      -9.466  12.591  67.438  1.00  0.00    -0.184 A  
HETATM   12  C   UNL     1      -8.859  11.779  68.407  1.00  0.00    -0.161 A  
HETATM   13  C   UNL     1     -11.217  10.896  67.211  1.00  0.00    -0.307 A  
HETATM   14  C   UNL     1      -9.398  10.529  68.740  1.00  0.00    -0.181 A  
HETATM   15  C   UNL     1     -10.559  10.078  68.125  1.00  0.00    -0.268 A  
BRANCH   9  16
HETATM   16  N   UNL     1     -12.592  12.651  65.477  1.00  0.00    -0.605 NA 
HETATM   17  H1  UNL     1     -13.622  12.613  63.742  1.00  0.00     0.000 HD 
HETATM   18  N   UNL     1     -12.751  12.942  64.159  1.00  0.00    -0.690 NA 
HETATM   19  H   UNL     1     -13.294  12.140  66.012  1.00  0.00     0.000 HD 
HETATM   20  H2  UNL     1     -12.050  13.454  63.624  1.00  0.00     0.000 HD 
ENDBRANCH   9  16
ENDBRANCH   3   6
TORSDOF 2
ENDMDL
MODEL      129
REMARK 921   NORMALIZED FREE ENERGY PREDICTED BY IDOCK:   -3.76 KCAL/MOL
REMARK 922        TOTAL FREE ENERGY PREDICTED BY IDOCK:   -4.34 KCAL/MOL
REMARK 923 INTER-LIGAND FREE ENERGY PREDICTED BY IDOCK:   -4.34 KCAL/MOL
REMARK 924 INTRA-LIGAND FREE ENERGY PREDICTED BY IDOCK:    0.00 KCAL/MOL
REMARK 927      BINDING AFFINITY PREDICTED BY RF-SCORE:    0.00 PKD
ROOT
HETATM    1  N   UNL     1     -12.845  14.480  64.070  1.00  0.00    -0.542 NA 
HETATM    2  H2  UNL     1     -13.218  14.696  64.994  1.00  0.00     0.000 HD 
HETATM    3  N   UNL     1     -11.523  14.322  63.912  1.00  0.00    -0.549 NA 
HETATM    4  H1  UNL     1     -13.484  14.387  63.280  1.00  0.00     0.000 HD 
HETATM    5  H   UNL     1     -11.150  14.106  62.988  1.00  0.00     0.000 HD 
ENDROOT
BRANCH   3   6
HETATM    6  C   UNL     1     -10.700  14.442  64.932  1.00  0.00    -0.426 A  
HETATM    7  N   UNL     1     -10.146  13.241  65.342  1.00  0.00    -0.281 NA 
HETATM    8  N   UNL     1      -9.497  13.110  66.525  1.00  0.00    -0.255 NA 
HETATM    9  C   UNL     1      -8.837  14.179  67.090  1.00  0.00    -0.229 A  
HETATM   10  C   UNL     1      -9.269  15.543  66.668  1.00  0.00    -0.299 A  
HETATM   11  C   UNL     1     -10.262  15.685  65.677  1.00  0.00    -0.402 A  
HETATM   12  C   UNL     1     -10.781  16.968  65.449  1.00  0.00    -0.126 A  
HETATM   13  C   UNL     1      -8.733  16.667  67.318  1.00  0.00    -0.207 A  
HETATM   14  C   UNL     1     -10.255  18.085  66.111  1.00  0.00    -0.364 A  
HETATM   15  C   UNL     1      -9.217  17.939  67.023  1.00  0.00    -0.260 A  
BRANCH   9  16
HETATM   16  N   UNL     1      -7.889  14.056  67.987  1.00  0.00    -0.137 NA 
HETATM   17  H1  UNL     1      -7.580  13.849  69.970  1.00  0.00     0.000 HD 
HETATM   18  N   UNL     1      -8.318  13.945  69.272  1.00  0.00    -0.264 NA 
HETATM   19  H   UNL     1      -6.900  14.044  67.738  1.00  0.00     0.000 HD 
HETATM   20  H2  UNL     1      -9.306  13.956  69.521  1.00  0.00     0.000 HD 
ENDBRANCH   9  16
ENDBRANCH   3   6
TORSDOF 2
ENDMDL
MODEL      130
REMARK 921   NORMALIZED FREE ENERGY PREDICTED BY IDOCK:   -3.74 KCAL/MOL
REMARK 922        TOTAL FREE ENERGY PREDICTED BY IDOCK:   -4.31 KCAL/MOL
REMARK 923 INTER-LIGAND FREE ENERGY PREDICTED BY IDOCK:   -4.19 KCAL/MOL
REMARK 924 INTRA-LIGAND FREE ENERGY PREDICTED BY IDOCK:   -0.12 KCAL/MOL
REMARK 927      BINDING AFFINITY PREDICTED BY RF-SCORE:    0.00 PKD
ROOT
HETATM    1  N   UNL     1      -5.146  17.011  66.084  1.00  0.00    -0.350 NA 
HETATM    2  H2  UNL     1      -5.010  16.540  66.979  1.00  0.00     0.000 HD 
HETATM    3  N   UNL     1      -6.360  17.485  65.766  1.00  0.00    -0.109 NA 
HETATM    4  H1  UNL     1      -4.357  17.114  65.446  1.00  0.00     0.000 HD 
HETATM    5  H   UNL     1      -6.496  17.956  64.871  1.00  0.00     0.000 HD 
ENDROOT
BRANCH   3   6
HETATM    6  C   UNL     1      -7.377  17.351  66.589  1.00  0.00    -0.247 A  
HETATM    7  N   UNL     1      -7.391  16.141  67.262  1.00  0.00    -0.171 NA 
HETATM    8  N   UNL     1      -8.481  15.702  67.939  1.00  0.00    -0.149 NA 
HETATM    9  C   UNL     1      -9.369  16.593  68.501  1.00  0.00    -0.236 A  
HETATM   10  C   UNL     1      -9.398  17.972  67.934  1.00  0.00    -0.264 A  
HETATM   11  C   UNL     1      -8.487  18.327  66.916  1.00  0.00    -0.267 A  
HETATM   12  C   UNL     1      -8.673  19.559  66.273  1.00  0.00    -0.383 A  
HETATM   13  C   UNL     1     -10.381  18.875  68.368  1.00  0.00    -0.361 A  
HETATM   14  C   UNL     1      -9.666  20.451  66.698  1.00  0.00    -0.498 A  
HETATM   15  C   UNL     1     -10.500  20.121  67.759  1.00  0.00    -0.397 A  
BRANCH   9  16
HETATM   16  N   UNL     1     -10.194  16.281  69.470  1.00  0.00    -0.262 NA 
HETATM   17  H1  UNL     1     -10.567  14.870  70.863  1.00  0.00     0.000 HD 
HETATM   18  N   UNL     1      -9.924  15.112  70.110  1.00  0.00    -0.498 NA 
HETATM   19  H   UNL     1     -10.984  16.873  69.725  1.00  0.00     0.000 HD 
HETATM   20  H2  UNL     1      -9.134  14.520  69.854  1.00  0.00     0.000 HD 
ENDBRANCH   9  16
ENDBRANCH   3   6
TORSDOF 2
ENDMDL
MODEL      131
REMARK 921   NORMALIZED FREE ENERGY PREDICTED BY IDOCK:   -3.73 KCAL/MOL
REMARK 922        TOTAL FREE ENERGY PREDICTED BY IDOCK:   -4.30 KCAL/MOL
REMARK 923 INTER-LIGAND FREE ENERGY PREDICTED BY IDOCK:   -4.27 KCAL/MOL
REMARK 924 INTRA-LIGAND FREE ENERGY PREDICTED BY IDOCK:   -0.03 KCAL/MOL
REMARK 927      BINDING AFFINITY PREDICTED BY RF-SCORE:    0.00 PKD
ROOT
HETATM    1  N   UNL     1      -8.501   9.216  67.728  1.00  0.00    -0.117 NA 
HETATM    2  H2  UNL     1      -9.054   8.370  67.868  1.00  0.00     0.000 HD 
HETATM    3  N   UNL     1      -8.790  10.318  68.435  1.00  0.00    -0.126 NA 
HETATM    4  H1  UNL     1      -7.738   9.210  67.051  1.00  0.00     0.000 HD 
HETATM    5  H   UNL     1      -8.238  11.164  68.294  1.00  0.00     0.000 HD 
ENDROOT
BRANCH   3   6
HETATM    6  C   UNL     1      -9.775  10.325  69.307  1.00  0.00    -0.225 A  
HETATM    7  N   UNL     1     -10.736  11.288  69.050  1.00  0.00    -0.214 NA 
HETATM    8  N   UNL     1     -11.674  11.636  69.965  1.00  0.00    -0.330 NA 
HETATM    9  C   UNL     1     -12.120  10.727  70.900  1.00  0.00    -0.370 A  
HETATM   10  C   UNL     1     -11.221   9.578  71.211  1.00  0.00    -0.452 A  
HETATM   11  C   UNL     1     -10.011   9.427  70.502  1.00  0.00    -0.328 A  
HETATM   12  C   UNL     1      -9.105   8.456  70.954  1.00  0.00    -0.190 A  
HETATM   13  C   UNL     1     -11.557   8.704  72.257  1.00  0.00    -0.424 A  
HETATM   14  C   UNL     1      -9.437   7.597  72.009  1.00  0.00    -0.194 A  
HETATM   15  C   UNL     1     -10.670   7.703  72.642  1.00  0.00    -0.377 A  
BRANCH   9  16
HETATM   16  N   UNL     1     -13.259  10.842  71.539  1.00  0.00    -0.371 NA 
HETATM   17  H1  UNL     1     -14.305  12.086  72.734  1.00  0.00     0.000 HD 
HETATM   18  N   UNL     1     -13.419  11.997  72.237  1.00  0.00    -0.551 NA 
HETATM   19  H   UNL     1     -13.974  10.115  71.514  1.00  0.00     0.000 HD 
HETATM   20  H2  UNL     1     -12.704  12.723  72.262  1.00  0.00     0.000 HD 
ENDBRANCH   9  16
ENDBRANCH   3   6
TORSDOF 2
ENDMDL
MODEL      132
REMARK 921   NORMALIZED FREE ENERGY PREDICTED BY IDOCK:   -3.72 KCAL/MOL
REMARK 922        TOTAL FREE ENERGY PREDICTED BY IDOCK:   -4.29 KCAL/MOL
REMARK 923 INTER-LIGAND FREE ENERGY PREDICTED BY IDOCK:   -4.16 KCAL/MOL
REMARK 924 INTRA-LIGAND FREE ENERGY PREDICTED BY IDOCK:   -0.13 KCAL/MOL
REMARK 927      BINDING AFFINITY PREDICTED BY RF-SCORE:    0.00 PKD
ROOT
HETATM    1  N   UNL     1     -12.644  13.370  66.309  1.00  0.00    -0.308 NA 
HETATM    2  H2  UNL     1     -12.684  13.489  65.297  1.00  0.00     0.000 HD 
HETATM    3  N   UNL     1     -11.834  12.439  66.833  1.00  0.00    -0.557 NA 
HETATM    4  H1  UNL     1     -13.221  13.962  66.907  1.00  0.00     0.000 HD 
HETATM    5  H   UNL     1     -11.794  12.320  67.845  1.00  0.00     0.000 HD 
ENDROOT
BRANCH   3   6
HETATM    6  C   UNL     1     -11.090  11.676  66.061  1.00  0.00    -0.270 A  
HETATM    7  N   UNL     1     -10.863  12.212  64.804  1.00  0.00    -0.294 NA 
HETATM    8  N   UNL     1     -10.359  11.475  63.784  1.00  0.00    -0.357 NA 
HETATM    9  C   UNL     1      -9.518  10.412  64.029  1.00  0.00    -0.299 A  
HETATM   10  C   UNL     1      -9.588   9.789  65.382  1.00  0.00    -0.359 A  
HETATM   11  C   UNL     1     -10.439  10.343  66.362  1.00  0.00    -0.246 A  
HETATM   12  C   UNL     1     -10.628   9.620  67.549  1.00  0.00    -0.339 A  
HETATM   13  C   UNL     1      -8.862   8.615  65.639  1.00  0.00    -0.227 A  
HETATM   14  C   UNL     1      -9.914   8.440  67.794  1.00  0.00    -0.236 A  
HETATM   15  C   UNL     1      -9.015   7.953  66.854  1.00  0.00    -0.157 A  
BRANCH   9  16
HETATM   16  N   UNL     1      -8.700   9.913  63.135  1.00  0.00    -0.201 NA 
HETATM   17  H1  UNL     1      -7.240  10.424  61.838  1.00  0.00     0.000 HD 
HETATM   18  N   UNL     1      -7.877  10.813  62.534  1.00  0.00    -0.311 NA 
HETATM   19  H   UNL     1      -8.681   8.919  62.907  1.00  0.00     0.000 HD 
HETATM   20  H2  UNL     1      -7.896  11.806  62.762  1.00  0.00     0.000 HD 
ENDBRANCH   9  16
ENDBRANCH   3   6
TORSDOF 2
ENDMDL
MODEL      133
REMARK 921   NORMALIZED FREE ENERGY PREDICTED BY IDOCK:   -3.72 KCAL/MOL
REMARK 922        TOTAL FREE ENERGY PREDICTED BY IDOCK:   -4.29 KCAL/MOL
REMARK 923 INTER-LIGAND FREE ENERGY PREDICTED BY IDOCK:   -4.16 KCAL/MOL
REMARK 924 INTRA-LIGAND FREE ENERGY PREDICTED BY IDOCK:   -0.13 KCAL/MOL
REMARK 927      BINDING AFFINITY PREDICTED BY RF-SCORE:    0.00 PKD
ROOT
HETATM    1  N   UNL     1     -12.048  13.997  67.980  1.00  0.00    -0.515 NA 
HETATM    2  H2  UNL     1     -11.242  14.217  68.564  1.00  0.00     0.000 HD 
HETATM    3  N   UNL     1     -12.282  12.724  67.630  1.00  0.00    -0.285 NA 
HETATM    4  H1  UNL     1     -12.665  14.749  67.671  1.00  0.00     0.000 HD 
HETATM    5  H   UNL     1     -13.089  12.504  67.045  1.00  0.00     0.000 HD 
ENDROOT
BRANCH   3   6
HETATM    6  C   UNL     1     -11.487  11.755  68.028  1.00  0.00    -0.319 A  
HETATM    7  N   UNL     1     -10.422  11.524  67.174  1.00  0.00    -0.215 NA 
HETATM    8  N   UNL     1      -9.654  10.409  67.258  1.00  0.00    -0.154 NA 
HETATM    9  C   UNL     1      -9.470   9.769  68.464  1.00  0.00    -0.145 A  
HETATM   10  C   UNL     1     -10.499  10.000  69.519  1.00  0.00    -0.260 A  
HETATM   11  C   UNL     1     -11.558  10.900  69.276  1.00  0.00    -0.388 A  
HETATM   12  C   UNL     1     -12.607  10.943  70.206  1.00  0.00    -0.342 A  
HETATM   13  C   UNL     1     -10.441   9.261  70.711  1.00  0.00    -0.343 A  
HETATM   14  C   UNL     1     -12.554  10.192  71.387  1.00  0.00    -0.526 A  
HETATM   15  C   UNL     1     -11.462   9.373  71.651  1.00  0.00    -0.463 A  
BRANCH   9  16
HETATM   16  N   UNL     1      -8.471   8.957  68.710  1.00  0.00    -0.130 NA 
HETATM   17  H1  UNL     1      -6.498   8.930  69.133  1.00  0.00     0.000 HD 
HETATM   18  N   UNL     1      -7.276   9.561  68.941  1.00  0.00    -0.071 NA 
HETATM   19  H   UNL     1      -8.583   7.944  68.727  1.00  0.00     0.000 HD 
HETATM   20  H2  UNL     1      -7.164  10.575  68.924  1.00  0.00     0.000 HD 
ENDBRANCH   9  16
ENDBRANCH   3   6
TORSDOF 2
ENDMDL
MODEL      134
REMARK 921   NORMALIZED FREE ENERGY PREDICTED BY IDOCK:   -3.71 KCAL/MOL
REMARK 922        TOTAL FREE ENERGY PREDICTED BY IDOCK:   -4.28 KCAL/MOL
REMARK 923 INTER-LIGAND FREE ENERGY PREDICTED BY IDOCK:   -4.15 KCAL/MOL
REMARK 924 INTRA-LIGAND FREE ENERGY PREDICTED BY IDOCK:   -0.13 KCAL/MOL
REMARK 927      BINDING AFFINITY PREDICTED BY RF-SCORE:    0.00 PKD
ROOT
HETATM    1  N   UNL     1      -9.956  17.451  68.844  1.00  0.00    -0.316 NA 
HETATM    2  H2  UNL     1     -10.883  17.591  68.444  1.00  0.00     0.000 HD 
HETATM    3  N   UNL     1      -9.344  16.267  68.693  1.00  0.00    -0.210 NA 
HETATM    4  H1  UNL     1      -9.508  18.213  69.353  1.00  0.00     0.000 HD 
HETATM    5  H   UNL     1      -8.416  16.127  69.094  1.00  0.00     0.000 HD 
ENDROOT
BRANCH   3   6
HETATM    6  C   UNL     1      -9.921  15.284  68.037  1.00  0.00    -0.224 A  
HETATM    7  N   UNL     1     -11.202  15.584  67.604  1.00  0.00    -0.316 NA 
HETATM    8  N   UNL     1     -12.056  14.630  67.155  1.00  0.00    -0.293 NA 
HETATM    9  C   UNL     1     -11.582  13.487  66.550  1.00  0.00    -0.359 A  
HETATM   10  C   UNL     1     -10.176  13.090  66.855  1.00  0.00    -0.244 A  
HETATM   11  C   UNL     1      -9.379  13.918  67.673  1.00  0.00    -0.205 A  
HETATM   12  C   UNL     1      -8.139  13.420  68.097  1.00  0.00    -0.155 A  
HETATM   13  C   UNL     1      -9.690  11.860  66.384  1.00  0.00    -0.238 A  
HETATM   14  C   UNL     1      -7.664  12.185  67.638  1.00  0.00    -0.148 A  
HETATM   15  C   UNL     1      -8.426  11.419  66.764  1.00  0.00    -0.165 A  
BRANCH   9  16
HETATM   16  N   UNL     1     -12.305  12.730  65.762  1.00  0.00    -0.594 NA 
HETATM   17  H1  UNL     1     -13.270  12.727  63.989  1.00  0.00     0.000 HD 
HETATM   18  N   UNL     1     -12.707  13.316  64.603  1.00  0.00    -0.683 NA 
HETATM   19  H   UNL     1     -12.549  11.769  66.000  1.00  0.00     0.000 HD 
HETATM   20  H2  UNL     1     -12.464  14.277  64.364  1.00  0.00     0.000 HD 
ENDBRANCH   9  16
ENDBRANCH   3   6
TORSDOF 2
ENDMDL
MODEL      135
REMARK 921   NORMALIZED FREE ENERGY PREDICTED BY IDOCK:   -3.71 KCAL/MOL
REMARK 922        TOTAL FREE ENERGY PREDICTED BY IDOCK:   -4.28 KCAL/MOL
REMARK 923 INTER-LIGAND FREE ENERGY PREDICTED BY IDOCK:   -4.20 KCAL/MOL
REMARK 924 INTRA-LIGAND FREE ENERGY PREDICTED BY IDOCK:   -0.08 KCAL/MOL
REMARK 927      BINDING AFFINITY PREDICTED BY RF-SCORE:    0.00 PKD
ROOT
HETATM    1  N   UNL     1      -9.907  13.380  65.222  1.00  0.00    -0.527 NA 
HETATM    2  H2  UNL     1     -10.650  13.848  65.740  1.00  0.00     0.000 HD 
HETATM    3  N   UNL     1      -9.404  12.226  65.686  1.00  0.00    -0.436 NA 
HETATM    4  H1  UNL     1      -9.559  13.796  64.358  1.00  0.00     0.000 HD 
HETATM    5  H   UNL     1      -8.661  11.758  65.167  1.00  0.00     0.000 HD 
ENDROOT
BRANCH   3   6
HETATM    6  C   UNL     1      -9.854  11.690  66.799  1.00  0.00    -0.200 A  
HETATM    7  N   UNL     1     -11.236  11.681  66.892  1.00  0.00    -0.308 NA 
HETATM    8  N   UNL     1     -11.881  11.426  68.057  1.00  0.00    -0.622 NA 
HETATM    9  C   UNL     1     -11.315  10.615  69.015  1.00  0.00    -0.277 A  
HETATM   10  C   UNL     1      -9.831  10.456  68.980  1.00  0.00    -0.222 A  
HETATM   11  C   UNL     1      -9.089  11.069  67.949  1.00  0.00    -0.147 A  
HETATM   12  C   UNL     1      -7.691  11.065  68.058  1.00  0.00    -0.106 A  
HETATM   13  C   UNL     1      -9.188   9.762  70.016  1.00  0.00    -0.266 A  
HETATM   14  C   UNL     1      -7.052  10.384  69.103  1.00  0.00    -0.080 A  
HETATM   15  C   UNL     1      -7.798   9.713  70.064  1.00  0.00    -0.173 A  
BRANCH   9  16
HETATM   16  N   UNL     1     -12.001  10.014  69.956  1.00  0.00    -0.456 NA 
HETATM   17  H1  UNL     1     -12.903  10.337  71.733  1.00  0.00     0.000 HD 
HETATM   18  N   UNL     1     -12.369  10.804  71.000  1.00  0.00    -0.378 NA 
HETATM   19  H   UNL     1     -12.241   9.025  69.910  1.00  0.00     0.000 HD 
HETATM   20  H2  UNL     1     -12.128  11.794  71.047  1.00  0.00     0.000 HD 
ENDBRANCH   9  16
ENDBRANCH   3   6
TORSDOF 2
ENDMDL
MODEL      136
REMARK 921   NORMALIZED FREE ENERGY PREDICTED BY IDOCK:   -3.71 KCAL/MOL
REMARK 922        TOTAL FREE ENERGY PREDICTED BY IDOCK:   -4.27 KCAL/MOL
REMARK 923 INTER-LIGAND FREE ENERGY PREDICTED BY IDOCK:   -4.48 KCAL/MOL
REMARK 924 INTRA-LIGAND FREE ENERGY PREDICTED BY IDOCK:    0.20 KCAL/MOL
REMARK 927      BINDING AFFINITY PREDICTED BY RF-SCORE:    0.00 PKD
ROOT
HETATM    1  N   UNL     1     -10.250   7.879  66.628  1.00  0.00    -0.435 NA 
HETATM    2  H2  UNL     1     -10.655   7.345  67.396  1.00  0.00     0.000 HD 
HETATM    3  N   UNL     1     -10.197   9.217  66.709  1.00  0.00    -0.262 NA 
HETATM    4  H1  UNL     1      -9.889   7.388  65.810  1.00  0.00     0.000 HD 
HETATM    5  H   UNL     1      -9.791   9.751  65.941  1.00  0.00     0.000 HD 
ENDROOT
BRANCH   3   6
HETATM    6  C   UNL     1     -10.661   9.850  67.765  1.00  0.00    -0.277 A  
HETATM    7  N   UNL     1     -11.213  11.086  67.472  1.00  0.00    -0.362 NA 
HETATM    8  N   UNL     1     -11.494  11.999  68.434  1.00  0.00    -0.276 NA 
HETATM    9  C   UNL     1     -11.821  11.600  69.712  1.00  0.00    -0.357 A  
HETATM   10  C   UNL     1     -11.369  10.244  70.136  1.00  0.00    -0.388 A  
HETATM   11  C   UNL     1     -10.702   9.410  69.213  1.00  0.00    -0.228 A  
HETATM   12  C   UNL     1     -10.121   8.230  69.698  1.00  0.00    -0.199 A  
HETATM   13  C   UNL     1     -11.545   9.844  71.470  1.00  0.00    -0.375 A  
HETATM   14  C   UNL     1     -10.285   7.843  71.035  1.00  0.00    -0.217 A  
HETATM   15  C   UNL     1     -11.017   8.634  71.911  1.00  0.00    -0.412 A  
BRANCH   9  16
HETATM   16  N   UNL     1     -12.469  12.355  70.565  1.00  0.00    -0.241 NA 
HETATM   17  H1  UNL     1     -12.572  14.241  71.276  1.00  0.00     0.000 HD 
HETATM   18  N   UNL     1     -12.068  13.653  70.613  1.00  0.00    -0.448 NA 
HETATM   19  H   UNL     1     -13.221  11.995  71.151  1.00  0.00     0.000 HD 
HETATM   20  H2  UNL     1     -11.316  14.014  70.026  1.00  0.00     0.000 HD 
ENDBRANCH   9  16
ENDBRANCH   3   6
TORSDOF 2
ENDMDL
MODEL      137
REMARK 921   NORMALIZED FREE ENERGY PREDICTED BY IDOCK:   -3.69 KCAL/MOL
REMARK 922        TOTAL FREE ENERGY PREDICTED BY IDOCK:   -4.25 KCAL/MOL
REMARK 923 INTER-LIGAND FREE ENERGY PREDICTED BY IDOCK:   -4.12 KCAL/MOL
REMARK 924 INTRA-LIGAND FREE ENERGY PREDICTED BY IDOCK:   -0.13 KCAL/MOL
REMARK 927      BINDING AFFINITY PREDICTED BY RF-SCORE:    0.00 PKD
ROOT
HETATM    1  N   UNL     1     -10.868   5.611  66.358  1.00  0.00    -0.680 NA 
HETATM    2  H2  UNL     1      -9.872   5.487  66.542  1.00  0.00     0.000 HD 
HETATM    3  N   UNL     1     -11.527   6.623  66.940  1.00  0.00    -0.767 NA 
HETATM    4  H1  UNL     1     -11.347   4.962  65.733  1.00  0.00     0.000 HD 
HETATM    5  H   UNL     1     -12.522   6.747  66.756  1.00  0.00     0.000 HD 
ENDROOT
BRANCH   3   6
HETATM    6  C   UNL     1     -10.909   7.460  67.745  1.00  0.00    -0.116 A  
HETATM    7  N   UNL     1     -10.882   7.042  69.065  1.00  0.00    -0.209 NA 
HETATM    8  N   UNL     1     -10.540   7.872  70.081  1.00  0.00    -0.233 NA 
HETATM    9  C   UNL     1      -9.666   8.917  69.874  1.00  0.00    -0.177 A  
HETATM   10  C   UNL     1      -9.523   9.415  68.475  1.00  0.00    -0.150 A  
HETATM   11  C   UNL     1     -10.213   8.767  67.429  1.00  0.00    -0.318 A  
HETATM   12  C   UNL     1     -10.212   9.378  66.167  1.00  0.00    -0.264 A  
HETATM   13  C   UNL     1      -8.761  10.569  68.229  1.00  0.00    -0.135 A  
HETATM   14  C   UNL     1      -9.464  10.538  65.929  1.00  0.00    -0.236 A  
HETATM   15  C   UNL     1      -8.720  11.117  66.950  1.00  0.00    -0.152 A  
BRANCH   9  16
HETATM   16  N   UNL     1      -8.995   9.504  70.835  1.00  0.00    -0.334 NA 
HETATM   17  H1  UNL     1      -8.207   9.180  72.664  1.00  0.00     0.000 HD 
HETATM   18  N   UNL     1      -8.729   8.724  71.917  1.00  0.00    -0.351 NA 
HETATM   19  H   UNL     1      -8.693  10.476  70.775  1.00  0.00     0.000 HD 
HETATM   20  H2  UNL     1      -9.031   7.752  71.976  1.00  0.00     0.000 HD 
ENDBRANCH   9  16
ENDBRANCH   3   6
TORSDOF 2
ENDMDL
MODEL      138
REMARK 921   NORMALIZED FREE ENERGY PREDICTED BY IDOCK:   -3.68 KCAL/MOL
REMARK 922        TOTAL FREE ENERGY PREDICTED BY IDOCK:   -4.25 KCAL/MOL
REMARK 923 INTER-LIGAND FREE ENERGY PREDICTED BY IDOCK:   -4.11 KCAL/MOL
REMARK 924 INTRA-LIGAND FREE ENERGY PREDICTED BY IDOCK:   -0.14 KCAL/MOL
REMARK 927      BINDING AFFINITY PREDICTED BY RF-SCORE:    0.00 PKD
ROOT
HETATM    1  N   UNL     1     -11.712  14.545  71.302  1.00  0.00    -0.487 NA 
HETATM    2  H2  UNL     1     -10.953  13.870  71.394  1.00  0.00     0.000 HD 
HETATM    3  N   UNL     1     -11.791  15.304  70.200  1.00  0.00    -0.298 NA 
HETATM    4  H1  UNL     1     -12.399  14.633  72.051  1.00  0.00     0.000 HD 
HETATM    5  H   UNL     1     -12.550  15.979  70.108  1.00  0.00     0.000 HD 
ENDROOT
BRANCH   3   6
HETATM    6  C   UNL     1     -10.905  15.190  69.234  1.00  0.00    -0.255 A  
HETATM    7  N   UNL     1      -9.731  15.884  69.474  1.00  0.00    -0.269 NA 
HETATM    8  N   UNL     1      -8.816  16.116  68.501  1.00  0.00    -0.191 NA 
HETATM    9  C   UNL     1      -8.667  15.240  67.448  1.00  0.00    -0.179 A  
HETATM   10  C   UNL     1      -9.828  14.358  67.131  1.00  0.00    -0.254 A  
HETATM   11  C   UNL     1     -10.979  14.399  67.945  1.00  0.00    -0.272 A  
HETATM   12  C   UNL     1     -12.117  13.707  67.505  1.00  0.00    -0.352 A  
HETATM   13  C   UNL     1      -9.787  13.552  65.982  1.00  0.00    -0.277 A  
HETATM   14  C   UNL     1     -12.077  12.918  66.349  1.00  0.00    -0.400 A  
HETATM   15  C   UNL     1     -10.908  12.819  65.604  1.00  0.00    -0.300 A  
BRANCH   9  16
HETATM   16  N   UNL     1      -7.589  15.171  66.707  1.00  0.00    -0.270 NA 
HETATM   17  H1  UNL     1      -5.585  14.961  66.814  1.00  0.00     0.000 HD 
HETATM   18  N   UNL     1      -6.424  15.015  67.391  1.00  0.00    -0.310 NA 
HETATM   19  H   UNL     1      -7.620  15.231  65.690  1.00  0.00     0.000 HD 
HETATM   20  H2  UNL     1      -6.392  14.956  68.408  1.00  0.00     0.000 HD 
ENDBRANCH   9  16
ENDBRANCH   3   6
TORSDOF 2
ENDMDL
MODEL      139
REMARK 921   NORMALIZED FREE ENERGY PREDICTED BY IDOCK:   -3.67 KCAL/MOL
REMARK 922        TOTAL FREE ENERGY PREDICTED BY IDOCK:   -4.23 KCAL/MOL
REMARK 923 INTER-LIGAND FREE ENERGY PREDICTED BY IDOCK:   -4.13 KCAL/MOL
REMARK 924 INTRA-LIGAND FREE ENERGY PREDICTED BY IDOCK:   -0.10 KCAL/MOL
REMARK 927      BINDING AFFINITY PREDICTED BY RF-SCORE:    0.00 PKD
ROOT
HETATM    1  N   UNL     1     -13.713   7.517  71.103  1.00  0.00    -0.627 NA 
HETATM    2  H2  UNL     1     -14.075   6.563  71.096  1.00  0.00     0.000 HD 
HETATM    3  N   UNL     1     -12.419   7.733  70.827  1.00  0.00    -0.523 NA 
HETATM    4  H1  UNL     1     -14.341   8.290  71.321  1.00  0.00     0.000 HD 
HETATM    5  H   UNL     1     -12.056   8.687  70.834  1.00  0.00     0.000 HD 
ENDROOT
BRANCH   3   6
HETATM    6  C   UNL     1     -11.609   6.735  70.546  1.00  0.00    -0.372 A  
HETATM    7  N   UNL     1     -11.222   6.691  69.217  1.00  0.00    -0.285 NA 
HETATM    8  N   UNL     1     -10.621   5.604  68.674  1.00  0.00    -0.215 NA 
HETATM    9  C   UNL     1      -9.842   4.769  69.444  1.00  0.00    -0.212 A  
HETATM   10  C   UNL     1     -10.087   4.780  70.916  1.00  0.00    -0.275 A  
HETATM   11  C   UNL     1     -11.033   5.674  71.460  1.00  0.00    -0.268 A  
HETATM   12  C   UNL     1     -11.378   5.520  72.810  1.00  0.00    -0.359 A  
HETATM   13  C   UNL     1      -9.427   3.846  71.731  1.00  0.00    -0.210 A  
HETATM   14  C   UNL     1     -10.730   4.576  73.616  1.00  0.00    -0.344 A  
HETATM   15  C   UNL     1      -9.739   3.760  73.085  1.00  0.00    -0.163 A  
BRANCH   9  16
HETATM   16  N   UNL     1      -8.938   3.959  68.951  1.00  0.00    -0.108 NA 
HETATM   17  H1  UNL     1      -8.538   2.787  67.358  1.00  0.00     0.000 HD 
HETATM   18  N   UNL     1      -9.241   3.418  67.742  1.00  0.00    -0.174 NA 
HETATM   19  H   UNL     1      -8.068   3.750  69.440  1.00  0.00     0.000 HD 
HETATM   20  H2  UNL     1     -10.111   3.627  67.253  1.00  0.00     0.000 HD 
ENDBRANCH   9  16
ENDBRANCH   3   6
TORSDOF 2
ENDMDL
MODEL      140
REMARK 921   NORMALIZED FREE ENERGY PREDICTED BY IDOCK:   -3.65 KCAL/MOL
REMARK 922        TOTAL FREE ENERGY PREDICTED BY IDOCK:   -4.21 KCAL/MOL
REMARK 923 INTER-LIGAND FREE ENERGY PREDICTED BY IDOCK:   -5.42 KCAL/MOL
REMARK 924 INTRA-LIGAND FREE ENERGY PREDICTED BY IDOCK:    1.21 KCAL/MOL
REMARK 927      BINDING AFFINITY PREDICTED BY RF-SCORE:    0.00 PKD
ROOT
HETATM    1  N   UNL     1     -11.016   9.464  68.030  1.00  0.00    -0.497 NA 
HETATM    2  H2  UNL     1     -11.890   9.052  68.359  1.00  0.00     0.000 HD 
HETATM    3  N   UNL     1     -10.621  10.649  68.516  1.00  0.00    -0.187 NA 
HETATM    4  H1  UNL     1     -10.457   8.966  67.338  1.00  0.00     0.000 HD 
HETATM    5  H   UNL     1      -9.748  11.061  68.187  1.00  0.00     0.000 HD 
ENDROOT
BRANCH   3   6
HETATM    6  C   UNL     1     -11.343  11.290  69.410  1.00  0.00    -0.292 A  
HETATM    7  N   UNL     1     -11.834  10.475  70.415  1.00  0.00    -0.311 NA 
HETATM    8  N   UNL     1     -12.808  10.881  71.266  1.00  0.00    -0.410 NA 
HETATM    9  C   UNL     1     -12.948  12.212  71.595  1.00  0.00    -0.321 A  
HETATM   10  C   UNL     1     -12.380  13.210  70.642  1.00  0.00    -0.405 A  
HETATM   11  C   UNL     1     -11.674  12.765  69.504  1.00  0.00    -0.383 A  
HETATM   12  C   UNL     1     -11.329  13.717  68.535  1.00  0.00    -0.318 A  
HETATM   13  C   UNL     1     -12.621  14.577  70.851  1.00  0.00    -0.414 A  
HETATM   14  C   UNL     1     -11.586  15.079  68.739  1.00  0.00    -0.357 A  
HETATM   15  C   UNL     1     -12.206  15.510  69.906  1.00  0.00    -0.351 A  
BRANCH   9  16
HETATM   16  N   UNL     1     -13.572  12.633  72.667  1.00  0.00    -0.661 NA 
HETATM   17  H1  UNL     1     -13.686  14.192  73.944  1.00  0.00     0.000 HD 
HETATM   18  N   UNL     1     -13.200  13.864  73.109  1.00  0.00    -0.507 NA 
HETATM   19  H   UNL     1     -14.286  12.077  73.137  1.00  0.00     0.000 HD 
HETATM   20  H2  UNL     1     -12.487  14.420  72.639  1.00  0.00     0.000 HD 
ENDBRANCH   9  16
ENDBRANCH   3   6
TORSDOF 2
ENDMDL
MODEL      141
REMARK 921   NORMALIZED FREE ENERGY PREDICTED BY IDOCK:   -3.62 KCAL/MOL
REMARK 922        TOTAL FREE ENERGY PREDICTED BY IDOCK:   -4.17 KCAL/MOL
REMARK 923 INTER-LIGAND FREE ENERGY PREDICTED BY IDOCK:   -4.05 KCAL/MOL
REMARK 924 INTRA-LIGAND FREE ENERGY PREDICTED BY IDOCK:   -0.13 KCAL/MOL
REMARK 927      BINDING AFFINITY PREDICTED BY RF-SCORE:    0.00 PKD
ROOT
HETATM    1  N   UNL     1     -11.215   5.971  66.730  1.00  0.00    -0.696 NA 
HETATM    2  H2  UNL     1     -11.204   4.962  66.878  1.00  0.00     0.000 HD 
HETATM    3  N   UNL     1     -10.983   6.792  67.765  1.00  0.00    -0.468 NA 
HETATM    4  H1  UNL     1     -11.402   6.340  65.798  1.00  0.00     0.000 HD 
HETATM    5  H   UNL     1     -10.994   7.801  67.618  1.00  0.00     0.000 HD 
ENDROOT
BRANCH   3   6
HETATM    6  C   UNL     1     -10.742   6.315  68.967  1.00  0.00    -0.302 A  
HETATM    7  N   UNL     1     -10.156   5.060  68.960  1.00  0.00    -0.188 NA 
HETATM    8  N   UNL     1     -10.079   4.291  70.074  1.00  0.00    -0.118 NA 
HETATM    9  C   UNL     1     -10.005   4.865  71.324  1.00  0.00    -0.201 A  
HETATM   10  C   UNL     1     -10.518   6.259  71.462  1.00  0.00    -0.266 A  
HETATM   11  C   UNL     1     -10.982   6.949  70.321  1.00  0.00    -0.322 A  
HETATM   12  C   UNL     1     -11.635   8.173  70.518  1.00  0.00    -0.130 A  
HETATM   13  C   UNL     1     -10.603   6.839  72.738  1.00  0.00    -0.264 A  
HETATM   14  C   UNL     1     -11.733   8.741  71.795  1.00  0.00    -0.416 A  
HETATM   15  C   UNL     1     -11.195   8.089  72.897  1.00  0.00    -0.389 A  
BRANCH   9  16
HETATM   16  N   UNL     1      -9.545   4.244  72.382  1.00  0.00    -0.136 NA 
HETATM   17  H1  UNL     1      -9.897   2.667  73.591  1.00  0.00     0.000 HD 
HETATM   18  N   UNL     1     -10.255   3.150  72.767  1.00  0.00    -0.154 NA 
HETATM   19  H   UNL     1      -8.714   4.559  72.882  1.00  0.00     0.000 HD 
HETATM   20  H2  UNL     1     -11.086   2.835  72.268  1.00  0.00     0.000 HD 
ENDBRANCH   9  16
ENDBRANCH   3   6
TORSDOF 2
ENDMDL
MODEL      142
REMARK 921   NORMALIZED FREE ENERGY PREDICTED BY IDOCK:   -3.59 KCAL/MOL
REMARK 922        TOTAL FREE ENERGY PREDICTED BY IDOCK:   -4.14 KCAL/MOL
REMARK 923 INTER-LIGAND FREE ENERGY PREDICTED BY IDOCK:   -4.08 KCAL/MOL
REMARK 924 INTRA-LIGAND FREE ENERGY PREDICTED BY IDOCK:   -0.06 KCAL/MOL
REMARK 927      BINDING AFFINITY PREDICTED BY RF-SCORE:    0.00 PKD
ROOT
HETATM    1  N   UNL     1      -7.011   9.233  70.511  1.00  0.00    -0.081 NA 
HETATM    2  H2  UNL     1      -6.943   8.966  71.493  1.00  0.00     0.000 HD 
HETATM    3  N   UNL     1      -8.186   9.117  69.875  1.00  0.00    -0.122 NA 
HETATM    4  H1  UNL     1      -6.184   9.585  70.028  1.00  0.00     0.000 HD 
HETATM    5  H   UNL     1      -8.254   9.384  68.893  1.00  0.00     0.000 HD 
ENDROOT
BRANCH   3   6
HETATM    6  C   UNL     1      -9.252   8.664  70.498  1.00  0.00    -0.175 A  
HETATM    7  N   UNL     1     -10.261   9.603  70.626  1.00  0.00    -0.288 NA 
HETATM    8  N   UNL     1     -11.315   9.425  71.461  1.00  0.00    -0.379 NA 
HETATM    9  C   UNL     1     -11.774   8.160  71.757  1.00  0.00    -0.296 A  
HETATM   10  C   UNL     1     -10.817   7.030  71.575  1.00  0.00    -0.255 A  
HETATM   11  C   UNL     1      -9.531   7.282  71.051  1.00  0.00    -0.158 A  
HETATM   12  C   UNL     1      -8.597   6.238  71.080  1.00  0.00    -0.132 A  
HETATM   13  C   UNL     1     -11.182   5.743  71.999  1.00  0.00    -0.307 A  
HETATM   14  C   UNL     1      -8.960   4.958  71.519  1.00  0.00    -0.160 A  
HETATM   15  C   UNL     1     -10.256   4.705  71.953  1.00  0.00    -0.254 A  
BRANCH   9  16
HETATM   16  N   UNL     1     -12.978   7.913  72.212  1.00  0.00    -0.525 NA 
HETATM   17  H1  UNL     1     -14.423   8.662  73.404  1.00  0.00     0.000 HD 
HETATM   18  N   UNL     1     -13.486   8.854  73.050  1.00  0.00    -0.952 NA 
HETATM   19  H   UNL     1     -13.496   7.073  71.956  1.00  0.00     0.000 HD 
HETATM   20  H2  UNL     1     -12.968   9.694  73.306  1.00  0.00     0.000 HD 
ENDBRANCH   9  16
ENDBRANCH   3   6
TORSDOF 2
ENDMDL
MODEL      143
REMARK 921   NORMALIZED FREE ENERGY PREDICTED BY IDOCK:   -3.58 KCAL/MOL
REMARK 922        TOTAL FREE ENERGY PREDICTED BY IDOCK:   -4.13 KCAL/MOL
REMARK 923 INTER-LIGAND FREE ENERGY PREDICTED BY IDOCK:   -4.46 KCAL/MOL
REMARK 924 INTRA-LIGAND FREE ENERGY PREDICTED BY IDOCK:    0.33 KCAL/MOL
REMARK 927      BINDING AFFINITY PREDICTED BY RF-SCORE:    0.00 PKD
ROOT
HETATM    1  N   UNL     1      -6.384  17.102  66.116  1.00  0.00    -0.194 NA 
HETATM    2  H2  UNL     1      -6.098  16.164  66.396  1.00  0.00     0.000 HD 
HETATM    3  N   UNL     1      -7.685  17.370  65.936  1.00  0.00    -0.511 NA 
HETATM    4  H1  UNL     1      -5.675  17.823  65.979  1.00  0.00     0.000 HD 
HETATM    5  H   UNL     1      -7.971  18.308  65.656  1.00  0.00     0.000 HD 
ENDROOT
BRANCH   3   6
HETATM    6  C   UNL     1      -8.599  16.441  66.113  1.00  0.00    -0.308 A  
HETATM    7  N   UNL     1      -9.822  16.748  65.541  1.00  0.00    -0.563 NA 
HETATM    8  N   UNL     1     -10.953  16.062  65.837  1.00  0.00    -0.185 NA 
HETATM    9  C   UNL     1     -10.898  14.736  66.205  1.00  0.00    -0.322 A  
HETATM   10  C   UNL     1      -9.604  14.238  66.757  1.00  0.00    -0.290 A  
HETATM   11  C   UNL     1      -8.490  15.102  66.812  1.00  0.00    -0.272 A  
HETATM   12  C   UNL     1      -7.357  14.665  67.513  1.00  0.00    -0.220 A  
HETATM   13  C   UNL     1      -9.534  12.938  67.282  1.00  0.00    -0.216 A  
HETATM   14  C   UNL     1      -7.297  13.373  68.051  1.00  0.00    -0.129 A  
HETATM   15  C   UNL     1      -8.372  12.503  67.913  1.00  0.00    -0.167 A  
BRANCH   9  16
HETATM   16  N   UNL     1     -11.918  13.917  66.126  1.00  0.00    -0.400 NA 
HETATM   17  H1  UNL     1     -13.463  13.396  64.936  1.00  0.00     0.000 HD 
HETATM   18  N   UNL     1     -12.669  14.033  64.998  1.00  0.00    -0.685 NA 
HETATM   19  H   UNL     1     -12.133  13.241  66.858  1.00  0.00     0.000 HD 
HETATM   20  H2  UNL     1     -12.453  14.709  64.266  1.00  0.00     0.000 HD 
ENDBRANCH   9  16
ENDBRANCH   3   6
TORSDOF 2
ENDMDL
MODEL      144
REMARK 921   NORMALIZED FREE ENERGY PREDICTED BY IDOCK:   -3.55 KCAL/MOL
REMARK 922        TOTAL FREE ENERGY PREDICTED BY IDOCK:   -4.10 KCAL/MOL
REMARK 923 INTER-LIGAND FREE ENERGY PREDICTED BY IDOCK:   -3.99 KCAL/MOL
REMARK 924 INTRA-LIGAND FREE ENERGY PREDICTED BY IDOCK:   -0.11 KCAL/MOL
REMARK 927      BINDING AFFINITY PREDICTED BY RF-SCORE:    0.00 PKD
ROOT
HETATM    1  N   UNL     1      -6.821  14.430  70.310  1.00  0.00    -0.399 NA 
HETATM    2  H2  UNL     1      -7.573  13.745  70.233  1.00  0.00     0.000 HD 
HETATM    3  N   UNL     1      -6.816  15.499  69.501  1.00  0.00    -0.175 NA 
HETATM    4  H1  UNL     1      -6.084  14.291  71.002  1.00  0.00     0.000 HD 
HETATM    5  H   UNL     1      -6.064  16.183  69.577  1.00  0.00     0.000 HD 
ENDROOT
BRANCH   3   6
HETATM    6  C   UNL     1      -7.766  15.678  68.609  1.00  0.00    -0.150 A  
HETATM    7  N   UNL     1      -8.217  14.502  68.034  1.00  0.00    -0.136 NA 
HETATM    8  N   UNL     1      -8.986  14.490  66.917  1.00  0.00    -0.239 NA 
HETATM    9  C   UNL     1      -9.834  15.537  66.633  1.00  0.00    -0.254 A  
HETATM   10  C   UNL     1      -9.522  16.853  67.262  1.00  0.00    -0.242 A  
HETATM   11  C   UNL     1      -8.439  16.958  68.160  1.00  0.00    -0.217 A  
HETATM   12  C   UNL     1      -8.055  18.241  68.576  1.00  0.00    -0.330 A  
HETATM   13  C   UNL     1     -10.265  17.986  66.894  1.00  0.00    -0.366 A  
HETATM   14  C   UNL     1      -8.789  19.372  68.193  1.00  0.00    -0.376 A  
HETATM   15  C   UNL     1      -9.905  19.242  67.376  1.00  0.00    -0.425 A  
BRANCH   9  16
HETATM   16  N   UNL     1     -10.863  15.440  65.827  1.00  0.00    -0.339 NA 
HETATM   17  H1  UNL     1     -11.789  14.172  64.560  1.00  0.00     0.000 HD 
HETATM   18  N   UNL     1     -10.989  14.247  65.188  1.00  0.00    -0.341 NA 
HETATM   19  H   UNL     1     -11.522  16.206  65.688  1.00  0.00     0.000 HD 
HETATM   20  H2  UNL     1     -10.330  13.481  65.327  1.00  0.00     0.000 HD 
ENDBRANCH   9  16
ENDBRANCH   3   6
TORSDOF 2
ENDMDL
MODEL      145
REMARK 921   NORMALIZED FREE ENERGY PREDICTED BY IDOCK:   -3.50 KCAL/MOL
REMARK 922        TOTAL FREE ENERGY PREDICTED BY IDOCK:   -4.05 KCAL/MOL
REMARK 923 INTER-LIGAND FREE ENERGY PREDICTED BY IDOCK:   -4.16 KCAL/MOL
REMARK 924 INTRA-LIGAND FREE ENERGY PREDICTED BY IDOCK:    0.11 KCAL/MOL
REMARK 927      BINDING AFFINITY PREDICTED BY RF-SCORE:    0.00 PKD
ROOT
HETATM    1  N   UNL     1      -6.189  15.111  70.092  1.00  0.00    -0.152 NA 
HETATM    2  H2  UNL     1      -5.977  15.755  70.854  1.00  0.00     0.000 HD 
HETATM    3  N   UNL     1      -6.659  15.593  68.932  1.00  0.00    -0.111 NA 
HETATM    4  H1  UNL     1      -6.040  14.111  70.224  1.00  0.00     0.000 HD 
HETATM    5  H   UNL     1      -6.871  14.949  68.170  1.00  0.00     0.000 HD 
ENDROOT
BRANCH   3   6
HETATM    6  C   UNL     1      -6.850  16.883  68.762  1.00  0.00    -0.195 A  
HETATM    7  N   UNL     1      -5.683  17.627  68.801  1.00  0.00    -0.164 NA 
HETATM    8  N   UNL     1      -5.690  18.978  68.918  1.00  0.00    -0.205 NA 
HETATM    9  C   UNL     1      -6.737  19.724  68.423  1.00  0.00    -0.289 A  
HETATM   10  C   UNL     1      -8.042  19.025  68.240  1.00  0.00    -0.359 A  
HETATM   11  C   UNL     1      -8.135  17.641  68.504  1.00  0.00    -0.283 A  
HETATM   12  C   UNL     1      -9.412  17.062  68.512  1.00  0.00    -0.269 A  
HETATM   13  C   UNL     1      -9.177  19.767  67.880  1.00  0.00    -0.427 A  
HETATM   14  C   UNL     1     -10.545  17.810  68.168  1.00  0.00    -0.350 A  
HETATM   15  C   UNL     1     -10.425  19.152  67.827  1.00  0.00    -0.512 A  
BRANCH   9  16
HETATM   16  N   UNL     1      -6.650  21.002  68.144  1.00  0.00    -0.230 NA 
HETATM   17  H1  UNL     1      -6.532  22.298  66.602  1.00  0.00     0.000 HD 
HETATM   18  N   UNL     1      -6.599  21.304  66.819  1.00  0.00    -0.613 NA 
HETATM   19  H   UNL     1      -6.622  21.718  68.868  1.00  0.00     0.000 HD 
HETATM   20  H2  UNL     1      -6.627  20.587  66.095  1.00  0.00     0.000 HD 
ENDBRANCH   9  16
ENDBRANCH   3   6
TORSDOF 2
ENDMDL
MODEL      146
REMARK 921   NORMALIZED FREE ENERGY PREDICTED BY IDOCK:   -3.50 KCAL/MOL
REMARK 922        TOTAL FREE ENERGY PREDICTED BY IDOCK:   -4.04 KCAL/MOL
REMARK 923 INTER-LIGAND FREE ENERGY PREDICTED BY IDOCK:   -3.92 KCAL/MOL
REMARK 924 INTRA-LIGAND FREE ENERGY PREDICTED BY IDOCK:   -0.12 KCAL/MOL
REMARK 927      BINDING AFFINITY PREDICTED BY RF-SCORE:    0.00 PKD
ROOT
HETATM    1  N   UNL     1      -5.290  18.591  69.028  1.00  0.00    -0.195 NA 
HETATM    2  H2  UNL     1      -5.384  19.389  68.399  1.00  0.00     0.000 HD 
HETATM    3  N   UNL     1      -6.280  17.691  69.104  1.00  0.00    -0.216 NA 
HETATM    4  H1  UNL     1      -4.443  18.491  69.588  1.00  0.00     0.000 HD 
HETATM    5  H   UNL     1      -6.186  16.893  69.732  1.00  0.00     0.000 HD 
ENDROOT
BRANCH   3   6
HETATM    6  C   UNL     1      -7.371  17.820  68.381  1.00  0.00    -0.257 A  
HETATM    7  N   UNL     1      -7.752  19.137  68.181  1.00  0.00    -0.282 NA 
HETATM    8  N   UNL     1      -8.976  19.473  67.704  1.00  0.00    -0.306 NA 
HETATM    9  C   UNL     1      -9.661  18.626  66.861  1.00  0.00    -0.310 A  
HETATM   10  C   UNL     1      -9.290  17.181  66.902  1.00  0.00    -0.260 A  
HETATM   11  C   UNL     1      -8.228  16.756  67.728  1.00  0.00    -0.190 A  
HETATM   12  C   UNL     1      -8.037  15.377  67.891  1.00  0.00    -0.148 A  
HETATM   13  C   UNL     1     -10.052  16.254  66.174  1.00  0.00    -0.362 A  
HETATM   14  C   UNL     1      -8.811  14.454  67.176  1.00  0.00    -0.244 A  
HETATM   15  C   UNL     1      -9.797  14.891  66.300  1.00  0.00    -0.315 A  
BRANCH   9  16
HETATM   16  N   UNL     1     -10.626  19.017  66.066  1.00  0.00    -0.458 NA 
HETATM   17  H1  UNL     1     -11.283  20.605  65.009  1.00  0.00     0.000 HD 
HETATM   18  N   UNL     1     -10.532  20.301  65.628  1.00  0.00    -0.380 NA 
HETATM   19  H   UNL     1     -11.393  18.403  65.795  1.00  0.00     0.000 HD 
HETATM   20  H2  UNL     1      -9.765  20.915  65.898  1.00  0.00     0.000 HD 
ENDBRANCH   9  16
ENDBRANCH   3   6
TORSDOF 2
ENDMDL
MODEL      147
REMARK 921   NORMALIZED FREE ENERGY PREDICTED BY IDOCK:   -3.44 KCAL/MOL
REMARK 922        TOTAL FREE ENERGY PREDICTED BY IDOCK:   -3.98 KCAL/MOL
REMARK 923 INTER-LIGAND FREE ENERGY PREDICTED BY IDOCK:   -3.85 KCAL/MOL
REMARK 924 INTRA-LIGAND FREE ENERGY PREDICTED BY IDOCK:   -0.13 KCAL/MOL
REMARK 927      BINDING AFFINITY PREDICTED BY RF-SCORE:    0.00 PKD
ROOT
HETATM    1  N   UNL     1      -8.902  12.833  68.673  1.00  0.00    -0.383 NA 
HETATM    2  H2  UNL     1      -8.216  12.186  69.062  1.00  0.00     0.000 HD 
HETATM    3  N   UNL     1      -9.966  12.349  68.016  1.00  0.00    -0.201 NA 
HETATM    4  H1  UNL     1      -8.769  13.837  68.791  1.00  0.00     0.000 HD 
HETATM    5  H   UNL     1     -10.653  12.995  67.627  1.00  0.00     0.000 HD 
ENDROOT
BRANCH   3   6
HETATM    6  C   UNL     1     -10.138  11.053  67.865  1.00  0.00    -0.178 A  
HETATM    7  N   UNL     1      -9.880  10.606  66.580  1.00  0.00    -0.197 NA 
HETATM    8  N   UNL     1     -10.254   9.374  66.154  1.00  0.00    -0.249 NA 
HETATM    9  C   UNL     1     -10.347   8.320  67.037  1.00  0.00    -0.323 A  
HETATM   10  C   UNL     1     -10.535   8.657  68.478  1.00  0.00    -0.209 A  
HETATM   11  C   UNL     1     -10.537  10.008  68.884  1.00  0.00    -0.239 A  
HETATM   12  C   UNL     1     -10.912  10.293  70.205  1.00  0.00    -0.375 A  
HETATM   13  C   UNL     1     -10.783   7.627  69.399  1.00  0.00    -0.188 A  
HETATM   14  C   UNL     1     -11.174   9.263  71.118  1.00  0.00    -0.413 A  
HETATM   15  C   UNL     1     -11.085   7.934  70.723  1.00  0.00    -0.264 A  
BRANCH   9  16
HETATM   16  N   UNL     1     -10.313   7.062  66.672  1.00  0.00    -0.462 NA 
HETATM   17  H1  UNL     1      -9.063   5.621  66.013  1.00  0.00     0.000 HD 
HETATM   18  N   UNL     1      -9.090   6.600  66.297  1.00  0.00    -0.173 NA 
HETATM   19  H   UNL     1     -11.144   6.471  66.669  1.00  0.00     0.000 HD 
HETATM   20  H2  UNL     1      -8.259   7.190  66.300  1.00  0.00     0.000 HD 
ENDBRANCH   9  16
ENDBRANCH   3   6
TORSDOF 2
ENDMDL
MODEL      148
REMARK 921   NORMALIZED FREE ENERGY PREDICTED BY IDOCK:   -3.44 KCAL/MOL
REMARK 922        TOTAL FREE ENERGY PREDICTED BY IDOCK:   -3.98 KCAL/MOL
REMARK 923 INTER-LIGAND FREE ENERGY PREDICTED BY IDOCK:   -3.86 KCAL/MOL
REMARK 924 INTRA-LIGAND FREE ENERGY PREDICTED BY IDOCK:   -0.12 KCAL/MOL
REMARK 927      BINDING AFFINITY PREDICTED BY RF-SCORE:    0.00 PKD
ROOT
HETATM    1  N   UNL     1      -7.529   6.425  65.304  1.00  0.00    -0.077 NA 
HETATM    2  H2  UNL     1      -7.494   6.214  66.302  1.00  0.00     0.000 HD 
HETATM    3  N   UNL     1      -8.303   7.429  64.869  1.00  0.00    -0.311 NA 
HETATM    4  H1  UNL     1      -6.974   5.869  64.654  1.00  0.00     0.000 HD 
HETATM    5  H   UNL     1      -8.339   7.641  63.872  1.00  0.00     0.000 HD 
ENDROOT
BRANCH   3   6
HETATM    6  C   UNL     1      -9.019   8.147  65.708  1.00  0.00    -0.119 A  
HETATM    7  N   UNL     1      -9.219   7.532  66.933  1.00  0.00    -0.142 NA 
HETATM    8  N   UNL     1     -10.141   7.975  67.823  1.00  0.00    -0.183 NA 
HETATM    9  C   UNL     1     -10.490   9.306  67.874  1.00  0.00    -0.236 A  
HETATM   10  C   UNL     1     -10.243  10.120  66.648  1.00  0.00    -0.287 A  
HETATM   11  C   UNL     1      -9.610   9.529  65.534  1.00  0.00    -0.349 A  
HETATM   12  C   UNL     1      -9.574  10.261  64.339  1.00  0.00    -0.378 A  
HETATM   13  C   UNL     1     -10.711  11.443  66.593  1.00  0.00    -0.316 A  
HETATM   14  C   UNL     1     -10.057  11.575  64.283  1.00  0.00    -0.338 A  
HETATM   15  C   UNL     1     -10.600  12.173  65.413  1.00  0.00    -0.309 A  
BRANCH   9  16
HETATM   16  N   UNL     1     -11.047   9.872  68.917  1.00  0.00    -0.401 NA 
HETATM   17  H1  UNL     1     -12.055   9.456  70.615  1.00  0.00     0.000 HD 
HETATM   18  N   UNL     1     -11.621   9.016  69.803  1.00  0.00    -0.419 NA 
HETATM   19  H   UNL     1     -11.050  10.882  69.053  1.00  0.00     0.000 HD 
HETATM   20  H2  UNL     1     -11.618   8.006  69.667  1.00  0.00     0.000 HD 
ENDBRANCH   9  16
ENDBRANCH   3   6
TORSDOF 2
ENDMDL
MODEL      149
REMARK 921   NORMALIZED FREE ENERGY PREDICTED BY IDOCK:   -3.40 KCAL/MOL
REMARK 922        TOTAL FREE ENERGY PREDICTED BY IDOCK:   -3.94 KCAL/MOL
REMARK 923 INTER-LIGAND FREE ENERGY PREDICTED BY IDOCK:   -3.80 KCAL/MOL
REMARK 924 INTRA-LIGAND FREE ENERGY PREDICTED BY IDOCK:   -0.14 KCAL/MOL
REMARK 927      BINDING AFFINITY PREDICTED BY RF-SCORE:    0.00 PKD
ROOT
HETATM    1  N   UNL     1      -7.320   9.577  71.287  1.00  0.00    -0.321 NA 
HETATM    2  H2  UNL     1      -6.651   9.370  70.546  1.00  0.00     0.000 HD 
HETATM    3  N   UNL     1      -8.634   9.502  71.030  1.00  0.00    -0.347 NA 
HETATM    4  H1  UNL     1      -6.979   9.838  72.212  1.00  0.00     0.000 HD 
HETATM    5  H   UNL     1      -9.303   9.709  71.772  1.00  0.00     0.000 HD 
ENDROOT
BRANCH   3   6
HETATM    6  C   UNL     1      -9.073   9.165  69.837  1.00  0.00    -0.178 A  
HETATM    7  N   UNL     1      -9.128   7.796  69.632  1.00  0.00    -0.146 NA 
HETATM    8  N   UNL     1      -9.289   7.255  68.400  1.00  0.00    -0.143 NA 
HETATM    9  C   UNL     1      -9.977   7.931  67.417  1.00  0.00    -0.198 A  
HETATM   10  C   UNL     1     -10.080   9.413  67.556  1.00  0.00    -0.268 A  
HETATM   11  C   UNL     1      -9.544  10.044  68.699  1.00  0.00    -0.158 A  
HETATM   12  C   UNL     1      -9.483  11.445  68.703  1.00  0.00    -0.168 A  
HETATM   13  C   UNL     1     -10.641  10.166  66.513  1.00  0.00    -0.179 A  
HETATM   14  C   UNL     1     -10.028  12.194  67.653  1.00  0.00    -0.199 A  
HETATM   15  C   UNL     1     -10.629  11.557  66.573  1.00  0.00    -0.301 A  
BRANCH   9  16
HETATM   16  N   UNL     1     -10.507   7.348  66.369  1.00  0.00    -0.437 NA 
HETATM   17  H1  UNL     1     -11.634   5.768  65.815  1.00  0.00     0.000 HD 
HETATM   18  N   UNL     1     -11.221   6.222  66.630  1.00  0.00    -0.753 NA 
HETATM   19  H   UNL     1     -10.391   7.714  65.424  1.00  0.00     0.000 HD 
HETATM   20  H2  UNL     1     -11.337   5.856  67.575  1.00  0.00     0.000 HD 
ENDBRANCH   9  16
ENDBRANCH   3   6
TORSDOF 2
ENDMDL
MODEL      150
REMARK 921   NORMALIZED FREE ENERGY PREDICTED BY IDOCK:   -3.40 KCAL/MOL
REMARK 922        TOTAL FREE ENERGY PREDICTED BY IDOCK:   -3.93 KCAL/MOL
REMARK 923 INTER-LIGAND FREE ENERGY PREDICTED BY IDOCK:   -3.81 KCAL/MOL
REMARK 924 INTRA-LIGAND FREE ENERGY PREDICTED BY IDOCK:   -0.12 KCAL/MOL
REMARK 927      BINDING AFFINITY PREDICTED BY RF-SCORE:    0.00 PKD
ROOT
HETATM    1  N   UNL     1      -7.495   4.322  72.151  1.00  0.00    -0.072 NA 
HETATM    2  H2  UNL     1      -7.389   5.322  72.317  1.00  0.00     0.000 HD 
HETATM    3  N   UNL     1      -8.550   3.875  71.455  1.00  0.00    -0.087 NA 
HETATM    4  H1  UNL     1      -6.795   3.676  72.517  1.00  0.00     0.000 HD 
HETATM    5  H   UNL     1      -8.656   2.874  71.289  1.00  0.00     0.000 HD 
ENDROOT
BRANCH   3   6
HETATM    6  C   UNL     1      -9.452   4.708  70.983  1.00  0.00    -0.161 A  
HETATM    7  N   UNL     1     -10.057   5.482  71.959  1.00  0.00    -0.181 NA 
HETATM    8  N   UNL     1     -11.186   6.196  71.721  1.00  0.00    -0.274 NA 
HETATM    9  C   UNL     1     -11.461   6.682  70.461  1.00  0.00    -0.376 A  
HETATM   10  C   UNL     1     -10.801   5.999  69.311  1.00  0.00    -0.428 A  
HETATM   11  C   UNL     1      -9.885   4.953  69.553  1.00  0.00    -0.287 A  
HETATM   12  C   UNL     1      -9.438   4.208  68.452  1.00  0.00    -0.212 A  
HETATM   13  C   UNL     1     -11.157   6.356  68.001  1.00  0.00    -0.365 A  
HETATM   14  C   UNL     1      -9.808   4.557  67.147  1.00  0.00    -0.225 A  
HETATM   15  C   UNL     1     -10.644   5.643  66.920  1.00  0.00    -0.367 A  
BRANCH   9  16
HETATM   16  N   UNL     1     -12.284   7.675  70.230  1.00  0.00    -0.345 NA 
HETATM   17  H1  UNL     1     -13.193   9.241  71.121  1.00  0.00     0.000 HD 
HETATM   18  N   UNL     1     -12.552   8.468  71.301  1.00  0.00    -0.436 NA 
HETATM   19  H   UNL     1     -12.695   7.840  69.312  1.00  0.00     0.000 HD 
HETATM   20  H2  UNL     1     -12.141   8.302  72.219  1.00  0.00     0.000 HD 
ENDBRANCH   9  16
ENDBRANCH   3   6
TORSDOF 2
ENDMDL
MODEL      151
REMARK 921   NORMALIZED FREE ENERGY PREDICTED BY IDOCK:   -3.40 KCAL/MOL
REMARK 922        TOTAL FREE ENERGY PREDICTED BY IDOCK:   -3.93 KCAL/MOL
REMARK 923 INTER-LIGAND FREE ENERGY PREDICTED BY IDOCK:   -3.79 KCAL/MOL
REMARK 924 INTRA-LIGAND FREE ENERGY PREDICTED BY IDOCK:   -0.14 KCAL/MOL
REMARK 927      BINDING AFFINITY PREDICTED BY RF-SCORE:    0.00 PKD
ROOT
HETATM    1  N   UNL     1     -11.384   4.571  65.097  1.00  0.00    -1.113 NA 
HETATM    2  H2  UNL     1     -12.124   4.429  65.785  1.00  0.00     0.000 HD 
HETATM    3  N   UNL     1     -10.203   5.068  65.492  1.00  0.00    -0.422 NA 
HETATM    4  H1  UNL     1     -11.555   4.332  64.120  1.00  0.00     0.000 HD 
HETATM    5  H   UNL     1      -9.463   5.209  64.804  1.00  0.00     0.000 HD 
ENDROOT
BRANCH   3   6
HETATM    6  C   UNL     1      -9.984   5.375  66.752  1.00  0.00    -0.192 A  
HETATM    7  N   UNL     1      -9.547   4.306  67.516  1.00  0.00    -0.177 NA 
HETATM    8  N   UNL     1      -9.526   4.346  68.871  1.00  0.00    -0.154 NA 
HETATM    9  C   UNL     1      -9.351   5.537  69.540  1.00  0.00    -0.130 A  
HETATM   10  C   UNL     1      -9.696   6.787  68.801  1.00  0.00    -0.132 A  
HETATM   11  C   UNL     1     -10.109   6.710  67.454  1.00  0.00    -0.211 A  
HETATM   12  C   UNL     1     -10.611   7.875  66.857  1.00  0.00    -0.333 A  
HETATM   13  C   UNL     1      -9.676   8.016  69.480  1.00  0.00    -0.170 A  
HETATM   14  C   UNL     1     -10.606   9.096  67.543  1.00  0.00    -0.317 A  
HETATM   15  C   UNL     1     -10.115   9.172  68.841  1.00  0.00    -0.209 A  
BRANCH   9  16
HETATM   16  N   UNL     1      -8.935   5.620  70.780  1.00  0.00    -0.142 NA 
HETATM   17  H1  UNL     1      -7.282   5.464  71.927  1.00  0.00     0.000 HD 
HETATM   18  N   UNL     1      -7.606   5.400  70.962  1.00  0.00    -0.087 NA 
HETATM   19  H   UNL     1      -9.564   5.834  71.553  1.00  0.00     0.000 HD 
HETATM   20  H2  UNL     1      -6.977   5.186  70.188  1.00  0.00     0.000 HD 
ENDBRANCH   9  16
ENDBRANCH   3   6
TORSDOF 2
ENDMDL
MODEL      152
REMARK 921   NORMALIZED FREE ENERGY PREDICTED BY IDOCK:   -3.38 KCAL/MOL
REMARK 922        TOTAL FREE ENERGY PREDICTED BY IDOCK:   -3.91 KCAL/MOL
REMARK 923 INTER-LIGAND FREE ENERGY PREDICTED BY IDOCK:   -3.83 KCAL/MOL
REMARK 924 INTRA-LIGAND FREE ENERGY PREDICTED BY IDOCK:   -0.08 KCAL/MOL
REMARK 927      BINDING AFFINITY PREDICTED BY RF-SCORE:    0.00 PKD
ROOT
HETATM    1  N   UNL     1      -6.317  12.504  66.834  1.00  0.00    -0.484 NA 
HETATM    2  H2  UNL     1      -6.795  12.853  66.003  1.00  0.00     0.000 HD 
HETATM    3  N   UNL     1      -6.801  12.801  68.048  1.00  0.00    -0.086 NA 
HETATM    4  H1  UNL     1      -5.478  11.934  66.727  1.00  0.00     0.000 HD 
HETATM    5  H   UNL     1      -6.323  12.452  68.879  1.00  0.00     0.000 HD 
ENDROOT
BRANCH   3   6
HETATM    6  C   UNL     1      -7.884  13.536  68.185  1.00  0.00    -0.144 A  
HETATM    7  N   UNL     1      -7.652  14.757  68.796  1.00  0.00    -0.129 NA 
HETATM    8  N   UNL     1      -8.659  15.532  69.269  1.00  0.00    -0.251 NA 
HETATM    9  C   UNL     1      -9.908  15.497  68.690  1.00  0.00    -0.207 A  
HETATM   10  C   UNL     1     -10.264  14.272  67.917  1.00  0.00    -0.237 A  
HETATM   11  C   UNL     1      -9.305  13.250  67.749  1.00  0.00    -0.209 A  
HETATM   12  C   UNL     1      -9.733  12.037  67.191  1.00  0.00    -0.203 A  
HETATM   13  C   UNL     1     -11.572  14.119  67.431  1.00  0.00    -0.399 A  
HETATM   14  C   UNL     1     -11.044  11.882  66.722  1.00  0.00    -0.359 A  
HETATM   15  C   UNL     1     -11.953  12.929  66.817  1.00  0.00    -0.418 A  
BRANCH   9  16
HETATM   16  N   UNL     1     -10.793  16.456  68.813  1.00  0.00    -0.318 NA 
HETATM   17  H1  UNL     1     -11.261  18.298  68.134  1.00  0.00     0.000 HD 
HETATM   18  N   UNL     1     -10.573  17.551  68.039  1.00  0.00    -0.389 NA 
HETATM   19  H   UNL     1     -11.590  16.386  69.445  1.00  0.00     0.000 HD 
HETATM   20  H2  UNL     1      -9.776  17.622  67.407  1.00  0.00     0.000 HD 
ENDBRANCH   9  16
ENDBRANCH   3   6
TORSDOF 2
ENDMDL
MODEL      153
REMARK 921   NORMALIZED FREE ENERGY PREDICTED BY IDOCK:   -3.35 KCAL/MOL
REMARK 922        TOTAL FREE ENERGY PREDICTED BY IDOCK:   -3.88 KCAL/MOL
REMARK 923 INTER-LIGAND FREE ENERGY PREDICTED BY IDOCK:   -3.75 KCAL/MOL
REMARK 924 INTRA-LIGAND FREE ENERGY PREDICTED BY IDOCK:   -0.12 KCAL/MOL
REMARK 927      BINDING AFFINITY PREDICTED BY RF-SCORE:    0.00 PKD
ROOT
HETATM    1  N   UNL     1     -13.154  10.260  70.384  1.00  0.00    -0.546 NA 
HETATM    2  H2  UNL     1     -13.818   9.710  70.930  1.00  0.00     0.000 HD 
HETATM    3  N   UNL     1     -11.883   9.847  70.279  1.00  0.00    -0.409 NA 
HETATM    4  H1  UNL     1     -13.469  11.116  69.927  1.00  0.00     0.000 HD 
HETATM    5  H   UNL     1     -11.220  10.397  69.733  1.00  0.00     0.000 HD 
ENDROOT
BRANCH   3   6
HETATM    6  C   UNL     1     -11.478   8.743  70.868  1.00  0.00    -0.284 A  
HETATM    7  N   UNL     1     -12.511   7.891  71.219  1.00  0.00    -0.294 NA 
HETATM    8  N   UNL     1     -12.332   6.846  72.065  1.00  0.00    -0.301 NA 
HETATM    9  C   UNL     1     -11.113   6.210  72.153  1.00  0.00    -0.275 A  
HETATM   10  C   UNL     1      -9.912   6.981  71.717  1.00  0.00    -0.187 A  
HETATM   11  C   UNL     1     -10.072   8.275  71.177  1.00  0.00    -0.237 A  
HETATM   12  C   UNL     1      -8.918   9.042  70.964  1.00  0.00    -0.304 A  
HETATM   13  C   UNL     1      -8.634   6.438  71.921  1.00  0.00    -0.127 A  
HETATM   14  C   UNL     1      -7.644   8.503  71.185  1.00  0.00    -0.104 A  
HETATM   15  C   UNL     1      -7.501   7.196  71.636  1.00  0.00    -0.086 A  
BRANCH   9  16
HETATM   16  N   UNL     1     -10.959   4.996  72.622  1.00  0.00    -0.230 NA 
HETATM   17  H1  UNL     1     -11.144   3.895  74.303  1.00  0.00     0.000 HD 
HETATM   18  N   UNL     1     -11.263   4.840  73.938  1.00  0.00    -0.366 NA 
HETATM   19  H   UNL     1     -10.634   4.224  72.041  1.00  0.00     0.000 HD 
HETATM   20  H2  UNL     1     -11.588   5.612  74.518  1.00  0.00     0.000 HD 
ENDBRANCH   9  16
ENDBRANCH   3   6
TORSDOF 2
ENDMDL
MODEL      154
REMARK 921   NORMALIZED FREE ENERGY PREDICTED BY IDOCK:   -3.33 KCAL/MOL
REMARK 922        TOTAL FREE ENERGY PREDICTED BY IDOCK:   -3.85 KCAL/MOL
REMARK 923 INTER-LIGAND FREE ENERGY PREDICTED BY IDOCK:   -3.72 KCAL/MOL
REMARK 924 INTRA-LIGAND FREE ENERGY PREDICTED BY IDOCK:   -0.13 KCAL/MOL
REMARK 927      BINDING AFFINITY PREDICTED BY RF-SCORE:    0.00 PKD
ROOT
HETATM    1  N   UNL     1     -12.963  10.283  70.466  1.00  0.00    -0.549 NA 
HETATM    2  H2  UNL     1     -12.920  10.500  71.461  1.00  0.00     0.000 HD 
HETATM    3  N   UNL     1     -11.994   9.542  69.909  1.00  0.00    -0.428 NA 
HETATM    4  H1  UNL     1     -13.742  10.634  69.909  1.00  0.00     0.000 HD 
HETATM    5  H   UNL     1     -12.037   9.326  68.913  1.00  0.00     0.000 HD 
ENDROOT
BRANCH   3   6
HETATM    6  C   UNL     1     -10.989   9.089  70.628  1.00  0.00    -0.257 A  
HETATM    7  N   UNL     1      -9.848   9.868  70.539  1.00  0.00    -0.159 NA 
HETATM    8  N   UNL     1      -8.640   9.436  70.978  1.00  0.00    -0.289 NA 
HETATM    9  C   UNL     1      -8.548   8.537  72.017  1.00  0.00    -0.183 A  
HETATM   10  C   UNL     1      -9.744   7.688  72.290  1.00  0.00    -0.226 A  
HETATM   11  C   UNL     1     -10.923   7.882  71.539  1.00  0.00    -0.269 A  
HETATM   12  C   UNL     1     -11.953   6.942  71.685  1.00  0.00    -0.379 A  
HETATM   13  C   UNL     1      -9.656   6.657  73.239  1.00  0.00    -0.175 A  
HETATM   14  C   UNL     1     -11.855   5.905  72.621  1.00  0.00    -0.192 A  
HETATM   15  C   UNL     1     -10.721   5.778  73.414  1.00  0.00    -0.303 A  
BRANCH   9  16
HETATM   16  N   UNL     1      -7.468   8.374  72.742  1.00  0.00    -0.259 NA 
HETATM   17  H1  UNL     1      -5.477   8.077  72.603  1.00  0.00     0.000 HD 
HETATM   18  N   UNL     1      -6.317   8.204  72.039  1.00  0.00    -0.050 NA 
HETATM   19  H   UNL     1      -7.490   8.374  73.762  1.00  0.00     0.000 HD 
HETATM   20  H2  UNL     1      -6.295   8.204  71.020  1.00  0.00     0.000 HD 
ENDBRANCH   9  16
ENDBRANCH   3   6
TORSDOF 2
ENDMDL
MODEL      155
REMARK 921   NORMALIZED FREE ENERGY PREDICTED BY IDOCK:   -3.32 KCAL/MOL
REMARK 922        TOTAL FREE ENERGY PREDICTED BY IDOCK:   -3.84 KCAL/MOL
REMARK 923 INTER-LIGAND FREE ENERGY PREDICTED BY IDOCK:   -3.70 KCAL/MOL
REMARK 924 INTRA-LIGAND FREE ENERGY PREDICTED BY IDOCK:   -0.14 KCAL/MOL
REMARK 927      BINDING AFFINITY PREDICTED BY RF-SCORE:    0.00 PKD
ROOT
HETATM    1  N   UNL     1     -12.156   8.116  70.530  1.00  0.00    -0.482 NA 
HETATM    2  H2  UNL     1     -12.980   8.631  70.220  1.00  0.00     0.000 HD 
HETATM    3  N   UNL     1     -10.940   8.511  70.127  1.00  0.00    -0.280 NA 
HETATM    4  H1  UNL     1     -12.270   7.308  71.142  1.00  0.00     0.000 HD 
HETATM    5  H   UNL     1     -10.116   7.996  70.437  1.00  0.00     0.000 HD 
ENDROOT
BRANCH   3   6
HETATM    6  C   UNL     1     -10.793   9.554  69.338  1.00  0.00    -0.206 A  
HETATM    7  N   UNL     1     -11.093  10.759  69.950  1.00  0.00    -0.278 NA 
HETATM    8  N   UNL     1     -11.266  11.905  69.245  1.00  0.00    -0.251 NA 
HETATM    9  C   UNL     1     -10.610  12.105  68.051  1.00  0.00    -0.210 A  
HETATM   10  C   UNL     1     -10.143  10.890  67.321  1.00  0.00    -0.225 A  
HETATM   11  C   UNL     1     -10.322   9.616  67.901  1.00  0.00    -0.271 A  
HETATM   12  C   UNL     1     -10.054   8.493  67.106  1.00  0.00    -0.331 A  
HETATM   13  C   UNL     1      -9.601  11.026  66.033  1.00  0.00    -0.249 A  
HETATM   14  C   UNL     1      -9.528   8.632  65.815  1.00  0.00    -0.192 A  
HETATM   15  C   UNL     1      -9.278   9.894  65.290  1.00  0.00    -0.280 A  
BRANCH   9  16
HETATM   16  N   UNL     1     -10.410  13.287  67.522  1.00  0.00    -0.228 NA 
HETATM   17  H1  UNL     1      -9.608  15.098  67.908  1.00  0.00     0.000 HD 
HETATM   18  N   UNL     1      -9.764  14.179  68.319  1.00  0.00    -0.222 NA 
HETATM   19  H   UNL     1     -10.717  13.521  66.578  1.00  0.00     0.000 HD 
HETATM   20  H2  UNL     1      -9.457  13.944  69.263  1.00  0.00     0.000 HD 
ENDBRANCH   9  16
ENDBRANCH   3   6
TORSDOF 2
ENDMDL
MODEL      156
REMARK 921   NORMALIZED FREE ENERGY PREDICTED BY IDOCK:   -3.31 KCAL/MOL
REMARK 922        TOTAL FREE ENERGY PREDICTED BY IDOCK:   -3.83 KCAL/MOL
REMARK 923 INTER-LIGAND FREE ENERGY PREDICTED BY IDOCK:   -4.18 KCAL/MOL
REMARK 924 INTRA-LIGAND FREE ENERGY PREDICTED BY IDOCK:    0.35 KCAL/MOL
REMARK 927      BINDING AFFINITY PREDICTED BY RF-SCORE:    0.00 PKD
ROOT
HETATM    1  N   UNL     1     -12.069  11.336  69.744  1.00  0.00    -0.323 NA 
HETATM    2  H2  UNL     1     -12.309  11.789  68.862  1.00  0.00     0.000 HD 
HETATM    3  N   UNL     1     -11.206  10.310  69.745  1.00  0.00    -0.265 NA 
HETATM    4  H1  UNL     1     -12.490  11.671  70.611  1.00  0.00     0.000 HD 
HETATM    5  H   UNL     1     -10.966   9.857  70.627  1.00  0.00     0.000 HD 
ENDROOT
BRANCH   3   6
HETATM    6  C   UNL     1     -10.664   9.878  68.627  1.00  0.00    -0.226 A  
HETATM    7  N   UNL     1     -10.043   8.647  68.751  1.00  0.00    -0.191 NA 
HETATM    8  N   UNL     1      -9.203   8.161  67.803  1.00  0.00    -0.134 NA 
HETATM    9  C   UNL     1      -9.358   8.508  66.479  1.00  0.00    -0.203 A  
HETATM   10  C   UNL     1     -10.094   9.773  66.189  1.00  0.00    -0.315 A  
HETATM   11  C   UNL     1     -10.654  10.513  67.253  1.00  0.00    -0.317 A  
HETATM   12  C   UNL     1     -11.163  11.787  66.965  1.00  0.00    -0.382 A  
HETATM   13  C   UNL     1     -10.155  10.249  64.870  1.00  0.00    -0.346 A  
HETATM   14  C   UNL     1     -11.207  12.266  65.650  1.00  0.00    -0.375 A  
HETATM   15  C   UNL     1     -10.728  11.489  64.602  1.00  0.00    -0.379 A  
BRANCH   9  16
HETATM   16  N   UNL     1      -8.870   7.809  65.483  1.00  0.00    -0.356 NA 
HETATM   17  H1  UNL     1      -8.750   5.931  64.754  1.00  0.00     0.000 HD 
HETATM   18  N   UNL     1      -9.130   6.475  65.528  1.00  0.00    -0.372 NA 
HETATM   19  H   UNL     1      -8.333   8.235  64.729  1.00  0.00     0.000 HD 
HETATM   20  H2  UNL     1      -9.667   6.049  66.283  1.00  0.00     0.000 HD 
ENDBRANCH   9  16
ENDBRANCH   3   6
TORSDOF 2
ENDMDL
MODEL      157
REMARK 921   NORMALIZED FREE ENERGY PREDICTED BY IDOCK:   -3.30 KCAL/MOL
REMARK 922        TOTAL FREE ENERGY PREDICTED BY IDOCK:   -3.82 KCAL/MOL
REMARK 923 INTER-LIGAND FREE ENERGY PREDICTED BY IDOCK:   -3.70 KCAL/MOL
REMARK 924 INTRA-LIGAND FREE ENERGY PREDICTED BY IDOCK:   -0.12 KCAL/MOL
REMARK 927      BINDING AFFINITY PREDICTED BY RF-SCORE:    0.00 PKD
ROOT
HETATM    1  N   UNL     1     -11.327   4.250  64.531  1.00  0.00    -0.849 NA 
HETATM    2  H2  UNL     1     -10.838   3.357  64.470  1.00  0.00     0.000 HD 
HETATM    3  N   UNL     1     -11.097   5.060  65.575  1.00  0.00    -0.792 NA 
HETATM    4  H1  UNL     1     -11.984   4.514  63.796  1.00  0.00     0.000 HD 
HETATM    5  H   UNL     1     -11.586   5.953  65.635  1.00  0.00     0.000 HD 
ENDROOT
BRANCH   3   6
HETATM    6  C   UNL     1     -10.250   4.720  66.522  1.00  0.00    -0.259 A  
HETATM    7  N   UNL     1      -9.370   3.719  66.146  1.00  0.00    -0.168 NA 
HETATM    8  N   UNL     1      -8.610   3.047  67.047  1.00  0.00    -0.104 NA 
HETATM    9  C   UNL     1      -8.206   3.649  68.217  1.00  0.00    -0.082 A  
HETATM   10  C   UNL     1      -9.012   4.809  68.699  1.00  0.00    -0.136 A  
HETATM   11  C   UNL     1     -10.089   5.281  67.919  1.00  0.00    -0.208 A  
HETATM   12  C   UNL     1     -10.941   6.237  68.491  1.00  0.00    -0.421 A  
HETATM   13  C   UNL     1      -8.735   5.366  69.957  1.00  0.00    -0.130 A  
HETATM   14  C   UNL     1     -10.670   6.779  69.754  1.00  0.00    -0.288 A  
HETATM   15  C   UNL     1      -9.556   6.364  70.473  1.00  0.00    -0.179 A  
BRANCH   9  16
HETATM   16  N   UNL     1      -7.186   3.238  68.931  1.00  0.00    -0.049 NA 
HETATM   17  H1  UNL     1      -6.185   1.575  69.482  1.00  0.00     0.000 HD 
HETATM   18  N   UNL     1      -6.979   1.895  68.927  1.00  0.00    -0.036 NA 
HETATM   19  H   UNL     1      -6.590   3.881  69.452  1.00  0.00     0.000 HD 
HETATM   20  H2  UNL     1      -7.575   1.252  68.406  1.00  0.00     0.000 HD 
ENDBRANCH   9  16
ENDBRANCH   3   6
TORSDOF 2
ENDMDL
MODEL      158
REMARK 921   NORMALIZED FREE ENERGY PREDICTED BY IDOCK:   -3.26 KCAL/MOL
REMARK 922        TOTAL FREE ENERGY PREDICTED BY IDOCK:   -3.78 KCAL/MOL
REMARK 923 INTER-LIGAND FREE ENERGY PREDICTED BY IDOCK:   -3.71 KCAL/MOL
REMARK 924 INTRA-LIGAND FREE ENERGY PREDICTED BY IDOCK:   -0.07 KCAL/MOL
REMARK 927      BINDING AFFINITY PREDICTED BY RF-SCORE:    0.00 PKD
ROOT
HETATM    1  N   UNL     1      -6.455  13.589  69.649  1.00  0.00    -0.231 NA 
HETATM    2  H2  UNL     1      -6.824  14.429  70.095  1.00  0.00     0.000 HD 
HETATM    3  N   UNL     1      -7.141  13.016  68.650  1.00  0.00    -0.100 NA 
HETATM    4  H1  UNL     1      -5.568  13.200  69.970  1.00  0.00     0.000 HD 
HETATM    5  H   UNL     1      -6.771  12.176  68.204  1.00  0.00     0.000 HD 
ENDROOT
BRANCH   3   6
HETATM    6  C   UNL     1      -8.284  13.518  68.237  1.00  0.00    -0.157 A  
HETATM    7  N   UNL     1      -9.373  12.702  68.491  1.00  0.00    -0.137 NA 
HETATM    8  N   UNL     1     -10.582  12.908  67.912  1.00  0.00    -0.217 NA 
HETATM    9  C   UNL     1     -10.985  14.174  67.550  1.00  0.00    -0.283 A  
HETATM   10  C   UNL     1      -9.915  15.191  67.331  1.00  0.00    -0.226 A  
HETATM   11  C   UNL     1      -8.567  14.847  67.568  1.00  0.00    -0.195 A  
HETATM   12  C   UNL     1      -7.580  15.757  67.165  1.00  0.00    -0.259 A  
HETATM   13  C   UNL     1     -10.258  16.453  66.821  1.00  0.00    -0.285 A  
HETATM   14  C   UNL     1      -7.925  17.009  66.641  1.00  0.00    -0.302 A  
HETATM   15  C   UNL     1      -9.260  17.366  66.493  1.00  0.00    -0.286 A  
BRANCH   9  16
HETATM   16  N   UNL     1     -12.237  14.511  67.361  1.00  0.00    -0.597 NA 
HETATM   17  H1  UNL     1     -13.783  14.276  66.084  1.00  0.00     0.000 HD 
HETATM   18  N   UNL     1     -12.808  14.014  66.232  1.00  0.00    -0.432 NA 
HETATM   19  H   UNL     1     -12.747  15.105  68.014  1.00  0.00     0.000 HD 
HETATM   20  H2  UNL     1     -12.298  13.420  65.579  1.00  0.00     0.000 HD 
ENDBRANCH   9  16
ENDBRANCH   3   6
TORSDOF 2
ENDMDL
MODEL      159
REMARK 921   NORMALIZED FREE ENERGY PREDICTED BY IDOCK:   -3.25 KCAL/MOL
REMARK 922        TOTAL FREE ENERGY PREDICTED BY IDOCK:   -3.77 KCAL/MOL
REMARK 923 INTER-LIGAND FREE ENERGY PREDICTED BY IDOCK:   -3.64 KCAL/MOL
REMARK 924 INTRA-LIGAND FREE ENERGY PREDICTED BY IDOCK:   -0.13 KCAL/MOL
REMARK 927      BINDING AFFINITY PREDICTED BY RF-SCORE:    0.00 PKD
ROOT
HETATM    1  N   UNL     1     -10.959   4.951  65.350  1.00  0.00    -0.749 NA 
HETATM    2  H2  UNL     1     -10.004   4.675  65.122  1.00  0.00     0.000 HD 
HETATM    3  N   UNL     1     -11.191   5.680  66.451  1.00  0.00    -0.727 NA 
HETATM    4  H1  UNL     1     -11.723   4.668  64.736  1.00  0.00     0.000 HD 
HETATM    5  H   UNL     1     -12.146   5.955  66.680  1.00  0.00     0.000 HD 
ENDROOT
BRANCH   3   6
HETATM    6  C   UNL     1     -10.205   6.044  67.243  1.00  0.00    -0.195 A  
HETATM    7  N   UNL     1      -8.984   6.147  66.597  1.00  0.00    -0.126 NA 
HETATM    8  N   UNL     1      -7.813   6.241  67.274  1.00  0.00    -0.107 NA 
HETATM    9  C   UNL     1      -7.764   6.823  68.522  1.00  0.00    -0.113 A  
HETATM   10  C   UNL     1      -9.036   6.867  69.301  1.00  0.00    -0.140 A  
HETATM   11  C   UNL     1     -10.228   6.389  68.717  1.00  0.00    -0.206 A  
HETATM   12  C   UNL     1     -11.356   6.263  69.541  1.00  0.00    -0.475 A  
HETATM   13  C   UNL     1      -9.014   7.313  70.631  1.00  0.00    -0.156 A  
HETATM   14  C   UNL     1     -11.325   6.694  70.873  1.00  0.00    -0.377 A  
HETATM   15  C   UNL     1     -10.166   7.242  71.409  1.00  0.00    -0.199 A  
BRANCH   9  16
HETATM   16  N   UNL     1      -6.668   7.300  69.058  1.00  0.00    -0.057 NA 
HETATM   17  H1  UNL     1      -4.844   6.752  69.727  1.00  0.00     0.000 HD 
HETATM   18  N   UNL     1      -5.698   6.381  69.309  1.00  0.00    -0.016 NA 
HETATM   19  H   UNL     1      -6.551   8.289  69.273  1.00  0.00     0.000 HD 
HETATM   20  H2  UNL     1      -5.815   5.391  69.094  1.00  0.00     0.000 HD 
ENDBRANCH   9  16
ENDBRANCH   3   6
TORSDOF 2
ENDMDL
MODEL      160
REMARK 921   NORMALIZED FREE ENERGY PREDICTED BY IDOCK:   -3.25 KCAL/MOL
REMARK 922        TOTAL FREE ENERGY PREDICTED BY IDOCK:   -3.76 KCAL/MOL
REMARK 923 INTER-LIGAND FREE ENERGY PREDICTED BY IDOCK:   -3.90 KCAL/MOL
REMARK 924 INTRA-LIGAND FREE ENERGY PREDICTED BY IDOCK:    0.13 KCAL/MOL
REMARK 927      BINDING AFFINITY PREDICTED BY RF-SCORE:    0.00 PKD
ROOT
HETATM    1  N   UNL     1     -10.893  14.327  68.787  1.00  0.00    -0.246 NA 
HETATM    2  H2  UNL     1     -10.388  14.772  69.553  1.00  0.00     0.000 HD 
HETATM    3  N   UNL     1     -10.911  14.911  67.580  1.00  0.00    -0.293 NA 
HETATM    4  H1  UNL     1     -11.376  13.444  68.951  1.00  0.00     0.000 HD 
HETATM    5  H   UNL     1     -11.416  14.466  66.814  1.00  0.00     0.000 HD 
ENDROOT
BRANCH   3   6
HETATM    6  C   UNL     1     -10.288  16.050  67.369  1.00  0.00    -0.294 A  
HETATM    7  N   UNL     1     -10.986  16.921  66.549  1.00  0.00     0.056 NA 
HETATM    8  N   UNL     1     -10.407  18.016  65.997  1.00  0.00    -0.539 NA 
HETATM    9  C   UNL     1      -9.365  18.658  66.629  1.00  0.00    -0.315 A  
HETATM   10  C   UNL     1      -8.576  17.864  67.615  1.00  0.00    -0.242 A  
HETATM   11  C   UNL     1      -8.961  16.539  67.911  1.00  0.00    -0.205 A  
HETATM   12  C   UNL     1      -8.089  15.762  68.687  1.00  0.00    -0.161 A  
HETATM   13  C   UNL     1      -7.417  18.420  68.179  1.00  0.00    -0.279 A  
HETATM   14  C   UNL     1      -6.924  16.316  69.234  1.00  0.00    -0.217 A  
HETATM   15  C   UNL     1      -6.603  17.648  69.003  1.00  0.00    -0.244 A  
BRANCH   9  16
HETATM   16  N   UNL     1      -9.021  19.899  66.385  1.00  0.00    -0.401 NA 
HETATM   17  H1  UNL     1      -9.648  21.805  66.601  1.00  0.00     0.000 HD 
HETATM   18  N   UNL     1      -9.915  20.840  66.791  1.00  0.00    -0.519 NA 
HETATM   19  H   UNL     1      -8.146  20.142  65.923  1.00  0.00     0.000 HD 
HETATM   20  H2  UNL     1     -10.791  20.597  67.253  1.00  0.00     0.000 HD 
ENDBRANCH   9  16
ENDBRANCH   3   6
TORSDOF 2
ENDMDL
MODEL      161
REMARK 921   NORMALIZED FREE ENERGY PREDICTED BY IDOCK:   -3.24 KCAL/MOL
REMARK 922        TOTAL FREE ENERGY PREDICTED BY IDOCK:   -3.75 KCAL/MOL
REMARK 923 INTER-LIGAND FREE ENERGY PREDICTED BY IDOCK:   -3.69 KCAL/MOL
REMARK 924 INTRA-LIGAND FREE ENERGY PREDICTED BY IDOCK:   -0.06 KCAL/MOL
REMARK 927      BINDING AFFINITY PREDICTED BY RF-SCORE:    0.00 PKD
ROOT
HETATM    1  N   UNL     1     -12.847   9.685  70.491  1.00  0.00    -0.525 NA 
HETATM    2  H2  UNL     1     -13.201   9.544  71.437  1.00  0.00     0.000 HD 
HETATM    3  N   UNL     1     -11.827   8.935  70.050  1.00  0.00    -0.373 NA 
HETATM    4  H1  UNL     1     -13.275  10.393  69.896  1.00  0.00     0.000 HD 
HETATM    5  H   UNL     1     -11.473   9.076  69.103  1.00  0.00     0.000 HD 
ENDROOT
BRANCH   3   6
HETATM    6  C   UNL     1     -11.275   8.021  70.818  1.00  0.00    -0.265 A  
HETATM    7  N   UNL     1     -11.566   8.177  72.163  1.00  0.00    -0.331 NA 
HETATM    8  N   UNL     1     -10.887   7.515  73.132  1.00  0.00    -0.395 NA 
HETATM    9  C   UNL     1     -10.330   6.280  72.885  1.00  0.00    -0.207 A  
HETATM   10  C   UNL     1     -10.045   5.935  71.462  1.00  0.00    -0.238 A  
HETATM   11  C   UNL     1     -10.413   6.835  70.439  1.00  0.00    -0.236 A  
HETATM   12  C   UNL     1      -9.956   6.572  69.140  1.00  0.00    -0.163 A  
HETATM   13  C   UNL     1      -9.345   4.755  71.165  1.00  0.00    -0.206 A  
HETATM   14  C   UNL     1      -9.243   5.401  68.851  1.00  0.00    -0.147 A  
HETATM   15  C   UNL     1      -8.962   4.482  69.855  1.00  0.00    -0.145 A  
BRANCH   9  16
HETATM   16  N   UNL     1     -10.015   5.424  73.827  1.00  0.00    -0.172 NA 
HETATM   17  H1  UNL     1     -10.756   3.887  74.905  1.00  0.00     0.000 HD 
HETATM   18  N   UNL     1     -11.000   4.553  74.173  1.00  0.00    -0.287 NA 
HETATM   19  H   UNL     1      -9.097   5.412  74.269  1.00  0.00     0.000 HD 
HETATM   20  H2  UNL     1     -11.919   4.565  73.730  1.00  0.00     0.000 HD 
ENDBRANCH   9  16
ENDBRANCH   3   6
TORSDOF 2
ENDMDL
MODEL      162
REMARK 921   NORMALIZED FREE ENERGY PREDICTED BY IDOCK:   -3.20 KCAL/MOL
REMARK 922        TOTAL FREE ENERGY PREDICTED BY IDOCK:   -3.70 KCAL/MOL
REMARK 923 INTER-LIGAND FREE ENERGY PREDICTED BY IDOCK:   -3.57 KCAL/MOL
REMARK 924 INTRA-LIGAND FREE ENERGY PREDICTED BY IDOCK:   -0.13 KCAL/MOL
REMARK 927      BINDING AFFINITY PREDICTED BY RF-SCORE:    0.00 PKD
ROOT
HETATM    1  N   UNL     1      -8.503   6.959  67.120  1.00  0.00    -0.120 NA 
HETATM    2  H2  UNL     1      -7.961   7.614  67.683  1.00  0.00     0.000 HD 
HETATM    3  N   UNL     1      -9.638   7.372  66.536  1.00  0.00    -0.291 NA 
HETATM    4  H1  UNL     1      -8.174   6.000  67.009  1.00  0.00     0.000 HD 
HETATM    5  H   UNL     1     -10.180   6.717  65.973  1.00  0.00     0.000 HD 
ENDROOT
BRANCH   3   6
HETATM    6  C   UNL     1     -10.062   8.608  66.679  1.00  0.00    -0.294 A  
HETATM    7  N   UNL     1     -10.509   8.898  67.958  1.00  0.00    -0.223 NA 
HETATM    8  N   UNL     1     -11.227  10.013  68.238  1.00  0.00    -0.191 NA 
HETATM    9  C   UNL     1     -11.063  11.163  67.499  1.00  0.00    -0.291 A  
HETATM   10  C   UNL     1     -10.500  11.012  66.125  1.00  0.00    -0.301 A  
HETATM   11  C   UNL     1     -10.099   9.738  65.671  1.00  0.00    -0.282 A  
HETATM   12  C   UNL     1      -9.763   9.602  64.317  1.00  0.00     0.185 A  
HETATM   13  C   UNL     1     -10.448  12.129  65.275  1.00  0.00    -0.311 A  
HETATM   14  C   UNL     1      -9.728  10.715  63.468  1.00  0.00    -0.389 A  
HETATM   15  C   UNL     1     -10.044  11.979  63.952  1.00  0.00    -0.394 A  
BRANCH   9  16
HETATM   16  N   UNL     1     -11.402  12.355  67.925  1.00  0.00    -0.268 NA 
HETATM   17  H1  UNL     1     -10.883  13.789  69.246  1.00  0.00     0.000 HD 
HETATM   18  N   UNL     1     -10.620  12.862  68.914  1.00  0.00    -0.400 NA 
HETATM   19  H   UNL     1     -12.196  12.866  67.541  1.00  0.00     0.000 HD 
HETATM   20  H2  UNL     1      -9.826  12.350  69.298  1.00  0.00     0.000 HD 
ENDBRANCH   9  16
ENDBRANCH   3   6
TORSDOF 2
ENDMDL
MODEL      163
REMARK 921   NORMALIZED FREE ENERGY PREDICTED BY IDOCK:   -3.16 KCAL/MOL
REMARK 922        TOTAL FREE ENERGY PREDICTED BY IDOCK:   -3.66 KCAL/MOL
REMARK 923 INTER-LIGAND FREE ENERGY PREDICTED BY IDOCK:   -3.53 KCAL/MOL
REMARK 924 INTRA-LIGAND FREE ENERGY PREDICTED BY IDOCK:   -0.13 KCAL/MOL
REMARK 927      BINDING AFFINITY PREDICTED BY RF-SCORE:    0.00 PKD
ROOT
HETATM    1  N   UNL     1      -9.678  19.681  66.000  1.00  0.00    -0.380 NA 
HETATM    2  H2  UNL     1      -9.246  20.129  66.809  1.00  0.00     0.000 HD 
HETATM    3  N   UNL     1      -9.666  18.344  65.902  1.00  0.00    -0.494 NA 
HETATM    4  H1  UNL     1     -10.114  20.257  65.280  1.00  0.00     0.000 HD 
HETATM    5  H   UNL     1     -10.099  17.896  65.094  1.00  0.00     0.000 HD 
ENDROOT
BRANCH   3   6
HETATM    6  C   UNL     1      -9.105  17.600  66.831  1.00  0.00    -0.253 A  
HETATM    7  N   UNL     1      -7.731  17.749  66.906  1.00  0.00    -0.205 NA 
HETATM    8  N   UNL     1      -6.946  16.887  67.598  1.00  0.00    -0.132 NA 
HETATM    9  C   UNL     1      -7.432  16.219  68.700  1.00  0.00    -0.185 A  
HETATM   10  C   UNL     1      -8.913  16.063  68.800  1.00  0.00    -0.226 A  
HETATM   11  C   UNL     1      -9.744  16.654  67.825  1.00  0.00    -0.240 A  
HETATM   12  C   UNL     1     -11.106  16.323  67.839  1.00  0.00    -0.270 A  
HETATM   13  C   UNL     1      -9.454  15.267  69.822  1.00  0.00    -0.107 A  
HETATM   14  C   UNL     1     -11.641  15.514  68.851  1.00  0.00    -0.384 A  
HETATM   15  C   UNL     1     -10.822  15.009  69.854  1.00  0.00    -0.266 A  
BRANCH   9  16
HETATM   16  N   UNL     1      -6.669  15.697  69.628  1.00  0.00    -0.182 NA 
HETATM   17  H1  UNL     1      -5.165  16.139  70.900  1.00  0.00     0.000 HD 
HETATM   18  N   UNL     1      -5.759  16.545  70.177  1.00  0.00    -0.206 NA 
HETATM   19  H   UNL     1      -6.751  14.723  69.918  1.00  0.00     0.000 HD 
HETATM   20  H2  UNL     1      -5.677  17.519  69.887  1.00  0.00     0.000 HD 
ENDBRANCH   9  16
ENDBRANCH   3   6
TORSDOF 2
ENDMDL
MODEL      164
REMARK 921   NORMALIZED FREE ENERGY PREDICTED BY IDOCK:   -3.15 KCAL/MOL
REMARK 922        TOTAL FREE ENERGY PREDICTED BY IDOCK:   -3.66 KCAL/MOL
REMARK 923 INTER-LIGAND FREE ENERGY PREDICTED BY IDOCK:   -3.53 KCAL/MOL
REMARK 924 INTRA-LIGAND FREE ENERGY PREDICTED BY IDOCK:   -0.13 KCAL/MOL
REMARK 927      BINDING AFFINITY PREDICTED BY RF-SCORE:    0.00 PKD
ROOT
HETATM    1  N   UNL     1      -6.785   9.324  71.642  1.00  0.00    -0.297 NA 
HETATM    2  H2  UNL     1      -6.346   8.543  71.153  1.00  0.00     0.000 HD 
HETATM    3  N   UNL     1      -7.937   9.830  71.178  1.00  0.00    -0.260 NA 
HETATM    4  H1  UNL     1      -6.341   9.706  72.477  1.00  0.00     0.000 HD 
HETATM    5  H   UNL     1      -8.375  10.610  71.667  1.00  0.00     0.000 HD 
ENDROOT
BRANCH   3   6
HETATM    6  C   UNL     1      -8.509   9.336  70.102  1.00  0.00    -0.191 A  
HETATM    7  N   UNL     1      -8.104   9.948  68.927  1.00  0.00    -0.100 NA 
HETATM    8  N   UNL     1      -8.765   9.775  67.756  1.00  0.00    -0.129 NA 
HETATM    9  C   UNL     1      -9.448   8.607  67.496  1.00  0.00    -0.149 A  
HETATM   10  C   UNL     1      -9.870   7.792  68.672  1.00  0.00    -0.174 A  
HETATM   11  C   UNL     1      -9.500   8.198  69.972  1.00  0.00    -0.167 A  
HETATM   12  C   UNL     1     -10.076   7.523  71.057  1.00  0.00    -0.190 A  
HETATM   13  C   UNL     1     -10.693   6.672  68.475  1.00  0.00    -0.308 A  
HETATM   14  C   UNL     1     -10.910   6.416  70.856  1.00  0.00    -0.316 A  
HETATM   15  C   UNL     1     -11.197   5.976  69.570  1.00  0.00    -0.416 A  
BRANCH   9  16
HETATM   16  N   UNL     1      -9.767   8.205  66.291  1.00  0.00    -0.409 NA 
HETATM   17  H1  UNL     1     -10.078   8.872  64.411  1.00  0.00     0.000 HD 
HETATM   18  N   UNL     1      -9.830   9.184  65.350  1.00  0.00    -0.424 NA 
HETATM   19  H   UNL     1      -9.955   7.227  66.073  1.00  0.00     0.000 HD 
HETATM   20  H2  UNL     1      -9.643  10.163  65.567  1.00  0.00     0.000 HD 
ENDBRANCH   9  16
ENDBRANCH   3   6
TORSDOF 2
ENDMDL
MODEL      165
REMARK 921   NORMALIZED FREE ENERGY PREDICTED BY IDOCK:   -3.13 KCAL/MOL
REMARK 922        TOTAL FREE ENERGY PREDICTED BY IDOCK:   -3.63 KCAL/MOL
REMARK 923 INTER-LIGAND FREE ENERGY PREDICTED BY IDOCK:   -3.87 KCAL/MOL
REMARK 924 INTRA-LIGAND FREE ENERGY PREDICTED BY IDOCK:    0.23 KCAL/MOL
REMARK 927      BINDING AFFINITY PREDICTED BY RF-SCORE:    0.00 PKD
ROOT
HETATM    1  N   UNL     1     -11.116   4.925  65.854  1.00  0.00    -0.839 NA 
HETATM    2  H2  UNL     1     -10.328   4.414  66.252  1.00  0.00     0.000 HD 
HETATM    3  N   UNL     1     -11.475   6.103  66.386  1.00  0.00    -0.496 NA 
HETATM    4  H1  UNL     1     -11.618   4.533  65.058  1.00  0.00     0.000 HD 
HETATM    5  H   UNL     1     -12.263   6.614  65.988  1.00  0.00     0.000 HD 
ENDROOT
BRANCH   3   6
HETATM    6  C   UNL     1     -10.827   6.609  67.412  1.00  0.00    -0.363 A  
HETATM    7  N   UNL     1     -10.773   7.993  67.407  1.00  0.00    -0.246 NA 
HETATM    8  N   UNL     1      -9.933   8.688  68.214  1.00  0.00    -0.174 NA 
HETATM    9  C   UNL     1      -9.550   8.182  69.436  1.00  0.00    -0.167 A  
HETATM   10  C   UNL     1      -9.643   6.704  69.619  1.00  0.00    -0.156 A  
HETATM   11  C   UNL     1     -10.177   5.905  68.585  1.00  0.00    -0.243 A  
HETATM   12  C   UNL     1     -10.067   4.513  68.710  1.00  0.00    -0.033 A  
HETATM   13  C   UNL     1      -9.130   6.120  70.787  1.00  0.00    -0.156 A  
HETATM   14  C   UNL     1      -9.539   3.934  69.871  1.00  0.00    -0.270 A  
HETATM   15  C   UNL     1      -9.096   4.734  70.917  1.00  0.00    -0.181 A  
BRANCH   9  16
HETATM   16  N   UNL     1      -9.085   8.919  70.414  1.00  0.00    -0.173 NA 
HETATM   17  H1  UNL     1      -8.352  10.754  70.826  1.00  0.00     0.000 HD 
HETATM   18  N   UNL     1      -8.714  10.180  70.065  1.00  0.00    -0.368 NA 
HETATM   19  H   UNL     1      -9.006   8.573  71.370  1.00  0.00     0.000 HD 
HETATM   20  H2  UNL     1      -8.792  10.526  69.109  1.00  0.00     0.000 HD 
ENDBRANCH   9  16
ENDBRANCH   3   6
TORSDOF 2
ENDMDL
MODEL      166
REMARK 921   NORMALIZED FREE ENERGY PREDICTED BY IDOCK:   -3.13 KCAL/MOL
REMARK 922        TOTAL FREE ENERGY PREDICTED BY IDOCK:   -3.63 KCAL/MOL
REMARK 923 INTER-LIGAND FREE ENERGY PREDICTED BY IDOCK:   -3.50 KCAL/MOL
REMARK 924 INTRA-LIGAND FREE ENERGY PREDICTED BY IDOCK:   -0.12 KCAL/MOL
REMARK 927      BINDING AFFINITY PREDICTED BY RF-SCORE:    0.00 PKD
ROOT
HETATM    1  N   UNL     1     -11.039  19.056  68.017  1.00  0.00    -0.206 NA 
HETATM    2  H2  UNL     1     -11.942  18.635  67.798  1.00  0.00     0.000 HD 
HETATM    3  N   UNL     1     -10.004  18.267  68.340  1.00  0.00    -0.363 NA 
HETATM    4  H1  UNL     1     -10.937  20.070  67.987  1.00  0.00     0.000 HD 
HETATM    5  H   UNL     1      -9.101  18.687  68.559  1.00  0.00     0.000 HD 
ENDROOT
BRANCH   3   6
HETATM    6  C   UNL     1     -10.135  16.958  68.379  1.00  0.00    -0.304 A  
HETATM    7  N   UNL     1     -11.437  16.537  68.591  1.00  0.00    -0.248 NA 
HETATM    8  N   UNL     1     -11.738  15.260  68.931  1.00  0.00    -0.339 NA 
HETATM    9  C   UNL     1     -10.940  14.214  68.523  1.00  0.00    -0.254 A  
HETATM   10  C   UNL     1      -9.527  14.537  68.170  1.00  0.00    -0.208 A  
HETATM   11  C   UNL     1      -9.090  15.878  68.196  1.00  0.00    -0.182 A  
HETATM   12  C   UNL     1      -7.717  16.122  68.052  1.00  0.00    -0.143 A  
HETATM   13  C   UNL     1      -8.631  13.493  67.890  1.00  0.00    -0.182 A  
HETATM   14  C   UNL     1      -6.823  15.076  67.789  1.00  0.00    -0.190 A  
HETATM   15  C   UNL     1      -7.282  13.769  67.682  1.00  0.00    -0.183 A  
BRANCH   9  16
HETATM   16  N   UNL     1     -11.347  12.970  68.464  1.00  0.00    -0.267 NA 
HETATM   17  H1  UNL     1     -12.440  11.695  67.345  1.00  0.00     0.000 HD 
HETATM   18  N   UNL     1     -12.124  12.663  67.391  1.00  0.00    -0.435 NA 
HETATM   19  H   UNL     1     -11.098  12.280  69.172  1.00  0.00     0.000 HD 
HETATM   20  H2  UNL     1     -12.372  13.353  66.683  1.00  0.00     0.000 HD 
ENDBRANCH   9  16
ENDBRANCH   3   6
TORSDOF 2
ENDMDL
MODEL      167
REMARK 921   NORMALIZED FREE ENERGY PREDICTED BY IDOCK:   -3.12 KCAL/MOL
REMARK 922        TOTAL FREE ENERGY PREDICTED BY IDOCK:   -3.62 KCAL/MOL
REMARK 923 INTER-LIGAND FREE ENERGY PREDICTED BY IDOCK:   -3.49 KCAL/MOL
REMARK 924 INTRA-LIGAND FREE ENERGY PREDICTED BY IDOCK:   -0.13 KCAL/MOL
REMARK 927      BINDING AFFINITY PREDICTED BY RF-SCORE:    0.00 PKD
ROOT
HETATM    1  N   UNL     1     -11.178   4.823  65.815  1.00  0.00    -0.851 NA 
HETATM    2  H2  UNL     1     -10.461   4.222  66.222  1.00  0.00     0.000 HD 
HETATM    3  N   UNL     1     -11.377   6.049  66.319  1.00  0.00    -0.569 NA 
HETATM    4  H1  UNL     1     -11.732   4.481  65.029  1.00  0.00     0.000 HD 
HETATM    5  H   UNL     1     -12.093   6.649  65.912  1.00  0.00     0.000 HD 
ENDROOT
BRANCH   3   6
HETATM    6  C   UNL     1     -10.662   6.489  67.332  1.00  0.00    -0.340 A  
HETATM    7  N   UNL     1     -11.245   6.255  68.566  1.00  0.00    -0.317 NA 
HETATM    8  N   UNL     1     -10.810   6.861  69.699  1.00  0.00    -0.247 NA 
HETATM    9  C   UNL     1      -9.493   7.237  69.837  1.00  0.00    -0.157 A  
HETATM   10  C   UNL     1      -8.709   7.438  68.583  1.00  0.00    -0.128 A  
HETATM   11  C   UNL     1      -9.310   7.171  67.334  1.00  0.00    -0.144 A  
HETATM   12  C   UNL     1      -8.616   7.556  66.179  1.00  0.00    -0.159 A  
HETATM   13  C   UNL     1      -7.409   7.962  68.659  1.00  0.00    -0.090 A  
HETATM   14  C   UNL     1      -7.325   8.094  66.259  1.00  0.00    -0.078 A  
HETATM   15  C   UNL     1      -6.713   8.272  67.494  1.00  0.00    -0.063 A  
BRANCH   9  16
HETATM   16  N   UNL     1      -8.917   7.455  70.993  1.00  0.00    -0.151 NA 
HETATM   17  H1  UNL     1      -9.166   8.419  72.749  1.00  0.00     0.000 HD 
HETATM   18  N   UNL     1      -9.614   8.250  71.848  1.00  0.00    -0.197 NA 
HETATM   19  H   UNL     1      -8.010   7.057  71.235  1.00  0.00     0.000 HD 
HETATM   20  H2  UNL     1     -10.521   8.648  71.607  1.00  0.00     0.000 HD 
ENDBRANCH   9  16
ENDBRANCH   3   6
TORSDOF 2
ENDMDL
MODEL      168
REMARK 921   NORMALIZED FREE ENERGY PREDICTED BY IDOCK:   -3.10 KCAL/MOL
REMARK 922        TOTAL FREE ENERGY PREDICTED BY IDOCK:   -3.59 KCAL/MOL
REMARK 923 INTER-LIGAND FREE ENERGY PREDICTED BY IDOCK:   -3.58 KCAL/MOL
REMARK 924 INTRA-LIGAND FREE ENERGY PREDICTED BY IDOCK:   -0.01 KCAL/MOL
REMARK 927      BINDING AFFINITY PREDICTED BY RF-SCORE:    0.00 PKD
ROOT
HETATM    1  N   UNL     1     -11.259  12.926  67.775  1.00  0.00    -0.265 NA 
HETATM    2  H2  UNL     1     -10.662  13.133  68.576  1.00  0.00     0.000 HD 
HETATM    3  N   UNL     1     -11.703  11.675  67.588  1.00  0.00    -0.574 NA 
HETATM    4  H1  UNL     1     -11.508  13.675  67.129  1.00  0.00     0.000 HD 
HETATM    5  H   UNL     1     -12.299  11.468  66.787  1.00  0.00     0.000 HD 
ENDROOT
BRANCH   3   6
HETATM    6  C   UNL     1     -11.381  10.710  68.422  1.00  0.00    -0.283 A  
HETATM    7  N   UNL     1     -11.635  11.015  69.749  1.00  0.00    -0.294 NA 
HETATM    8  N   UNL     1     -11.132  10.278  70.770  1.00  0.00    -0.304 NA 
HETATM    9  C   UNL     1     -10.874   8.935  70.611  1.00  0.00    -0.239 A  
HETATM   10  C   UNL     1     -10.669   8.443  69.218  1.00  0.00    -0.139 A  
HETATM   11  C   UNL     1     -10.815   9.335  68.135  1.00  0.00    -0.145 A  
HETATM   12  C   UNL     1     -10.423   8.891  66.864  1.00  0.00    -0.304 A  
HETATM   13  C   UNL     1     -10.259   7.117  69.008  1.00  0.00    -0.191 A  
HETATM   14  C   UNL     1      -9.999   7.571  66.661  1.00  0.00    -0.270 A  
HETATM   15  C   UNL     1      -9.942   6.679  67.725  1.00  0.00    -0.158 A  
BRANCH   9  16
HETATM   16  N   UNL     1     -10.770   8.092  71.610  1.00  0.00    -0.230 NA 
HETATM   17  H1  UNL     1      -9.452   7.345  72.943  1.00  0.00     0.000 HD 
HETATM   18  N   UNL     1      -9.533   8.000  72.166  1.00  0.00    -0.182 NA 
HETATM   19  H   UNL     1     -11.562   7.544  71.946  1.00  0.00     0.000 HD 
HETATM   20  H2  UNL     1      -8.742   8.549  71.830  1.00  0.00     0.000 HD 
ENDBRANCH   9  16
ENDBRANCH   3   6
TORSDOF 2
ENDMDL
MODEL      169
REMARK 921   NORMALIZED FREE ENERGY PREDICTED BY IDOCK:   -3.08 KCAL/MOL
REMARK 922        TOTAL FREE ENERGY PREDICTED BY IDOCK:   -3.57 KCAL/MOL
REMARK 923 INTER-LIGAND FREE ENERGY PREDICTED BY IDOCK:   -3.46 KCAL/MOL
REMARK 924 INTRA-LIGAND FREE ENERGY PREDICTED BY IDOCK:   -0.12 KCAL/MOL
REMARK 927      BINDING AFFINITY PREDICTED BY RF-SCORE:    0.00 PKD
ROOT
HETATM    1  N   UNL     1     -10.418  18.290  68.122  1.00  0.00    -0.365 NA 
HETATM    2  H2  UNL     1     -10.820  17.896  67.272  1.00  0.00     0.000 HD 
HETATM    3  N   UNL     1      -9.509  17.585  68.811  1.00  0.00    -0.273 NA 
HETATM    4  H1  UNL     1     -10.714  19.215  68.436  1.00  0.00     0.000 HD 
HETATM    5  H   UNL     1      -9.107  17.979  69.662  1.00  0.00     0.000 HD 
ENDROOT
BRANCH   3   6
HETATM    6  C   UNL     1      -9.128  16.393  68.407  1.00  0.00    -0.214 A  
HETATM    7  N   UNL     1      -7.851  16.370  67.872  1.00  0.00    -0.150 NA 
HETATM    8  N   UNL     1      -7.383  15.314  67.161  1.00  0.00    -0.187 NA 
HETATM    9  C   UNL     1      -7.840  14.039  67.409  1.00  0.00    -0.170 A  
HETATM   10  C   UNL     1      -9.171  13.910  68.070  1.00  0.00    -0.193 A  
HETATM   11  C   UNL     1      -9.864  15.071  68.474  1.00  0.00    -0.217 A  
HETATM   12  C   UNL     1     -11.189  14.924  68.908  1.00  0.00    -0.282 A  
HETATM   13  C   UNL     1      -9.749  12.639  68.213  1.00  0.00    -0.216 A  
HETATM   14  C   UNL     1     -11.769  13.655  69.034  1.00  0.00    -0.375 A  
HETATM   15  C   UNL     1     -11.043  12.514  68.713  1.00  0.00    -0.314 A  
BRANCH   9  16
HETATM   16  N   UNL     1      -7.187  12.955  67.067  1.00  0.00    -0.361 NA 
HETATM   17  H1  UNL     1      -5.491  11.925  67.436  1.00  0.00     0.000 HD 
HETATM   18  N   UNL     1      -5.999  12.768  67.701  1.00  0.00    -0.138 NA 
HETATM   19  H   UNL     1      -7.545  12.298  66.374  1.00  0.00     0.000 HD 
HETATM   20  H2  UNL     1      -5.641  13.426  68.394  1.00  0.00     0.000 HD 
ENDBRANCH   9  16
ENDBRANCH   3   6
TORSDOF 2
ENDMDL
MODEL      170
REMARK 921   NORMALIZED FREE ENERGY PREDICTED BY IDOCK:   -3.07 KCAL/MOL
REMARK 922        TOTAL FREE ENERGY PREDICTED BY IDOCK:   -3.56 KCAL/MOL
REMARK 923 INTER-LIGAND FREE ENERGY PREDICTED BY IDOCK:   -3.43 KCAL/MOL
REMARK 924 INTRA-LIGAND FREE ENERGY PREDICTED BY IDOCK:   -0.13 KCAL/MOL
REMARK 927      BINDING AFFINITY PREDICTED BY RF-SCORE:    0.00 PKD
ROOT
HETATM    1  N   UNL     1      -6.404   8.618  72.312  1.00  0.00    -0.076 NA 
HETATM    2  H2  UNL     1      -6.161   7.673  72.014  1.00  0.00     0.000 HD 
HETATM    3  N   UNL     1      -7.667   8.893  72.669  1.00  0.00    -0.346 NA 
HETATM    4  H1  UNL     1      -5.683   9.339  72.334  1.00  0.00     0.000 HD 
HETATM    5  H   UNL     1      -7.911   9.837  72.967  1.00  0.00     0.000 HD 
ENDROOT
BRANCH   3   6
HETATM    6  C   UNL     1      -8.597   7.963  72.640  1.00  0.00    -0.153 A  
HETATM    7  N   UNL     1      -8.178   6.743  73.144  1.00  0.00    -0.111 NA 
HETATM    8  N   UNL     1      -8.884   5.601  72.957  1.00  0.00    -0.124 NA 
HETATM    9  C   UNL     1     -10.254   5.634  72.813  1.00  0.00    -0.185 A  
HETATM   10  C   UNL     1     -10.859   6.921  72.362  1.00  0.00    -0.267 A  
HETATM   11  C   UNL     1     -10.035   8.050  72.173  1.00  0.00    -0.289 A  
HETATM   12  C   UNL     1     -10.601   9.179  71.563  1.00  0.00    -0.428 A  
HETATM   13  C   UNL     1     -12.228   6.970  72.059  1.00  0.00    -0.317 A  
HETATM   14  C   UNL     1     -11.965   9.218  71.247  1.00  0.00    -0.414 A  
HETATM   15  C   UNL     1     -12.782   8.127  71.518  1.00  0.00    -0.327 A  
BRANCH   9  16
HETATM   16  N   UNL     1     -11.031   4.598  73.019  1.00  0.00    -0.247 NA 
HETATM   17  H1  UNL     1     -11.582   3.268  74.433  1.00  0.00     0.000 HD 
HETATM   18  N   UNL     1     -10.978   4.073  74.272  1.00  0.00    -0.145 NA 
HETATM   19  H   UNL     1     -11.632   4.214  72.291  1.00  0.00     0.000 HD 
HETATM   20  H2  UNL     1     -10.377   4.458  75.000  1.00  0.00     0.000 HD 
ENDBRANCH   9  16
ENDBRANCH   3   6
TORSDOF 2
ENDMDL
MODEL      171
REMARK 921   NORMALIZED FREE ENERGY PREDICTED BY IDOCK:   -3.06 KCAL/MOL
REMARK 922        TOTAL FREE ENERGY PREDICTED BY IDOCK:   -3.55 KCAL/MOL
REMARK 923 INTER-LIGAND FREE ENERGY PREDICTED BY IDOCK:   -3.44 KCAL/MOL
REMARK 924 INTRA-LIGAND FREE ENERGY PREDICTED BY IDOCK:   -0.12 KCAL/MOL
REMARK 927      BINDING AFFINITY PREDICTED BY RF-SCORE:    0.00 PKD
ROOT
HETATM    1  N   UNL     1     -10.877   6.182  72.012  1.00  0.00    -0.236 NA 
HETATM    2  H2  UNL     1     -10.351   5.558  71.401  1.00  0.00     0.000 HD 
HETATM    3  N   UNL     1     -11.131   7.437  71.616  1.00  0.00    -0.234 NA 
HETATM    4  H1  UNL     1     -11.204   5.840  72.917  1.00  0.00     0.000 HD 
HETATM    5  H   UNL     1     -11.657   8.061  72.227  1.00  0.00     0.000 HD 
ENDROOT
BRANCH   3   6
HETATM    6  C   UNL     1     -10.710   7.877  70.449  1.00  0.00    -0.233 A  
HETATM    7  N   UNL     1      -9.938   6.960  69.756  1.00  0.00    -0.177 NA 
HETATM    8  N   UNL     1      -9.195   7.309  68.677  1.00  0.00    -0.137 NA 
HETATM    9  C   UNL     1      -9.580   8.350  67.861  1.00  0.00    -0.156 A  
HETATM   10  C   UNL     1     -10.493   9.373  68.451  1.00  0.00    -0.256 A  
HETATM   11  C   UNL     1     -10.975   9.202  69.766  1.00  0.00    -0.195 A  
HETATM   12  C   UNL     1     -11.665  10.272  70.353  1.00  0.00    -0.404 A  
HETATM   13  C   UNL     1     -10.799  10.528  67.716  1.00  0.00    -0.347 A  
HETATM   14  C   UNL     1     -11.955  11.431  69.622  1.00  0.00    -0.416 A  
HETATM   15  C   UNL     1     -11.546  11.548  68.299  1.00  0.00    -0.378 A  
BRANCH   9  16
HETATM   16  N   UNL     1      -9.164   8.498  66.627  1.00  0.00    -0.165 NA 
HETATM   17  H1  UNL     1      -7.520   8.911  65.532  1.00  0.00     0.000 HD 
HETATM   18  N   UNL     1      -7.844   8.795  66.492  1.00  0.00    -0.102 NA 
HETATM   19  H   UNL     1      -9.786   8.399  65.826  1.00  0.00     0.000 HD 
HETATM   20  H2  UNL     1      -7.222   8.895  67.293  1.00  0.00     0.000 HD 
ENDBRANCH   9  16
ENDBRANCH   3   6
TORSDOF 2
ENDMDL
MODEL      172
REMARK 921   NORMALIZED FREE ENERGY PREDICTED BY IDOCK:   -3.06 KCAL/MOL
REMARK 922        TOTAL FREE ENERGY PREDICTED BY IDOCK:   -3.55 KCAL/MOL
REMARK 923 INTER-LIGAND FREE ENERGY PREDICTED BY IDOCK:   -3.52 KCAL/MOL
REMARK 924 INTRA-LIGAND FREE ENERGY PREDICTED BY IDOCK:   -0.04 KCAL/MOL
REMARK 927      BINDING AFFINITY PREDICTED BY RF-SCORE:    0.00 PKD
ROOT
HETATM    1  N   UNL     1     -11.301   6.466  67.581  1.00  0.00    -0.676 NA 
HETATM    2  H2  UNL     1     -10.763   5.665  67.912  1.00  0.00     0.000 HD 
HETATM    3  N   UNL     1     -11.209   7.636  68.229  1.00  0.00    -0.260 NA 
HETATM    4  H1  UNL     1     -11.900   6.364  66.762  1.00  0.00     0.000 HD 
HETATM    5  H   UNL     1     -11.746   8.437  67.898  1.00  0.00     0.000 HD 
ENDROOT
BRANCH   3   6
HETATM    6  C   UNL     1     -10.436   7.767  69.285  1.00  0.00    -0.217 A  
HETATM    7  N   UNL     1      -9.323   8.562  69.064  1.00  0.00    -0.146 NA 
HETATM    8  N   UNL     1      -8.278   8.600  69.926  1.00  0.00    -0.117 NA 
HETATM    9  C   UNL     1      -8.464   8.373  71.272  1.00  0.00    -0.149 A  
HETATM   10  C   UNL     1      -9.679   7.603  71.668  1.00  0.00    -0.191 A  
HETATM   11  C   UNL     1     -10.608   7.208  70.682  1.00  0.00    -0.243 A  
HETATM   12  C   UNL     1     -11.627   6.323  71.060  1.00  0.00    -0.337 A  
HETATM   13  C   UNL     1      -9.844   7.216  73.008  1.00  0.00    -0.233 A  
HETATM   14  C   UNL     1     -11.778   5.926  72.395  1.00  0.00    -0.307 A  
HETATM   15  C   UNL     1     -10.905   6.392  73.370  1.00  0.00    -0.243 A  
BRANCH   9  16
HETATM   16  N   UNL     1      -7.624   8.765  72.198  1.00  0.00    -0.334 NA 
HETATM   17  H1  UNL     1      -5.873   8.284  73.078  1.00  0.00     0.000 HD 
HETATM   18  N   UNL     1      -6.527   7.979  72.357  1.00  0.00    -0.063 NA 
HETATM   19  H   UNL     1      -7.783   9.601  72.760  1.00  0.00     0.000 HD 
HETATM   20  H2  UNL     1      -6.369   7.143  71.795  1.00  0.00     0.000 HD 
ENDBRANCH   9  16
ENDBRANCH   3   6
TORSDOF 2
ENDMDL
MODEL      173
REMARK 921   NORMALIZED FREE ENERGY PREDICTED BY IDOCK:   -3.06 KCAL/MOL
REMARK 922        TOTAL FREE ENERGY PREDICTED BY IDOCK:   -3.55 KCAL/MOL
REMARK 923 INTER-LIGAND FREE ENERGY PREDICTED BY IDOCK:   -3.43 KCAL/MOL
REMARK 924 INTRA-LIGAND FREE ENERGY PREDICTED BY IDOCK:   -0.12 KCAL/MOL
REMARK 927      BINDING AFFINITY PREDICTED BY RF-SCORE:    0.00 PKD
ROOT
HETATM    1  N   UNL     1      -6.905   6.383  68.680  1.00  0.00    -0.071 NA 
HETATM    2  H2  UNL     1      -7.338   5.507  68.974  1.00  0.00     0.000 HD 
HETATM    3  N   UNL     1      -7.421   7.547  69.100  1.00  0.00    -0.096 NA 
HETATM    4  H1  UNL     1      -6.087   6.359  68.072  1.00  0.00     0.000 HD 
HETATM    5  H   UNL     1      -6.988   8.423  68.806  1.00  0.00     0.000 HD 
ENDROOT
BRANCH   3   6
HETATM    6  C   UNL     1      -8.476   7.577  69.885  1.00  0.00    -0.138 A  
HETATM    7  N   UNL     1      -8.502   6.555  70.819  1.00  0.00    -0.133 NA 
HETATM    8  N   UNL     1      -9.617   6.252  71.529  1.00  0.00    -0.156 NA 
HETATM    9  C   UNL     1     -10.548   7.221  71.829  1.00  0.00    -0.205 A  
HETATM   10  C   UNL     1     -10.573   8.431  70.957  1.00  0.00    -0.258 A  
HETATM   11  C   UNL     1      -9.619   8.569  69.926  1.00  0.00    -0.171 A  
HETATM   12  C   UNL     1      -9.794   9.614  69.008  1.00  0.00    -0.183 A  
HETATM   13  C   UNL     1     -11.593   9.381  71.125  1.00  0.00    -0.415 A  
HETATM   14  C   UNL     1     -10.824  10.550  69.170  1.00  0.00    -0.277 A  
HETATM   15  C   UNL     1     -11.704  10.449  70.239  1.00  0.00    -0.406 A  
BRANCH   9  16
HETATM   16  N   UNL     1     -11.416   7.117  72.806  1.00  0.00    -0.490 NA 
HETATM   17  H1  UNL     1     -12.238   5.787  74.081  1.00  0.00     0.000 HD 
HETATM   18  N   UNL     1     -11.562   5.868  73.321  1.00  0.00    -0.427 NA 
HETATM   19  H   UNL     1     -11.945   7.917  73.153  1.00  0.00     0.000 HD 
HETATM   20  H2  UNL     1     -11.033   5.069  72.974  1.00  0.00     0.000 HD 
ENDBRANCH   9  16
ENDBRANCH   3   6
TORSDOF 2
ENDMDL
MODEL      174
REMARK 921   NORMALIZED FREE ENERGY PREDICTED BY IDOCK:   -3.03 KCAL/MOL
REMARK 922        TOTAL FREE ENERGY PREDICTED BY IDOCK:   -3.51 KCAL/MOL
REMARK 923 INTER-LIGAND FREE ENERGY PREDICTED BY IDOCK:   -3.44 KCAL/MOL
REMARK 924 INTRA-LIGAND FREE ENERGY PREDICTED BY IDOCK:   -0.08 KCAL/MOL
REMARK 927      BINDING AFFINITY PREDICTED BY RF-SCORE:    0.00 PKD
ROOT
HETATM    1  N   UNL     1     -10.764  10.448  67.297  1.00  0.00    -0.272 NA 
HETATM    2  H2  UNL     1     -11.576   9.911  66.993  1.00  0.00     0.000 HD 
HETATM    3  N   UNL     1     -10.068  10.042  68.369  1.00  0.00    -0.160 NA 
HETATM    4  H1  UNL     1     -10.493  11.284  66.780  1.00  0.00     0.000 HD 
HETATM    5  H   UNL     1      -9.256  10.579  68.673  1.00  0.00     0.000 HD 
ENDROOT
BRANCH   3   6
HETATM    6  C   UNL     1     -10.417   8.963  69.035  1.00  0.00    -0.214 A  
HETATM    7  N   UNL     1      -9.785   7.812  68.597  1.00  0.00    -0.154 NA 
HETATM    8  N   UNL     1     -10.201   6.574  68.962  1.00  0.00    -0.167 NA 
HETATM    9  C   UNL     1     -10.823   6.367  70.174  1.00  0.00    -0.296 A  
HETATM   10  C   UNL     1     -11.473   7.548  70.813  1.00  0.00    -0.305 A  
HETATM   11  C   UNL     1     -11.367   8.817  70.205  1.00  0.00    -0.162 A  
HETATM   12  C   UNL     1     -12.150   9.858  70.724  1.00  0.00    -0.396 A  
HETATM   13  C   UNL     1     -12.245   7.367  71.971  1.00  0.00    -0.315 A  
HETATM   14  C   UNL     1     -12.932   9.669  71.870  1.00  0.00    -0.527 A  
HETATM   15  C   UNL     1     -12.959   8.434  72.508  1.00  0.00    -0.235 A  
BRANCH   9  16
HETATM   16  N   UNL     1     -10.898   5.198  70.762  1.00  0.00    -0.060 NA 
HETATM   17  H1  UNL     1      -9.927   3.995  72.058  1.00  0.00     0.000 HD 
HETATM   18  N   UNL     1      -9.869   4.904  71.600  1.00  0.00    -0.176 NA 
HETATM   19  H   UNL     1     -11.672   4.555  70.602  1.00  0.00     0.000 HD 
HETATM   20  H2  UNL     1      -9.094   5.548  71.760  1.00  0.00     0.000 HD 
ENDBRANCH   9  16
ENDBRANCH   3   6
TORSDOF 2
ENDMDL
MODEL      175
REMARK 921   NORMALIZED FREE ENERGY PREDICTED BY IDOCK:   -3.01 KCAL/MOL
REMARK 922        TOTAL FREE ENERGY PREDICTED BY IDOCK:   -3.50 KCAL/MOL
REMARK 923 INTER-LIGAND FREE ENERGY PREDICTED BY IDOCK:   -3.36 KCAL/MOL
REMARK 924 INTRA-LIGAND FREE ENERGY PREDICTED BY IDOCK:   -0.13 KCAL/MOL
REMARK 927      BINDING AFFINITY PREDICTED BY RF-SCORE:    0.00 PKD
ROOT
HETATM    1  N   UNL     1     -11.856   9.780  70.355  1.00  0.00    -0.398 NA 
HETATM    2  H2  UNL     1     -11.418  10.565  70.837  1.00  0.00     0.000 HD 
HETATM    3  N   UNL     1     -11.530   9.523  69.080  1.00  0.00    -0.439 NA 
HETATM    4  H1  UNL     1     -12.534   9.202  70.851  1.00  0.00     0.000 HD 
HETATM    5  H   UNL     1     -11.968   8.738  68.599  1.00  0.00     0.000 HD 
ENDROOT
BRANCH   3   6
HETATM    6  C   UNL     1     -10.655  10.268  68.441  1.00  0.00    -0.216 A  
HETATM    7  N   UNL     1      -9.350   9.823  68.568  1.00  0.00    -0.140 NA 
HETATM    8  N   UNL     1      -8.287  10.590  68.219  1.00  0.00    -0.118 NA 
HETATM    9  C   UNL     1      -8.394  11.533  67.221  1.00  0.00    -0.154 A  
HETATM   10  C   UNL     1      -9.762  12.040  66.910  1.00  0.00    -0.213 A  
HETATM   11  C   UNL     1     -10.877  11.495  67.581  1.00  0.00    -0.277 A  
HETATM   12  C   UNL     1     -12.117  12.127  67.410  1.00  0.00     0.036 A  
HETATM   13  C   UNL     1      -9.914  13.104  66.008  1.00  0.00    -0.283 A  
HETATM   14  C   UNL     1     -12.262  13.199  66.521  1.00  0.00    -0.358 A  
HETATM   15  C   UNL     1     -11.169  13.670  65.802  1.00  0.00    -0.302 A  
BRANCH   9  16
HETATM   16  N   UNL     1      -7.367  12.020  66.569  1.00  0.00    -0.369 NA 
HETATM   17  H1  UNL     1      -5.443  11.636  66.096  1.00  0.00     0.000 HD 
HETATM   18  N   UNL     1      -6.242  11.257  66.604  1.00  0.00    -0.134 NA 
HETATM   19  H   UNL     1      -7.408  12.910  66.072  1.00  0.00     0.000 HD 
HETATM   20  H2  UNL     1      -6.201  10.368  67.101  1.00  0.00     0.000 HD 
ENDBRANCH   9  16
ENDBRANCH   3   6
TORSDOF 2
ENDMDL
MODEL      176
REMARK 921   NORMALIZED FREE ENERGY PREDICTED BY IDOCK:   -3.00 KCAL/MOL
REMARK 922        TOTAL FREE ENERGY PREDICTED BY IDOCK:   -3.49 KCAL/MOL
REMARK 923 INTER-LIGAND FREE ENERGY PREDICTED BY IDOCK:   -3.37 KCAL/MOL
REMARK 924 INTRA-LIGAND FREE ENERGY PREDICTED BY IDOCK:   -0.12 KCAL/MOL
REMARK 927      BINDING AFFINITY PREDICTED BY RF-SCORE:    0.00 PKD
ROOT
HETATM    1  N   UNL     1     -11.390   4.467  64.898  1.00  0.00    -1.065 NA 
HETATM    2  H2  UNL     1     -10.561   4.009  64.520  1.00  0.00     0.000 HD 
HETATM    3  N   UNL     1     -11.253   5.399  65.851  1.00  0.00    -0.753 NA 
HETATM    4  H1  UNL     1     -12.311   4.209  64.543  1.00  0.00     0.000 HD 
HETATM    5  H   UNL     1     -12.082   5.858  66.229  1.00  0.00     0.000 HD 
ENDROOT
BRANCH   3   6
HETATM    6  C   UNL     1     -10.065   5.732  66.308  1.00  0.00    -0.078 A  
HETATM    7  N   UNL     1      -9.191   4.663  66.411  1.00  0.00    -0.126 NA 
HETATM    8  N   UNL     1      -8.028   4.743  67.104  1.00  0.00    -0.102 NA 
HETATM    9  C   UNL     1      -7.361   5.942  67.228  1.00  0.00    -0.077 A  
HETATM   10  C   UNL     1      -8.164   7.187  67.049  1.00  0.00    -0.117 A  
HETATM   11  C   UNL     1      -9.527   7.093  66.696  1.00  0.00    -0.219 A  
HETATM   12  C   UNL     1     -10.294   8.267  66.730  1.00  0.00    -0.361 A  
HETATM   13  C   UNL     1      -7.571   8.433  67.308  1.00  0.00    -0.097 A  
HETATM   14  C   UNL     1      -9.702   9.506  67.006  1.00  0.00    -0.229 A  
HETATM   15  C   UNL     1      -8.340   9.592  67.268  1.00  0.00    -0.114 A  
BRANCH   9  16
HETATM   16  N   UNL     1      -6.088   6.038  67.522  1.00  0.00    -0.017 NA 
HETATM   17  H1  UNL     1      -4.720   5.500  68.904  1.00  0.00     0.000 HD 
HETATM   18  N   UNL     1      -5.711   5.425  68.675  1.00  0.00    -0.015 NA 
HETATM   19  H   UNL     1      -5.427   6.538  66.929  1.00  0.00     0.000 HD 
HETATM   20  H2  UNL     1      -6.372   4.925  69.269  1.00  0.00     0.000 HD 
ENDBRANCH   9  16
ENDBRANCH   3   6
TORSDOF 2
ENDMDL
MODEL      177
REMARK 921   NORMALIZED FREE ENERGY PREDICTED BY IDOCK:   -3.00 KCAL/MOL
REMARK 922        TOTAL FREE ENERGY PREDICTED BY IDOCK:   -3.48 KCAL/MOL
REMARK 923 INTER-LIGAND FREE ENERGY PREDICTED BY IDOCK:   -3.36 KCAL/MOL
REMARK 924 INTRA-LIGAND FREE ENERGY PREDICTED BY IDOCK:   -0.13 KCAL/MOL
REMARK 927      BINDING AFFINITY PREDICTED BY RF-SCORE:    0.00 PKD
ROOT
HETATM    1  N   UNL     1      -6.669   5.211  72.015  1.00  0.00    -0.050 NA 
HETATM    2  H2  UNL     1      -6.379   6.181  71.889  1.00  0.00     0.000 HD 
HETATM    3  N   UNL     1      -7.829   4.795  71.487  1.00  0.00    -0.097 NA 
HETATM    4  H1  UNL     1      -6.071   4.573  72.540  1.00  0.00     0.000 HD 
HETATM    5  H   UNL     1      -8.119   3.825  71.612  1.00  0.00     0.000 HD 
ENDROOT
BRANCH   3   6
HETATM    6  C   UNL     1      -8.600   5.618  70.810  1.00  0.00    -0.128 A  
HETATM    7  N   UNL     1      -8.469   5.497  69.436  1.00  0.00    -0.104 NA 
HETATM    8  N   UNL     1      -8.962   6.424  68.578  1.00  0.00    -0.125 NA 
HETATM    9  C   UNL     1     -10.073   7.170  68.907  1.00  0.00    -0.177 A  
HETATM   10  C   UNL     1     -10.391   7.310  70.357  1.00  0.00    -0.217 A  
HETATM   11  C   UNL     1      -9.606   6.631  71.313  1.00  0.00    -0.176 A  
HETATM   12  C   UNL     1      -9.809   6.941  72.665  1.00  0.00    -0.184 A  
HETATM   13  C   UNL     1     -11.422   8.176  70.756  1.00  0.00    -0.272 A  
HETATM   14  C   UNL     1     -10.827   7.818  73.059  1.00  0.00    -0.451 A  
HETATM   15  C   UNL     1     -11.648   8.414  72.109  1.00  0.00    -0.442 A  
BRANCH   9  16
HETATM   16  N   UNL     1     -10.828   7.776  68.023  1.00  0.00    -0.458 NA 
HETATM   17  H1  UNL     1     -11.107   7.994  66.037  1.00  0.00     0.000 HD 
HETATM   18  N   UNL     1     -10.520   7.522  66.724  1.00  0.00    -0.476 NA 
HETATM   19  H   UNL     1     -11.592   8.396  68.292  1.00  0.00     0.000 HD 
HETATM   20  H2  UNL     1      -9.755   6.903  66.456  1.00  0.00     0.000 HD 
ENDBRANCH   9  16
ENDBRANCH   3   6
TORSDOF 2
ENDMDL
MODEL      178
REMARK 921   NORMALIZED FREE ENERGY PREDICTED BY IDOCK:   -3.00 KCAL/MOL
REMARK 922        TOTAL FREE ENERGY PREDICTED BY IDOCK:   -3.48 KCAL/MOL
REMARK 923 INTER-LIGAND FREE ENERGY PREDICTED BY IDOCK:   -3.38 KCAL/MOL
REMARK 924 INTRA-LIGAND FREE ENERGY PREDICTED BY IDOCK:   -0.10 KCAL/MOL
REMARK 927      BINDING AFFINITY PREDICTED BY RF-SCORE:    0.00 PKD
ROOT
HETATM    1  N   UNL     1     -10.166  15.227  70.337  1.00  0.00    -0.478 NA 
HETATM    2  H2  UNL     1      -9.970  14.422  70.931  1.00  0.00     0.000 HD 
HETATM    3  N   UNL     1      -9.870  15.172  69.030  1.00  0.00    -0.229 NA 
HETATM    4  H1  UNL     1     -10.586  16.062  70.746  1.00  0.00     0.000 HD 
HETATM    5  H   UNL     1     -10.067  15.977  68.436  1.00  0.00     0.000 HD 
ENDROOT
BRANCH   3   6
HETATM    6  C   UNL     1      -9.329  14.094  68.503  1.00  0.00    -0.191 A  
HETATM    7  N   UNL     1      -7.991  14.247  68.179  1.00  0.00    -0.129 NA 
HETATM    8  N   UNL     1      -7.333  13.363  67.389  1.00  0.00    -0.148 NA 
HETATM    9  C   UNL     1      -7.703  12.037  67.352  1.00  0.00    -0.162 A  
HETATM   10  C   UNL     1      -9.099  11.711  67.767  1.00  0.00    -0.175 A  
HETATM   11  C   UNL     1      -9.945  12.737  68.239  1.00  0.00    -0.230 A  
HETATM   12  C   UNL     1     -11.299  12.431  68.431  1.00  0.00    -0.330 A  
HETATM   13  C   UNL     1      -9.575  10.400  67.610  1.00  0.00    -0.168 A  
HETATM   14  C   UNL     1     -11.775  11.125  68.257  1.00  0.00    -0.323 A  
HETATM   15  C   UNL     1     -10.910  10.107  67.873  1.00  0.00    -0.336 A  
BRANCH   9  16
HETATM   16  N   UNL     1      -6.913  11.074  66.947  1.00  0.00    -0.116 NA 
HETATM   17  H1  UNL     1      -6.053  10.299  65.294  1.00  0.00     0.000 HD 
HETATM   18  N   UNL     1      -6.667  11.048  65.610  1.00  0.00    -0.366 NA 
HETATM   19  H   UNL     1      -6.512  10.390  67.588  1.00  0.00     0.000 HD 
HETATM   20  H2  UNL     1      -7.069  11.732  64.968  1.00  0.00     0.000 HD 
ENDBRANCH   9  16
ENDBRANCH   3   6
TORSDOF 2
ENDMDL
MODEL      179
REMARK 921   NORMALIZED FREE ENERGY PREDICTED BY IDOCK:   -2.99 KCAL/MOL
REMARK 922        TOTAL FREE ENERGY PREDICTED BY IDOCK:   -3.48 KCAL/MOL
REMARK 923 INTER-LIGAND FREE ENERGY PREDICTED BY IDOCK:   -3.35 KCAL/MOL
REMARK 924 INTRA-LIGAND FREE ENERGY PREDICTED BY IDOCK:   -0.13 KCAL/MOL
REMARK 927      BINDING AFFINITY PREDICTED BY RF-SCORE:    0.00 PKD
ROOT
HETATM    1  N   UNL     1      -6.296  19.808  69.777  1.00  0.00    -0.337 NA 
HETATM    2  H2  UNL     1      -5.533  19.287  70.209  1.00  0.00     0.000 HD 
HETATM    3  N   UNL     1      -7.181  19.164  69.003  1.00  0.00    -0.341 NA 
HETATM    4  H1  UNL     1      -6.374  20.812  69.943  1.00  0.00     0.000 HD 
HETATM    5  H   UNL     1      -7.944  19.686  68.571  1.00  0.00     0.000 HD 
ENDROOT
BRANCH   3   6
HETATM    6  C   UNL     1      -7.079  17.870  68.790  1.00  0.00    -0.268 A  
HETATM    7  N   UNL     1      -6.148  17.246  69.602  1.00  0.00    -0.241 NA 
HETATM    8  N   UNL     1      -5.703  15.988  69.359  1.00  0.00    -0.120 NA 
HETATM    9  C   UNL     1      -6.507  15.065  68.726  1.00  0.00    -0.082 A  
HETATM   10  C   UNL     1      -7.618  15.597  67.884  1.00  0.00    -0.143 A  
HETATM   11  C   UNL     1      -7.845  16.988  67.826  1.00  0.00    -0.188 A  
HETATM   12  C   UNL     1      -8.764  17.462  66.879  1.00  0.00    -0.265 A  
HETATM   13  C   UNL     1      -8.375  14.710  67.102  1.00  0.00    -0.236 A  
HETATM   14  C   UNL     1      -9.505  16.575  66.088  1.00  0.00    -0.347 A  
HETATM   15  C   UNL     1      -9.331  15.203  66.218  1.00  0.00    -0.348 A  
BRANCH   9  16
HETATM   16  N   UNL     1      -6.323  13.770  68.801  1.00  0.00    -0.086 NA 
HETATM   17  H1  UNL     1      -6.574  12.187  70.027  1.00  0.00     0.000 HD 
HETATM   18  N   UNL     1      -6.716  13.195  69.969  1.00  0.00    -0.345 NA 
HETATM   19  H   UNL     1      -5.915  13.231  68.038  1.00  0.00     0.000 HD 
HETATM   20  H2  UNL     1      -7.125  13.734  70.732  1.00  0.00     0.000 HD 
ENDBRANCH   9  16
ENDBRANCH   3   6
TORSDOF 2
ENDMDL
MODEL      180
REMARK 921   NORMALIZED FREE ENERGY PREDICTED BY IDOCK:   -2.98 KCAL/MOL
REMARK 922        TOTAL FREE ENERGY PREDICTED BY IDOCK:   -3.46 KCAL/MOL
REMARK 923 INTER-LIGAND FREE ENERGY PREDICTED BY IDOCK:   -3.70 KCAL/MOL
REMARK 924 INTRA-LIGAND FREE ENERGY PREDICTED BY IDOCK:    0.24 KCAL/MOL
REMARK 927      BINDING AFFINITY PREDICTED BY RF-SCORE:    0.00 PKD
ROOT
HETATM    1  N   UNL     1     -10.752  19.345  66.082  1.00  0.00    -0.437 NA 
HETATM    2  H2  UNL     1     -11.406  18.626  65.774  1.00  0.00     0.000 HD 
HETATM    3  N   UNL     1      -9.619  18.985  66.702  1.00  0.00    -0.326 NA 
HETATM    4  H1  UNL     1     -10.970  20.327  65.914  1.00  0.00     0.000 HD 
HETATM    5  H   UNL     1      -8.965  19.704  67.011  1.00  0.00     0.000 HD 
ENDROOT
BRANCH   3   6
HETATM    6  C   UNL     1      -9.338  17.718  66.918  1.00  0.00    -0.269 A  
HETATM    7  N   UNL     1      -8.214  17.275  66.240  1.00  0.00    -0.401 NA 
HETATM    8  N   UNL     1      -7.917  15.958  66.114  1.00  0.00     0.084 NA 
HETATM    9  C   UNL     1      -8.305  15.052  67.075  1.00  0.00    -0.222 A  
HETATM   10  C   UNL     1      -9.453  15.436  67.947  1.00  0.00    -0.197 A  
HETATM   11  C   UNL     1     -10.038  16.713  67.808  1.00  0.00    -0.275 A  
HETATM   12  C   UNL     1     -11.231  16.965  68.500  1.00  0.00    -0.112 A  
HETATM   13  C   UNL     1      -9.984  14.495  68.844  1.00  0.00    -0.206 A  
HETATM   14  C   UNL     1     -11.767  16.017  69.381  1.00  0.00    -0.287 A  
HETATM   15  C   UNL     1     -11.131  14.796  69.572  1.00  0.00    -0.302 A  
BRANCH   9  16
HETATM   16  N   UNL     1      -7.746  13.877  67.235  1.00  0.00    -0.331 NA 
HETATM   17  H1  UNL     1      -7.995  11.917  66.825  1.00  0.00     0.000 HD 
HETATM   18  N   UNL     1      -8.430  12.831  66.701  1.00  0.00    -0.419 NA 
HETATM   19  H   UNL     1      -6.860  13.757  67.724  1.00  0.00     0.000 HD 
HETATM   20  H2  UNL     1      -9.316  12.952  66.211  1.00  0.00     0.000 HD 
ENDBRANCH   9  16
ENDBRANCH   3   6
TORSDOF 2
ENDMDL
MODEL      181
REMARK 921   NORMALIZED FREE ENERGY PREDICTED BY IDOCK:   -2.96 KCAL/MOL
REMARK 922        TOTAL FREE ENERGY PREDICTED BY IDOCK:   -3.44 KCAL/MOL
REMARK 923 INTER-LIGAND FREE ENERGY PREDICTED BY IDOCK:   -3.33 KCAL/MOL
REMARK 924 INTRA-LIGAND FREE ENERGY PREDICTED BY IDOCK:   -0.11 KCAL/MOL
REMARK 927      BINDING AFFINITY PREDICTED BY RF-SCORE:    0.00 PKD
ROOT
HETATM    1  N   UNL     1     -11.300   4.559  65.180  1.00  0.00    -1.113 NA 
HETATM    2  H2  UNL     1     -12.137   4.811  65.705  1.00  0.00     0.000 HD 
HETATM    3  N   UNL     1     -10.101   4.982  65.606  1.00  0.00    -0.385 NA 
HETATM    4  H1  UNL     1     -11.388   3.988  64.339  1.00  0.00     0.000 HD 
HETATM    5  H   UNL     1      -9.264   4.730  65.080  1.00  0.00     0.000 HD 
ENDROOT
BRANCH   3   6
HETATM    6  C   UNL     1      -9.988   5.717  66.691  1.00  0.00    -0.176 A  
HETATM    7  N   UNL     1     -10.961   6.696  66.802  1.00  0.00    -0.310 NA 
HETATM    8  N   UNL     1     -10.864   7.716  67.690  1.00  0.00    -0.157 NA 
HETATM    9  C   UNL     1     -10.184   7.556  68.877  1.00  0.00    -0.208 A  
HETATM   10  C   UNL     1      -9.162   6.470  68.933  1.00  0.00    -0.129 A  
HETATM   11  C   UNL     1      -8.984   5.621  67.820  1.00  0.00    -0.107 A  
HETATM   12  C   UNL     1      -7.889   4.747  67.833  1.00  0.00    -0.082 A  
HETATM   13  C   UNL     1      -8.340   6.356  70.065  1.00  0.00    -0.130 A  
HETATM   14  C   UNL     1      -7.060   4.647  68.958  1.00  0.00    -0.052 A  
HETATM   15  C   UNL     1      -7.300   5.431  70.080  1.00  0.00    -0.068 A  
BRANCH   9  16
HETATM   16  N   UNL     1     -10.367   8.318  69.927  1.00  0.00    -0.213 NA 
HETATM   17  H1  UNL     1     -10.037  10.182  70.628  1.00  0.00     0.000 HD 
HETATM   18  N   UNL     1      -9.895   9.588  69.812  1.00  0.00    -0.201 NA 
HETATM   19  H   UNL     1     -10.830   7.983  70.771  1.00  0.00     0.000 HD 
HETATM   20  H2  UNL     1      -9.432   9.923  68.967  1.00  0.00     0.000 HD 
ENDBRANCH   9  16
ENDBRANCH   3   6
TORSDOF 2
ENDMDL
MODEL      182
REMARK 921   NORMALIZED FREE ENERGY PREDICTED BY IDOCK:   -2.94 KCAL/MOL
REMARK 922        TOTAL FREE ENERGY PREDICTED BY IDOCK:   -3.42 KCAL/MOL
REMARK 923 INTER-LIGAND FREE ENERGY PREDICTED BY IDOCK:   -3.30 KCAL/MOL
REMARK 924 INTRA-LIGAND FREE ENERGY PREDICTED BY IDOCK:   -0.12 KCAL/MOL
REMARK 927      BINDING AFFINITY PREDICTED BY RF-SCORE:    0.00 PKD
ROOT
HETATM    1  N   UNL     1      -5.608  19.556  68.884  1.00  0.00    -0.203 NA 
HETATM    2  H2  UNL     1      -5.760  19.812  67.909  1.00  0.00     0.000 HD 
HETATM    3  N   UNL     1      -6.294  18.532  69.412  1.00  0.00    -0.263 NA 
HETATM    4  H1  UNL     1      -4.936  20.082  69.442  1.00  0.00     0.000 HD 
HETATM    5  H   UNL     1      -6.142  18.276  70.388  1.00  0.00     0.000 HD 
ENDROOT
BRANCH   3   6
HETATM    6  C   UNL     1      -7.160  17.853  68.692  1.00  0.00    -0.266 A  
HETATM    7  N   UNL     1      -8.168  18.635  68.153  1.00  0.00    -0.293 NA 
HETATM    8  N   UNL     1      -9.291  18.099  67.616  1.00  0.00    -0.258 NA 
HETATM    9  C   UNL     1      -9.270  16.850  67.036  1.00  0.00    -0.234 A  
HETATM   10  C   UNL     1      -8.177  15.925  67.456  1.00  0.00    -0.177 A  
HETATM   11  C   UNL     1      -7.187  16.377  68.355  1.00  0.00    -0.158 A  
HETATM   12  C   UNL     1      -6.296  15.429  68.877  1.00  0.00    -0.106 A  
HETATM   13  C   UNL     1      -8.190  14.594  67.010  1.00  0.00    -0.188 A  
HETATM   14  C   UNL     1      -6.323  14.098  68.442  1.00  0.00    -0.101 A  
HETATM   15  C   UNL     1      -7.250  13.688  67.491  1.00  0.00    -0.169 A  
BRANCH   9  16
HETATM   16  N   UNL     1     -10.165  16.433  66.175  1.00  0.00    -0.333 NA 
HETATM   17  H1  UNL     1     -11.112  16.956  64.471  1.00  0.00     0.000 HD 
HETATM   18  N   UNL     1     -10.415  17.280  65.141  1.00  0.00    -0.546 NA 
HETATM   19  H   UNL     1     -10.642  15.537  66.273  1.00  0.00     0.000 HD 
HETATM   20  H2  UNL     1      -9.938  18.176  65.043  1.00  0.00     0.000 HD 
ENDBRANCH   9  16
ENDBRANCH   3   6
TORSDOF 2
ENDMDL
MODEL      183
REMARK 921   NORMALIZED FREE ENERGY PREDICTED BY IDOCK:   -2.93 KCAL/MOL
REMARK 922        TOTAL FREE ENERGY PREDICTED BY IDOCK:   -3.41 KCAL/MOL
REMARK 923 INTER-LIGAND FREE ENERGY PREDICTED BY IDOCK:   -3.51 KCAL/MOL
REMARK 924 INTRA-LIGAND FREE ENERGY PREDICTED BY IDOCK:    0.10 KCAL/MOL
REMARK 927      BINDING AFFINITY PREDICTED BY RF-SCORE:    0.00 PKD
ROOT
HETATM    1  N   UNL     1     -10.144   4.222  73.016  1.00  0.00    -0.146 NA 
HETATM    2  H2  UNL     1      -9.814   4.048  72.067  1.00  0.00     0.000 HD 
HETATM    3  N   UNL     1     -10.245   5.484  73.459  1.00  0.00    -0.193 NA 
HETATM    4  H1  UNL     1     -10.394   3.434  73.613  1.00  0.00     0.000 HD 
HETATM    5  H   UNL     1     -10.575   5.658  74.408  1.00  0.00     0.000 HD 
ENDROOT
BRANCH   3   6
HETATM    6  C   UNL     1      -9.923   6.500  72.688  1.00  0.00    -0.171 A  
HETATM    7  N   UNL     1      -9.192   7.480  73.338  1.00  0.00    -0.203 NA 
HETATM    8  N   UNL     1      -9.000   8.713  72.806  1.00  0.00    -0.365 NA 
HETATM    9  C   UNL     1      -8.970   8.895  71.441  1.00  0.00    -0.229 A  
HETATM   10  C   UNL     1      -9.644   7.861  70.603  1.00  0.00    -0.167 A  
HETATM   11  C   UNL     1     -10.210   6.724  71.219  1.00  0.00    -0.221 A  
HETATM   12  C   UNL     1     -11.002   5.879  70.428  1.00  0.00    -0.376 A  
HETATM   13  C   UNL     1      -9.771   8.070  69.221  1.00  0.00    -0.167 A  
HETATM   14  C   UNL     1     -11.140   6.100  69.052  1.00  0.00    -0.437 A  
HETATM   15  C   UNL     1     -10.506   7.178  68.446  1.00  0.00    -0.228 A  
BRANCH   9  16
HETATM   16  N   UNL     1      -8.417   9.931  70.859  1.00  0.00    -0.282 NA 
HETATM   17  H1  UNL     1      -6.638  10.831  70.548  1.00  0.00     0.000 HD 
HETATM   18  N   UNL     1      -7.068  10.025  71.001  1.00  0.00    -0.324 NA 
HETATM   19  H   UNL     1      -8.960  10.618  70.337  1.00  0.00     0.000 HD 
HETATM   20  H2  UNL     1      -6.525   9.338  71.523  1.00  0.00     0.000 HD 
ENDBRANCH   9  16
ENDBRANCH   3   6
TORSDOF 2
ENDMDL
MODEL      184
REMARK 921   NORMALIZED FREE ENERGY PREDICTED BY IDOCK:   -2.91 KCAL/MOL
REMARK 922        TOTAL FREE ENERGY PREDICTED BY IDOCK:   -3.38 KCAL/MOL
REMARK 923 INTER-LIGAND FREE ENERGY PREDICTED BY IDOCK:   -3.31 KCAL/MOL
REMARK 924 INTRA-LIGAND FREE ENERGY PREDICTED BY IDOCK:   -0.08 KCAL/MOL
REMARK 927      BINDING AFFINITY PREDICTED BY RF-SCORE:    0.00 PKD
ROOT
HETATM    1  N   UNL     1     -13.521   6.571  72.094  1.00  0.00    -0.432 NA 
HETATM    2  H2  UNL     1     -13.087   5.653  72.189  1.00  0.00     0.000 HD 
HETATM    3  N   UNL     1     -12.751   7.645  71.864  1.00  0.00    -0.393 NA 
HETATM    4  H1  UNL     1     -14.534   6.659  72.176  1.00  0.00     0.000 HD 
HETATM    5  H   UNL     1     -13.185   8.563  71.770  1.00  0.00     0.000 HD 
ENDROOT
BRANCH   3   6
HETATM    6  C   UNL     1     -11.445   7.532  71.758  1.00  0.00    -0.260 A  
HETATM    7  N   UNL     1     -10.748   8.210  72.744  1.00  0.00    -0.354 NA 
HETATM    8  N   UNL     1      -9.415   8.443  72.658  1.00  0.00    -0.277 NA 
HETATM    9  C   UNL     1      -8.590   7.577  71.974  1.00  0.00    -0.107 A  
HETATM   10  C   UNL     1      -9.224   6.711  70.938  1.00  0.00    -0.157 A  
HETATM   11  C   UNL     1     -10.622   6.757  70.751  1.00  0.00    -0.254 A  
HETATM   12  C   UNL     1     -11.157   6.082  69.644  1.00  0.00    -0.474 A  
HETATM   13  C   UNL     1      -8.413   5.918  70.111  1.00  0.00    -0.126 A  
HETATM   14  C   UNL     1     -10.341   5.305  68.811  1.00  0.00    -0.206 A  
HETATM   15  C   UNL     1      -8.978   5.202  69.060  1.00  0.00    -0.123 A  
BRANCH   9  16
HETATM   16  N   UNL     1      -7.295   7.504  72.165  1.00  0.00    -0.067 NA 
HETATM   17  H1  UNL     1      -5.906   7.017  73.545  1.00  0.00     0.000 HD 
HETATM   18  N   UNL     1      -6.913   7.074  73.396  1.00  0.00    -0.073 NA 
HETATM   19  H   UNL     1      -6.622   7.752  71.440  1.00  0.00     0.000 HD 
HETATM   20  H2  UNL     1      -7.587   6.826  74.121  1.00  0.00     0.000 HD 
ENDBRANCH   9  16
ENDBRANCH   3   6
TORSDOF 2
ENDMDL
MODEL      185
REMARK 921   NORMALIZED FREE ENERGY PREDICTED BY IDOCK:   -2.91 KCAL/MOL
REMARK 922        TOTAL FREE ENERGY PREDICTED BY IDOCK:   -3.38 KCAL/MOL
REMARK 923 INTER-LIGAND FREE ENERGY PREDICTED BY IDOCK:   -3.27 KCAL/MOL
REMARK 924 INTRA-LIGAND FREE ENERGY PREDICTED BY IDOCK:   -0.11 KCAL/MOL
REMARK 927      BINDING AFFINITY PREDICTED BY RF-SCORE:    0.00 PKD
ROOT
HETATM    1  N   UNL     1     -11.271   4.211  64.451  1.00  0.00    -0.766 NA 
HETATM    2  H2  UNL     1     -12.091   4.038  65.033  1.00  0.00     0.000 HD 
HETATM    3  N   UNL     1     -10.118   4.580  65.028  1.00  0.00    -0.378 NA 
HETATM    4  H1  UNL     1     -11.341   4.098  63.440  1.00  0.00     0.000 HD 
HETATM    5  H   UNL     1      -9.298   4.752  64.446  1.00  0.00     0.000 HD 
ENDROOT
BRANCH   3   6
HETATM    6  C   UNL     1     -10.028   4.725  66.332  1.00  0.00    -0.241 A  
HETATM    7  N   UNL     1     -10.983   5.575  66.863  1.00  0.00    -0.124 NA 
HETATM    8  N   UNL     1     -10.896   6.064  68.125  1.00  0.00    -0.289 NA 
HETATM    9  C   UNL     1     -10.264   5.347  69.117  1.00  0.00    -0.232 A  
HETATM   10  C   UNL     1      -9.269   4.322  68.686  1.00  0.00    -0.197 A  
HETATM   11  C   UNL     1      -9.069   4.080  67.310  1.00  0.00    -0.169 A  
HETATM   12  C   UNL     1      -7.994   3.259  66.940  1.00  0.00    -0.080 A  
HETATM   13  C   UNL     1      -8.491   3.667  69.653  1.00  0.00    -0.094 A  
HETATM   14  C   UNL     1      -7.209   2.620  67.908  1.00  0.00    -0.049 A  
HETATM   15  C   UNL     1      -7.473   2.803  69.260  1.00  0.00    -0.044 A  
BRANCH   9  16
HETATM   16  N   UNL     1     -10.468   5.542  70.397  1.00  0.00    -0.276 NA 
HETATM   17  H1  UNL     1     -11.503   6.689  71.695  1.00  0.00     0.000 HD 
HETATM   18  N   UNL     1     -11.344   6.537  70.700  1.00  0.00    -0.328 NA 
HETATM   19  H   UNL     1     -10.003   4.988  71.115  1.00  0.00     0.000 HD 
HETATM   20  H2  UNL     1     -11.809   7.091  69.982  1.00  0.00     0.000 HD 
ENDBRANCH   9  16
ENDBRANCH   3   6
TORSDOF 2
ENDMDL
MODEL      186
REMARK 921   NORMALIZED FREE ENERGY PREDICTED BY IDOCK:   -2.90 KCAL/MOL
REMARK 922        TOTAL FREE ENERGY PREDICTED BY IDOCK:   -3.37 KCAL/MOL
REMARK 923 INTER-LIGAND FREE ENERGY PREDICTED BY IDOCK:   -3.25 KCAL/MOL
REMARK 924 INTRA-LIGAND FREE ENERGY PREDICTED BY IDOCK:   -0.13 KCAL/MOL
REMARK 927      BINDING AFFINITY PREDICTED BY RF-SCORE:    0.00 PKD
ROOT
HETATM    1  N   UNL     1      -6.452   7.269  69.303  1.00  0.00    -0.036 NA 
HETATM    2  H2  UNL     1      -6.836   8.209  69.208  1.00  0.00     0.000 HD 
HETATM    3  N   UNL     1      -7.223   6.286  69.792  1.00  0.00    -0.072 NA 
HETATM    4  H1  UNL     1      -5.487   7.091  69.025  1.00  0.00     0.000 HD 
HETATM    5  H   UNL     1      -6.838   5.347  69.887  1.00  0.00     0.000 HD 
ENDROOT
BRANCH   3   6
HETATM    6  C   UNL     1      -8.467   6.516  70.151  1.00  0.00    -0.135 A  
HETATM    7  N   UNL     1      -9.168   7.301  69.251  1.00  0.00    -0.144 NA 
HETATM    8  N   UNL     1     -10.359   7.870  69.561  1.00  0.00    -0.213 NA 
HETATM    9  C   UNL     1     -11.209   7.278  70.469  1.00  0.00    -0.279 A  
HETATM   10  C   UNL     1     -10.602   6.330  71.449  1.00  0.00    -0.284 A  
HETATM   11  C   UNL     1      -9.227   6.027  71.366  1.00  0.00    -0.152 A  
HETATM   12  C   UNL     1      -8.654   5.293  72.414  1.00  0.00    -0.122 A  
HETATM   13  C   UNL     1     -11.393   5.812  72.487  1.00  0.00    -0.358 A  
HETATM   14  C   UNL     1      -9.444   4.791  73.457  1.00  0.00    -0.136 A  
HETATM   15  C   UNL     1     -10.813   5.028  73.480  1.00  0.00    -0.369 A  
BRANCH   9  16
HETATM   16  N   UNL     1     -12.494   7.529  70.532  1.00  0.00    -0.501 NA 
HETATM   17  H1  UNL     1     -13.820   9.015  70.857  1.00  0.00     0.000 HD 
HETATM   18  N   UNL     1     -12.820   8.819  70.809  1.00  0.00    -0.445 NA 
HETATM   19  H   UNL     1     -13.199   6.807  70.385  1.00  0.00     0.000 HD 
HETATM   20  H2  UNL     1     -12.115   9.541  70.956  1.00  0.00     0.000 HD 
ENDBRANCH   9  16
ENDBRANCH   3   6
TORSDOF 2
ENDMDL
MODEL      187
REMARK 921   NORMALIZED FREE ENERGY PREDICTED BY IDOCK:   -2.89 KCAL/MOL
REMARK 922        TOTAL FREE ENERGY PREDICTED BY IDOCK:   -3.36 KCAL/MOL
REMARK 923 INTER-LIGAND FREE ENERGY PREDICTED BY IDOCK:   -3.24 KCAL/MOL
REMARK 924 INTRA-LIGAND FREE ENERGY PREDICTED BY IDOCK:   -0.12 KCAL/MOL
REMARK 927      BINDING AFFINITY PREDICTED BY RF-SCORE:    0.00 PKD
ROOT
HETATM    1  N   UNL     1      -8.375   8.745  63.623  1.00  0.00    -0.282 NA 
HETATM    2  H2  UNL     1      -7.577   9.217  64.048  1.00  0.00     0.000 HD 
HETATM    3  N   UNL     1      -9.617   9.157  63.914  1.00  0.00    -0.012 NA 
HETATM    4  H1  UNL     1      -8.215   7.967  62.983  1.00  0.00     0.000 HD 
HETATM    5  H   UNL     1     -10.415   8.685  63.489  1.00  0.00     0.000 HD 
ENDROOT
BRANCH   3   6
HETATM    6  C   UNL     1      -9.823  10.161  64.739  1.00  0.00    -0.312 A  
HETATM    7  N   UNL     1     -10.140  11.348  64.100  1.00  0.00    -0.281 NA 
HETATM    8  N   UNL     1     -10.121  12.542  64.742  1.00  0.00    -0.259 NA 
HETATM    9  C   UNL     1     -10.379  12.622  66.093  1.00  0.00    -0.256 A  
HETATM   10  C   UNL     1     -10.168  11.384  66.898  1.00  0.00    -0.254 A  
HETATM   11  C   UNL     1      -9.792  10.187  66.252  1.00  0.00    -0.288 A  
HETATM   12  C   UNL     1      -9.412   9.102  67.055  1.00  0.00    -0.201 A  
HETATM   13  C   UNL     1     -10.273  11.445  68.297  1.00  0.00    -0.204 A  
HETATM   14  C   UNL     1      -9.502   9.172  68.451  1.00  0.00    -0.150 A  
HETATM   15  C   UNL     1      -9.956  10.331  69.069  1.00  0.00    -0.223 A  
BRANCH   9  16
HETATM   16  N   UNL     1     -10.761  13.721  66.696  1.00  0.00    -0.276 NA 
HETATM   17  H1  UNL     1     -10.123  15.561  67.225  1.00  0.00     0.000 HD 
HETATM   18  N   UNL     1      -9.826  14.705  66.756  1.00  0.00    -0.247 NA 
HETATM   19  H   UNL     1     -11.694  13.830  67.093  1.00  0.00     0.000 HD 
HETATM   20  H2  UNL     1      -8.893  14.596  66.359  1.00  0.00     0.000 HD 
ENDBRANCH   9  16
ENDBRANCH   3   6
TORSDOF 2
ENDMDL
MODEL      188
REMARK 921   NORMALIZED FREE ENERGY PREDICTED BY IDOCK:   -2.88 KCAL/MOL
REMARK 922        TOTAL FREE ENERGY PREDICTED BY IDOCK:   -3.34 KCAL/MOL
REMARK 923 INTER-LIGAND FREE ENERGY PREDICTED BY IDOCK:   -3.23 KCAL/MOL
REMARK 924 INTRA-LIGAND FREE ENERGY PREDICTED BY IDOCK:   -0.11 KCAL/MOL
REMARK 927      BINDING AFFINITY PREDICTED BY RF-SCORE:    0.00 PKD
ROOT
HETATM    1  N   UNL     1      -6.281  14.167  70.430  1.00  0.00    -0.285 NA 
HETATM    2  H2  UNL     1      -6.150  13.251  70.001  1.00  0.00     0.000 HD 
HETATM    3  N   UNL     1      -7.325  14.924  70.064  1.00  0.00    -0.329 NA 
HETATM    4  H1  UNL     1      -5.616  14.492  71.132  1.00  0.00     0.000 HD 
HETATM    5  H   UNL     1      -7.456  15.840  70.493  1.00  0.00     0.000 HD 
ENDROOT
BRANCH   3   6
HETATM    6  C   UNL     1      -8.183  14.505  69.159  1.00  0.00    -0.017 A  
HETATM    7  N   UNL     1      -7.611  13.712  68.178  1.00  0.00    -0.122 NA 
HETATM    8  N   UNL     1      -8.257  13.409  67.025  1.00  0.00    -0.098 NA 
HETATM    9  C   UNL     1      -9.631  13.333  66.985  1.00  0.00    -0.243 A  
HETATM   10  C   UNL     1     -10.383  14.068  68.043  1.00  0.00    -0.240 A  
HETATM   11  C   UNL     1      -9.676  14.737  69.064  1.00  0.00    -0.190 A  
HETATM   12  C   UNL     1     -10.402  15.575  69.922  1.00  0.00    -0.322 A  
HETATM   13  C   UNL     1     -11.783  14.146  67.967  1.00  0.00    -0.394 A  
HETATM   14  C   UNL     1     -11.797  15.664  69.832  1.00  0.00    -0.374 A  
HETATM   15  C   UNL     1     -12.488  14.931  68.874  1.00  0.00     0.105 A  
BRANCH   9  16
HETATM   16  N   UNL     1     -10.296  12.685  66.059  1.00  0.00    -0.264 NA 
HETATM   17  H1  UNL     1     -10.066  11.730  64.297  1.00  0.00     0.000 HD 
HETATM   18  N   UNL     1      -9.549  12.234  65.017  1.00  0.00    -0.457 NA 
HETATM   19  H   UNL     1     -11.302  12.532  66.117  1.00  0.00     0.000 HD 
HETATM   20  H2  UNL     1      -8.543  12.387  64.960  1.00  0.00     0.000 HD 
ENDBRANCH   9  16
ENDBRANCH   3   6
TORSDOF 2
ENDMDL
MODEL      189
REMARK 921   NORMALIZED FREE ENERGY PREDICTED BY IDOCK:   -2.87 KCAL/MOL
REMARK 922        TOTAL FREE ENERGY PREDICTED BY IDOCK:   -3.34 KCAL/MOL
REMARK 923 INTER-LIGAND FREE ENERGY PREDICTED BY IDOCK:   -3.25 KCAL/MOL
REMARK 924 INTRA-LIGAND FREE ENERGY PREDICTED BY IDOCK:   -0.09 KCAL/MOL
REMARK 927      BINDING AFFINITY PREDICTED BY RF-SCORE:    0.00 PKD
ROOT
HETATM    1  N   UNL     1     -10.856   5.306  66.583  1.00  0.00    -0.463 NA 
HETATM    2  H2  UNL     1     -11.788   5.104  66.945  1.00  0.00     0.000 HD 
HETATM    3  N   UNL     1      -9.902   5.737  67.421  1.00  0.00    -0.129 NA 
HETATM    4  H1  UNL     1     -10.665   5.178  65.590  1.00  0.00     0.000 HD 
HETATM    5  H   UNL     1      -8.970   5.940  67.060  1.00  0.00     0.000 HD 
ENDROOT
BRANCH   3   6
HETATM    6  C   UNL     1     -10.150   5.902  68.703  1.00  0.00    -0.168 A  
HETATM    7  N   UNL     1     -11.465   6.236  68.975  1.00  0.00    -0.261 NA 
HETATM    8  N   UNL     1     -11.857   6.708  70.185  1.00  0.00    -0.358 NA 
HETATM    9  C   UNL     1     -11.189   6.345  71.334  1.00  0.00    -0.288 A  
HETATM   10  C   UNL     1      -9.782   5.873  71.181  1.00  0.00    -0.209 A  
HETATM   11  C   UNL     1      -9.224   5.749  69.891  1.00  0.00    -0.166 A  
HETATM   12  C   UNL     1      -7.848   5.495  69.795  1.00  0.00    -0.082 A  
HETATM   13  C   UNL     1      -9.009   5.630  72.327  1.00  0.00    -0.141 A  
HETATM   14  C   UNL     1      -7.076   5.270  70.942  1.00  0.00    -0.060 A  
HETATM   15  C   UNL     1      -7.659   5.311  72.202  1.00  0.00    -0.099 A  
BRANCH   9  16
HETATM   16  N   UNL     1     -11.711   6.425  72.533  1.00  0.00    -0.470 NA 
HETATM   17  H1  UNL     1     -12.865   5.417  73.846  1.00  0.00     0.000 HD 
HETATM   18  N   UNL     1     -12.459   5.355  72.913  1.00  0.00    -0.355 NA 
HETATM   19  H   UNL     1     -11.568   7.233  73.138  1.00  0.00     0.000 HD 
HETATM   20  H2  UNL     1     -12.603   4.547  72.307  1.00  0.00     0.000 HD 
ENDBRANCH   9  16
ENDBRANCH   3   6
TORSDOF 2
ENDMDL
MODEL      190
REMARK 921   NORMALIZED FREE ENERGY PREDICTED BY IDOCK:   -2.86 KCAL/MOL
REMARK 922        TOTAL FREE ENERGY PREDICTED BY IDOCK:   -3.33 KCAL/MOL
REMARK 923 INTER-LIGAND FREE ENERGY PREDICTED BY IDOCK:   -3.72 KCAL/MOL
REMARK 924 INTRA-LIGAND FREE ENERGY PREDICTED BY IDOCK:    0.39 KCAL/MOL
REMARK 927      BINDING AFFINITY PREDICTED BY RF-SCORE:    0.00 PKD
ROOT
HETATM    1  N   UNL     1      -9.278   8.205  66.936  1.00  0.00    -0.151 NA 
HETATM    2  H2  UNL     1      -8.428   8.765  66.877  1.00  0.00     0.000 HD 
HETATM    3  N   UNL     1     -10.428   8.787  67.306  1.00  0.00    -0.288 NA 
HETATM    4  H1  UNL     1      -9.240   7.210  66.713  1.00  0.00     0.000 HD 
HETATM    5  H   UNL     1     -11.278   8.227  67.365  1.00  0.00     0.000 HD 
ENDROOT
BRANCH   3   6
HETATM    6  C   UNL     1     -10.476  10.070  67.593  1.00  0.00    -0.246 A  
HETATM    7  N   UNL     1     -11.718  10.493  68.035  1.00  0.00    -0.396 NA 
HETATM    8  N   UNL     1     -12.048  11.806  68.121  1.00  0.00    -0.531 NA 
HETATM    9  C   UNL     1     -11.084  12.761  68.360  1.00  0.00    -0.262 A  
HETATM   10  C   UNL     1      -9.677  12.407  68.015  1.00  0.00    -0.210 A  
HETATM   11  C   UNL     1      -9.380  11.113  67.537  1.00  0.00    -0.174 A  
HETATM   12  C   UNL     1      -8.090  10.879  67.039  1.00  0.00    -0.131 A  
HETATM   13  C   UNL     1      -8.678  13.390  68.101  1.00  0.00    -0.179 A  
HETATM   14  C   UNL     1      -7.101  11.868  67.111  1.00  0.00    -0.142 A  
HETATM   15  C   UNL     1      -7.386  13.111  67.664  1.00  0.00    -0.155 A  
BRANCH   9  16
HETATM   16  N   UNL     1     -11.347  13.953  68.836  1.00  0.00    -0.265 NA 
HETATM   17  H1  UNL     1     -12.572  15.539  68.596  1.00  0.00     0.000 HD 
HETATM   18  N   UNL     1     -12.368  14.611  68.225  1.00  0.00    -0.593 NA 
HETATM   19  H   UNL     1     -10.821  14.360  69.610  1.00  0.00     0.000 HD 
HETATM   20  H2  UNL     1     -12.893  14.204  67.452  1.00  0.00     0.000 HD 
ENDBRANCH   9  16
ENDBRANCH   3   6
TORSDOF 2
ENDMDL
MODEL      191
REMARK 921   NORMALIZED FREE ENERGY PREDICTED BY IDOCK:   -2.83 KCAL/MOL
REMARK 922        TOTAL FREE ENERGY PREDICTED BY IDOCK:   -3.30 KCAL/MOL
REMARK 923 INTER-LIGAND FREE ENERGY PREDICTED BY IDOCK:   -3.19 KCAL/MOL
REMARK 924 INTRA-LIGAND FREE ENERGY PREDICTED BY IDOCK:   -0.11 KCAL/MOL
REMARK 927      BINDING AFFINITY PREDICTED BY RF-SCORE:    0.00 PKD
ROOT
HETATM    1  N   UNL     1     -10.695   5.671  66.216  1.00  0.00    -0.613 NA 
HETATM    2  H2  UNL     1     -11.228   5.702  67.084  1.00  0.00     0.000 HD 
HETATM    3  N   UNL     1      -9.794   6.630  65.959  1.00  0.00    -0.391 NA 
HETATM    4  H1  UNL     1     -10.855   4.910  65.555  1.00  0.00     0.000 HD 
HETATM    5  H   UNL     1      -9.261   6.599  65.091  1.00  0.00     0.000 HD 
ENDROOT
BRANCH   3   6
HETATM    6  C   UNL     1      -9.588   7.611  66.811  1.00  0.00    -0.209 A  
HETATM    7  N   UNL     1     -10.744   8.067  67.423  1.00  0.00    -0.246 NA 
HETATM    8  N   UNL     1     -10.786   9.232  68.116  1.00  0.00    -0.190 NA 
HETATM    9  C   UNL     1      -9.664   9.714  68.754  1.00  0.00    -0.163 A  
HETATM   10  C   UNL     1      -8.342   9.234  68.258  1.00  0.00    -0.120 A  
HETATM   11  C   UNL     1      -8.291   8.272  67.227  1.00  0.00    -0.124 A  
HETATM   12  C   UNL     1      -7.042   7.993  66.654  1.00  0.00    -0.076 A  
HETATM   13  C   UNL     1      -7.165   9.801  68.772  1.00  0.00    -0.072 A  
HETATM   14  C   UNL     1      -5.872   8.574  67.158  1.00  0.00    -0.043 A  
HETATM   15  C   UNL     1      -5.930   9.455  68.231  1.00  0.00    -0.044 A  
BRANCH   9  16
HETATM   16  N   UNL     1      -9.704  10.582  69.735  1.00  0.00    -0.427 NA 
HETATM   17  H1  UNL     1     -10.981  11.619  70.904  1.00  0.00     0.000 HD 
HETATM   18  N   UNL     1     -10.950  10.943  70.140  1.00  0.00    -0.468 NA 
HETATM   19  H   UNL     1      -8.859  10.959  70.164  1.00  0.00     0.000 HD 
HETATM   20  H2  UNL     1     -11.794  10.566  69.712  1.00  0.00     0.000 HD 
ENDBRANCH   9  16
ENDBRANCH   3   6
TORSDOF 2
ENDMDL
MODEL      192
REMARK 921   NORMALIZED FREE ENERGY PREDICTED BY IDOCK:   -2.83 KCAL/MOL
REMARK 922        TOTAL FREE ENERGY PREDICTED BY IDOCK:   -3.30 KCAL/MOL
REMARK 923 INTER-LIGAND FREE ENERGY PREDICTED BY IDOCK:   -3.17 KCAL/MOL
REMARK 924 INTRA-LIGAND FREE ENERGY PREDICTED BY IDOCK:   -0.13 KCAL/MOL
REMARK 927      BINDING AFFINITY PREDICTED BY RF-SCORE:    0.00 PKD
ROOT
HETATM    1  N   UNL     1      -7.320   4.475  66.245  1.00  0.00    -0.080 NA 
HETATM    2  H2  UNL     1      -8.260   4.079  66.228  1.00  0.00     0.000 HD 
HETATM    3  N   UNL     1      -7.130   5.703  66.748  1.00  0.00    -0.068 NA 
HETATM    4  H1  UNL     1      -6.539   3.930  65.880  1.00  0.00     0.000 HD 
HETATM    5  H   UNL     1      -6.190   6.099  66.764  1.00  0.00     0.000 HD 
ENDROOT
BRANCH   3   6
HETATM    6  C   UNL     1      -8.137   6.406  67.219  1.00  0.00    -0.113 A  
HETATM    7  N   UNL     1      -8.635   5.926  68.419  1.00  0.00    -0.114 NA 
HETATM    8  N   UNL     1      -9.825   6.335  68.924  1.00  0.00    -0.132 NA 
HETATM    9  C   UNL     1     -10.309   7.597  68.656  1.00  0.00    -0.200 A  
HETATM   10  C   UNL     1      -9.788   8.278  67.435  1.00  0.00    -0.246 A  
HETATM   11  C   UNL     1      -8.789   7.653  66.660  1.00  0.00    -0.159 A  
HETATM   12  C   UNL     1      -8.467   8.227  65.421  1.00  0.00    -0.189 A  
HETATM   13  C   UNL     1     -10.353   9.499  67.033  1.00  0.00    -0.319 A  
HETATM   14  C   UNL     1      -9.045   9.437  65.016  1.00  0.00    -0.271 A  
HETATM   15  C   UNL     1      -9.965  10.084  65.831  1.00  0.00    -0.339 A  
BRANCH   9  16
HETATM   16  N   UNL     1     -11.213   8.199  69.389  1.00  0.00    -0.426 NA 
HETATM   17  H1  UNL     1     -12.574   7.869  70.842  1.00  0.00     0.000 HD 
HETATM   18  N   UNL     1     -11.871   7.401  70.271  1.00  0.00    -0.517 NA 
HETATM   19  H   UNL     1     -11.408   9.196  69.305  1.00  0.00     0.000 HD 
HETATM   20  H2  UNL     1     -11.675   6.404  70.356  1.00  0.00     0.000 HD 
ENDBRANCH   9  16
ENDBRANCH   3   6
TORSDOF 2
ENDMDL
MODEL      193
REMARK 921   NORMALIZED FREE ENERGY PREDICTED BY IDOCK:   -2.82 KCAL/MOL
REMARK 922        TOTAL FREE ENERGY PREDICTED BY IDOCK:   -3.29 KCAL/MOL
REMARK 923 INTER-LIGAND FREE ENERGY PREDICTED BY IDOCK:   -3.79 KCAL/MOL
REMARK 924 INTRA-LIGAND FREE ENERGY PREDICTED BY IDOCK:    0.50 KCAL/MOL
REMARK 927      BINDING AFFINITY PREDICTED BY RF-SCORE:    0.00 PKD
ROOT
HETATM    1  N   UNL     1     -10.463  11.876  64.017  1.00  0.00    -0.335 NA 
HETATM    2  H2  UNL     1     -11.465  12.001  64.161  1.00  0.00     0.000 HD 
HETATM    3  N   UNL     1      -9.603  12.309  64.950  1.00  0.00    -0.461 NA 
HETATM    4  H1  UNL     1     -10.131  11.424  63.166  1.00  0.00     0.000 HD 
HETATM    5  H   UNL     1      -8.601  12.184  64.806  1.00  0.00     0.000 HD 
ENDROOT
BRANCH   3   6
HETATM    6  C   UNL     1     -10.031  12.893  66.049  1.00  0.00    -0.272 A  
HETATM    7  N   UNL     1     -11.382  12.703  66.287  1.00  0.00    -0.311 NA 
HETATM    8  N   UNL     1     -12.065  13.435  67.202  1.00  0.00    -0.352 NA 
HETATM    9  C   UNL     1     -11.432  13.942  68.315  1.00  0.00    -0.311 A  
HETATM   10  C   UNL     1      -9.952  14.115  68.235  1.00  0.00    -0.241 A  
HETATM   11  C   UNL     1      -9.263  13.695  67.077  1.00  0.00    -0.254 A  
HETATM   12  C   UNL     1      -7.912  14.051  66.956  1.00  0.00     0.028 A  
HETATM   13  C   UNL     1      -9.276  14.761  69.281  1.00  0.00    -0.035 A  
HETATM   14  C   UNL     1      -7.245  14.711  67.995  1.00  0.00    -0.147 A  
HETATM   15  C   UNL     1      -7.918  15.042  69.165  1.00  0.00    -0.195 A  
BRANCH   9  16
HETATM   16  N   UNL     1     -12.061  14.303  69.407  1.00  0.00    -0.387 NA 
HETATM   17  H1  UNL     1     -12.095  14.014  71.404  1.00  0.00     0.000 HD 
HETATM   18  N   UNL     1     -11.606  13.733  70.554  1.00  0.00    -0.516 NA 
HETATM   19  H   UNL     1     -12.837  14.964  69.396  1.00  0.00     0.000 HD 
HETATM   20  H2  UNL     1     -10.830  13.072  70.564  1.00  0.00     0.000 HD 
ENDBRANCH   9  16
ENDBRANCH   3   6
TORSDOF 2
ENDMDL
MODEL      194
REMARK 921   NORMALIZED FREE ENERGY PREDICTED BY IDOCK:   -2.82 KCAL/MOL
REMARK 922        TOTAL FREE ENERGY PREDICTED BY IDOCK:   -3.29 KCAL/MOL
REMARK 923 INTER-LIGAND FREE ENERGY PREDICTED BY IDOCK:   -3.35 KCAL/MOL
REMARK 924 INTRA-LIGAND FREE ENERGY PREDICTED BY IDOCK:    0.06 KCAL/MOL
REMARK 927      BINDING AFFINITY PREDICTED BY RF-SCORE:    0.00 PKD
ROOT
HETATM    1  N   UNL     1     -11.511  11.391  69.708  1.00  0.00    -0.353 NA 
HETATM    2  H2  UNL     1     -11.471  12.224  70.295  1.00  0.00     0.000 HD 
HETATM    3  N   UNL     1     -10.700  11.293  68.644  1.00  0.00    -0.194 NA 
HETATM    4  H1  UNL     1     -12.167  10.645  69.939  1.00  0.00     0.000 HD 
HETATM    5  H   UNL     1     -10.741  10.460  68.057  1.00  0.00     0.000 HD 
ENDROOT
BRANCH   3   6
HETATM    6  C   UNL     1      -9.854  12.255  68.346  1.00  0.00    -0.199 A  
HETATM    7  N   UNL     1      -8.560  11.809  68.134  1.00  0.00    -0.154 NA 
HETATM    8  N   UNL     1      -7.502  12.656  68.086  1.00  0.00    -0.111 NA 
HETATM    9  C   UNL     1      -7.656  13.955  67.652  1.00  0.00    -0.178 A  
HETATM   10  C   UNL     1      -9.026  14.540  67.736  1.00  0.00    -0.190 A  
HETATM   11  C   UNL     1     -10.101  13.739  68.176  1.00  0.00    -0.245 A  
HETATM   12  C   UNL     1     -11.327  14.371  68.430  1.00  0.00    -0.312 A  
HETATM   13  C   UNL     1      -9.213  15.901  67.447  1.00  0.00    -0.207 A  
HETATM   14  C   UNL     1     -11.505  15.733  68.156  1.00  0.00    -0.302 A  
HETATM   15  C   UNL     1     -10.459  16.490  67.642  1.00  0.00    -0.305 A  
BRANCH   9  16
HETATM   16  N   UNL     1      -6.670  14.695  67.210  1.00  0.00    -0.357 NA 
HETATM   17  H1  UNL     1      -4.741  15.170  67.567  1.00  0.00     0.000 HD 
HETATM   18  N   UNL     1      -5.509  14.594  67.911  1.00  0.00    -0.241 NA 
HETATM   19  H   UNL     1      -6.766  15.304  66.398  1.00  0.00     0.000 HD 
HETATM   20  H2  UNL     1      -5.413  13.985  68.723  1.00  0.00     0.000 HD 
ENDBRANCH   9  16
ENDBRANCH   3   6
TORSDOF 2
ENDMDL
MODEL      195
REMARK 921   NORMALIZED FREE ENERGY PREDICTED BY IDOCK:   -2.79 KCAL/MOL
REMARK 922        TOTAL FREE ENERGY PREDICTED BY IDOCK:   -3.25 KCAL/MOL
REMARK 923 INTER-LIGAND FREE ENERGY PREDICTED BY IDOCK:   -3.11 KCAL/MOL
REMARK 924 INTRA-LIGAND FREE ENERGY PREDICTED BY IDOCK:   -0.14 KCAL/MOL
REMARK 927      BINDING AFFINITY PREDICTED BY RF-SCORE:    0.00 PKD
ROOT
HETATM    1  N   UNL     1     -11.715   9.565  69.516  1.00  0.00    -0.383 NA 
HETATM    2  H2  UNL     1     -10.828   9.553  70.019  1.00  0.00     0.000 HD 
HETATM    3  N   UNL     1     -11.790  10.176  68.325  1.00  0.00    -0.570 NA 
HETATM    4  H1  UNL     1     -12.531   9.112  69.928  1.00  0.00     0.000 HD 
HETATM    5  H   UNL     1     -12.678  10.189  67.822  1.00  0.00     0.000 HD 
ENDROOT
BRANCH   3   6
HETATM    6  C   UNL     1     -10.738  10.760  67.795  1.00  0.00    -0.251 A  
HETATM    7  N   UNL     1     -10.593  12.086  68.166  1.00  0.00    -0.202 NA 
HETATM    8  N   UNL     1      -9.744  12.929  67.526  1.00  0.00    -0.201 NA 
HETATM    9  C   UNL     1      -8.599  12.454  66.926  1.00  0.00    -0.171 A  
HETATM   10  C   UNL     1      -8.577  11.010  66.552  1.00  0.00    -0.165 A  
HETATM   11  C   UNL     1      -9.673  10.186  66.884  1.00  0.00    -0.233 A  
HETATM   12  C   UNL     1      -9.705   8.892  66.347  1.00  0.00    -0.332 A  
HETATM   13  C   UNL     1      -7.498  10.508  65.807  1.00  0.00    -0.139 A  
HETATM   14  C   UNL     1      -8.634   8.399  65.591  1.00  0.00    -0.197 A  
HETATM   15  C   UNL     1      -7.522   9.196  65.343  1.00  0.00    -0.093 A  
BRANCH   9  16
HETATM   16  N   UNL     1      -7.563  13.205  66.643  1.00  0.00    -0.024 NA 
HETATM   17  H1  UNL     1      -5.990  14.145  67.489  1.00  0.00     0.000 HD 
HETATM   18  N   UNL     1      -6.797  13.561  67.708  1.00  0.00    -0.149 NA 
HETATM   19  H   UNL     1      -7.346  13.502  65.692  1.00  0.00     0.000 HD 
HETATM   20  H2  UNL     1      -7.013  13.264  68.660  1.00  0.00     0.000 HD 
ENDBRANCH   9  16
ENDBRANCH   3   6
TORSDOF 2
ENDMDL
MODEL      196
REMARK 921   NORMALIZED FREE ENERGY PREDICTED BY IDOCK:   -2.77 KCAL/MOL
REMARK 922        TOTAL FREE ENERGY PREDICTED BY IDOCK:   -3.23 KCAL/MOL
REMARK 923 INTER-LIGAND FREE ENERGY PREDICTED BY IDOCK:   -3.11 KCAL/MOL
REMARK 924 INTRA-LIGAND FREE ENERGY PREDICTED BY IDOCK:   -0.12 KCAL/MOL
REMARK 927      BINDING AFFINITY PREDICTED BY RF-SCORE:    0.00 PKD
ROOT
HETATM    1  N   UNL     1     -11.797  11.641  66.014  1.00  0.00    -0.304 NA 
HETATM    2  H2  UNL     1     -12.094  12.442  65.456  1.00  0.00     0.000 HD 
HETATM    3  N   UNL     1     -10.749  11.765  66.841  1.00  0.00    -0.238 NA 
HETATM    4  H1  UNL     1     -12.302  10.759  65.933  1.00  0.00     0.000 HD 
HETATM    5  H   UNL     1     -10.452  10.964  67.399  1.00  0.00     0.000 HD 
ENDROOT
BRANCH   3   6
HETATM    6  C   UNL     1     -10.099  12.904  66.945  1.00  0.00    -0.241 A  
HETATM    7  N   UNL     1     -10.726  13.962  66.309  1.00  0.00    -0.284 NA 
HETATM    8  N   UNL     1     -10.097  15.138  66.069  1.00  0.00    -0.281 NA 
HETATM    9  C   UNL     1      -9.094  15.585  66.901  1.00  0.00    -0.241 A  
HETATM   10  C   UNL     1      -8.386  14.559  67.722  1.00  0.00    -0.173 A  
HETATM   11  C   UNL     1      -8.808  13.214  67.673  1.00  0.00    -0.191 A  
HETATM   12  C   UNL     1      -8.002  12.252  68.299  1.00  0.00    -0.163 A  
HETATM   13  C   UNL     1      -7.263  14.935  68.476  1.00  0.00    -0.113 A  
HETATM   14  C   UNL     1      -6.872  12.629  69.036  1.00  0.00    -0.083 A  
HETATM   15  C   UNL     1      -6.518  13.969  69.146  1.00  0.00    -0.113 A  
BRANCH   9  16
HETATM   16  N   UNL     1      -8.718  16.838  66.979  1.00  0.00    -0.196 NA 
HETATM   17  H1  UNL     1      -9.128  18.679  66.260  1.00  0.00     0.000 HD 
HETATM   18  N   UNL     1      -9.420  17.703  66.200  1.00  0.00    -0.488 NA 
HETATM   19  H   UNL     1      -7.953  17.142  67.580  1.00  0.00     0.000 HD 
HETATM   20  H2  UNL     1     -10.185  17.399  65.599  1.00  0.00     0.000 HD 
ENDBRANCH   9  16
ENDBRANCH   3   6
TORSDOF 2
ENDMDL
MODEL      197
REMARK 921   NORMALIZED FREE ENERGY PREDICTED BY IDOCK:   -2.76 KCAL/MOL
REMARK 922        TOTAL FREE ENERGY PREDICTED BY IDOCK:   -3.22 KCAL/MOL
REMARK 923 INTER-LIGAND FREE ENERGY PREDICTED BY IDOCK:   -3.09 KCAL/MOL
REMARK 924 INTRA-LIGAND FREE ENERGY PREDICTED BY IDOCK:   -0.12 KCAL/MOL
REMARK 927      BINDING AFFINITY PREDICTED BY RF-SCORE:    0.00 PKD
ROOT
HETATM    1  N   UNL     1      -8.840  10.751  66.535  1.00  0.00    -0.150 NA 
HETATM    2  H2  UNL     1      -9.296   9.894  66.221  1.00  0.00     0.000 HD 
HETATM    3  N   UNL     1      -8.770  11.019  67.846  1.00  0.00    -0.130 NA 
HETATM    4  H1  UNL     1      -8.444  11.390  65.845  1.00  0.00     0.000 HD 
HETATM    5  H   UNL     1      -8.314  11.876  68.160  1.00  0.00     0.000 HD 
ENDROOT
BRANCH   3   6
HETATM    6  C   UNL     1      -9.280  10.194  68.735  1.00  0.00    -0.164 A  
HETATM    7  N   UNL     1      -8.673   8.950  68.750  1.00  0.00    -0.136 NA 
HETATM    8  N   UNL     1      -9.219   7.886  69.390  1.00  0.00    -0.146 NA 
HETATM    9  C   UNL     1     -10.015   8.063  70.500  1.00  0.00    -0.190 A  
HETATM   10  C   UNL     1     -10.666   9.395  70.664  1.00  0.00    -0.353 A  
HETATM   11  C   UNL     1     -10.390  10.425  69.739  1.00  0.00    -0.252 A  
HETATM   12  C   UNL     1     -11.165  11.591  69.809  1.00  0.00    -0.237 A  
HETATM   13  C   UNL     1     -11.600   9.584  71.694  1.00  0.00    -0.451 A  
HETATM   14  C   UNL     1     -12.109  11.769  70.828  1.00  0.00    -0.352 A  
HETATM   15  C   UNL     1     -12.308  10.779  71.783  1.00  0.00    -0.163 A  
BRANCH   9  16
HETATM   16  N   UNL     1     -10.249   7.123  71.383  1.00  0.00    -0.193 NA 
HETATM   17  H1  UNL     1     -10.076   5.136  71.688  1.00  0.00     0.000 HD 
HETATM   18  N   UNL     1      -9.894   5.867  71.002  1.00  0.00    -0.178 NA 
HETATM   19  H   UNL     1     -10.669   7.319  72.291  1.00  0.00     0.000 HD 
HETATM   20  H2  UNL     1      -9.474   5.671  70.093  1.00  0.00     0.000 HD 
ENDBRANCH   9  16
ENDBRANCH   3   6
TORSDOF 2
ENDMDL
MODEL      198
REMARK 921   NORMALIZED FREE ENERGY PREDICTED BY IDOCK:   -2.75 KCAL/MOL
REMARK 922        TOTAL FREE ENERGY PREDICTED BY IDOCK:   -3.21 KCAL/MOL
REMARK 923 INTER-LIGAND FREE ENERGY PREDICTED BY IDOCK:   -3.09 KCAL/MOL
REMARK 924 INTRA-LIGAND FREE ENERGY PREDICTED BY IDOCK:   -0.12 KCAL/MOL
REMARK 927      BINDING AFFINITY PREDICTED BY RF-SCORE:    0.00 PKD
ROOT
HETATM    1  N   UNL     1     -11.382   6.379  66.898  1.00  0.00    -0.774 NA 
HETATM    2  H2  UNL     1     -11.040   5.480  67.238  1.00  0.00     0.000 HD 
HETATM    3  N   UNL     1     -11.062   7.500  67.560  1.00  0.00    -0.532 NA 
HETATM    4  H1  UNL     1     -11.962   6.411  66.059  1.00  0.00     0.000 HD 
HETATM    5  H   UNL     1     -11.403   8.399  67.220  1.00  0.00     0.000 HD 
ENDROOT
BRANCH   3   6
HETATM    6  C   UNL     1     -10.314   7.459  68.641  1.00  0.00    -0.198 A  
HETATM    7  N   UNL     1     -11.020   7.677  69.812  1.00  0.00    -0.214 NA 
HETATM    8  N   UNL     1     -10.403   7.942  70.990  1.00  0.00    -0.201 NA 
HETATM    9  C   UNL     1      -9.144   7.448  71.255  1.00  0.00    -0.142 A  
HETATM   10  C   UNL     1      -8.299   7.080  70.082  1.00  0.00    -0.138 A  
HETATM   11  C   UNL     1      -8.832   7.180  68.779  1.00  0.00    -0.130 A  
HETATM   12  C   UNL     1      -7.954   7.018  67.699  1.00  0.00    -0.114 A  
HETATM   13  C   UNL     1      -6.960   6.711  70.286  1.00  0.00    -0.066 A  
HETATM   14  C   UNL     1      -6.614   6.666  67.906  1.00  0.00    -0.058 A  
HETATM   15  C   UNL     1      -6.125   6.487  69.195  1.00  0.00    -0.026 A  
BRANCH   9  16
HETATM   16  N   UNL     1      -8.654   7.320  72.463  1.00  0.00    -0.110 NA 
HETATM   17  H1  UNL     1      -8.132   8.380  74.099  1.00  0.00     0.000 HD 
HETATM   18  N   UNL     1      -8.514   8.479  73.159  1.00  0.00    -0.389 NA 
HETATM   19  H   UNL     1      -8.395   6.415  72.854  1.00  0.00     0.000 HD 
HETATM   20  H2  UNL     1      -8.773   9.385  72.768  1.00  0.00     0.000 HD 
ENDBRANCH   9  16
ENDBRANCH   3   6
TORSDOF 2
ENDMDL
MODEL      199
REMARK 921   NORMALIZED FREE ENERGY PREDICTED BY IDOCK:   -2.75 KCAL/MOL
REMARK 922        TOTAL FREE ENERGY PREDICTED BY IDOCK:   -3.20 KCAL/MOL
REMARK 923 INTER-LIGAND FREE ENERGY PREDICTED BY IDOCK:   -3.07 KCAL/MOL
REMARK 924 INTRA-LIGAND FREE ENERGY PREDICTED BY IDOCK:   -0.13 KCAL/MOL
REMARK 927      BINDING AFFINITY PREDICTED BY RF-SCORE:    0.00 PKD
ROOT
HETATM    1  N   UNL     1     -11.885   7.762  70.241  1.00  0.00    -0.479 NA 
HETATM    2  H2  UNL     1     -11.065   8.359  70.124  1.00  0.00     0.000 HD 
HETATM    3  N   UNL     1     -11.986   6.633  69.525  1.00  0.00    -0.542 NA 
HETATM    4  H1  UNL     1     -12.613   8.034  70.901  1.00  0.00     0.000 HD 
HETATM    5  H   UNL     1     -12.806   6.037  69.642  1.00  0.00     0.000 HD 
ENDROOT
BRANCH   3   6
HETATM    6  C   UNL     1     -11.046   6.282  68.675  1.00  0.00    -0.325 A  
HETATM    7  N   UNL     1     -11.091   6.980  67.479  1.00  0.00    -0.213 NA 
HETATM    8  N   UNL     1     -10.394   6.586  66.385  1.00  0.00    -0.030 NA 
HETATM    9  C   UNL     1      -9.207   5.900  66.514  1.00  0.00    -0.145 A  
HETATM   10  C   UNL     1      -8.979   5.172  67.796  1.00  0.00    -0.114 A  
HETATM   11  C   UNL     1      -9.932   5.270  68.833  1.00  0.00    -0.250 A  
HETATM   12  C   UNL     1      -9.784   4.422  69.939  1.00  0.00    -0.291 A  
HETATM   13  C   UNL     1      -7.857   4.339  67.926  1.00  0.00    -0.079 A  
HETATM   14  C   UNL     1      -8.671   3.579  70.057  1.00  0.00    -0.129 A  
HETATM   15  C   UNL     1      -7.697   3.557  69.066  1.00  0.00    -0.052 A  
BRANCH   9  16
HETATM   16  N   UNL     1      -8.301   5.831  65.569  1.00  0.00    -0.135 NA 
HETATM   17  H1  UNL     1      -8.017   5.221  63.667  1.00  0.00     0.000 HD 
HETATM   18  N   UNL     1      -8.721   5.275  64.402  1.00  0.00    -0.288 NA 
HETATM   19  H   UNL     1      -7.349   6.171  65.700  1.00  0.00     0.000 HD 
HETATM   20  H2  UNL     1      -9.674   4.935  64.271  1.00  0.00     0.000 HD 
ENDBRANCH   9  16
ENDBRANCH   3   6
TORSDOF 2
ENDMDL
MODEL      200
REMARK 921   NORMALIZED FREE ENERGY PREDICTED BY IDOCK:   -2.70 KCAL/MOL
REMARK 922        TOTAL FREE ENERGY PREDICTED BY IDOCK:   -3.15 KCAL/MOL
REMARK 923 INTER-LIGAND FREE ENERGY PREDICTED BY IDOCK:   -3.05 KCAL/MOL
REMARK 924 INTRA-LIGAND FREE ENERGY PREDICTED BY IDOCK:   -0.10 KCAL/MOL
REMARK 927      BINDING AFFINITY PREDICTED BY RF-SCORE:    0.00 PKD
ROOT
HETATM    1  N   UNL     1     -10.692  13.274  69.147  1.00  0.00    -0.436 NA 
HETATM    2  H2  UNL     1     -10.309  13.490  70.067  1.00  0.00     0.000 HD 
HETATM    3  N   UNL     1     -10.350  14.033  68.095  1.00  0.00    -0.236 NA 
HETATM    4  H1  UNL     1     -11.330  12.485  69.040  1.00  0.00     0.000 HD 
HETATM    5  H   UNL     1     -10.733  13.817  67.175  1.00  0.00     0.000 HD 
ENDROOT
BRANCH   3   6
HETATM    6  C   UNL     1      -9.527  15.050  68.232  1.00  0.00    -0.196 A  
HETATM    7  N   UNL     1     -10.140  16.283  68.082  1.00  0.00    -0.238 NA 
HETATM    8  N   UNL     1      -9.431  17.428  67.918  1.00  0.00    -0.260 NA 
HETATM    9  C   UNL     1      -8.172  17.562  68.460  1.00  0.00    -0.278 A  
HETATM   10  C   UNL     1      -7.425  16.307  68.761  1.00  0.00    -0.195 A  
HETATM   11  C   UNL     1      -8.048  15.057  68.555  1.00  0.00    -0.148 A  
HETATM   12  C   UNL     1      -7.255  13.906  68.659  1.00  0.00    -0.108 A  
HETATM   13  C   UNL     1      -6.086  16.384  69.176  1.00  0.00    -0.161 A  
HETATM   14  C   UNL     1      -5.914  13.988  69.057  1.00  0.00    -0.091 A  
HETATM   15  C   UNL     1      -5.339  15.221  69.340  1.00  0.00    -0.093 A  
BRANCH   9  16
HETATM   16  N   UNL     1      -7.599  18.719  68.686  1.00  0.00    -0.318 NA 
HETATM   17  H1  UNL     1      -7.897  20.709  68.537  1.00  0.00     0.000 HD 
HETATM   18  N   UNL     1      -8.343  19.809  68.361  1.00  0.00    -0.295 NA 
HETATM   19  H   UNL     1      -6.661  18.796  69.079  1.00  0.00     0.000 HD 
HETATM   20  H2  UNL     1      -9.281  19.732  67.968  1.00  0.00     0.000 HD 
ENDBRANCH   9  16
ENDBRANCH   3   6
TORSDOF 2
ENDMDL
MODEL      201
REMARK 921   NORMALIZED FREE ENERGY PREDICTED BY IDOCK:   -2.69 KCAL/MOL
REMARK 922        TOTAL FREE ENERGY PREDICTED BY IDOCK:   -3.14 KCAL/MOL
REMARK 923 INTER-LIGAND FREE ENERGY PREDICTED BY IDOCK:   -3.18 KCAL/MOL
REMARK 924 INTRA-LIGAND FREE ENERGY PREDICTED BY IDOCK:    0.04 KCAL/MOL
REMARK 927      BINDING AFFINITY PREDICTED BY RF-SCORE:    0.00 PKD
ROOT
HETATM    1  N   UNL     1     -10.568  11.272  67.910  1.00  0.00    -0.185 NA 
HETATM    2  H2  UNL     1      -9.886  11.517  68.627  1.00  0.00     0.000 HD 
HETATM    3  N   UNL     1     -11.038  10.018  67.845  1.00  0.00    -0.464 NA 
HETATM    4  H1  UNL     1     -10.883  11.986  67.252  1.00  0.00     0.000 HD 
HETATM    5  H   UNL     1     -11.720   9.774  67.127  1.00  0.00     0.000 HD 
ENDROOT
BRANCH   3   6
HETATM    6  C   UNL     1     -10.633   9.098  68.693  1.00  0.00    -0.174 A  
HETATM    7  N   UNL     1     -10.444   9.574  69.980  1.00  0.00    -0.228 NA 
HETATM    8  N   UNL     1      -9.780   8.863  70.924  1.00  0.00    -0.217 NA 
HETATM    9  C   UNL     1      -9.778   7.486  70.900  1.00  0.00    -0.173 A  
HETATM   10  C   UNL     1     -10.059   6.830  69.590  1.00  0.00    -0.197 A  
HETATM   11  C   UNL     1     -10.381   7.622  68.468  1.00  0.00    -0.225 A  
HETATM   12  C   UNL     1     -10.444   6.991  67.217  1.00  0.00    -0.363 A  
HETATM   13  C   UNL     1      -9.926   5.437  69.474  1.00  0.00    -0.289 A  
HETATM   14  C   UNL     1     -10.294   5.603  67.103  1.00  0.00    -0.301 A  
HETATM   15  C   UNL     1     -10.062   4.825  68.231  1.00  0.00    -0.109 A  
BRANCH   9  16
HETATM   16  N   UNL     1      -9.513   6.741  71.945  1.00  0.00    -0.147 NA 
HETATM   17  H1  UNL     1      -7.999   5.827  72.917  1.00  0.00     0.000 HD 
HETATM   18  N   UNL     1      -8.205   6.406  72.103  1.00  0.00    -0.108 NA 
HETATM   19  H   UNL     1     -10.237   6.435  72.595  1.00  0.00     0.000 HD 
HETATM   20  H2  UNL     1      -7.481   6.713  71.454  1.00  0.00     0.000 HD 
ENDBRANCH   9  16
ENDBRANCH   3   6
TORSDOF 2
ENDMDL
MODEL      202
REMARK 921   NORMALIZED FREE ENERGY PREDICTED BY IDOCK:   -2.66 KCAL/MOL
REMARK 922        TOTAL FREE ENERGY PREDICTED BY IDOCK:   -3.11 KCAL/MOL
REMARK 923 INTER-LIGAND FREE ENERGY PREDICTED BY IDOCK:   -3.02 KCAL/MOL
REMARK 924 INTRA-LIGAND FREE ENERGY PREDICTED BY IDOCK:   -0.09 KCAL/MOL
REMARK 927      BINDING AFFINITY PREDICTED BY RF-SCORE:    0.00 PKD
ROOT
HETATM    1  N   UNL     1     -11.358   4.454  64.912  1.00  0.00    -1.085 NA 
HETATM    2  H2  UNL     1     -10.578   4.046  64.398  1.00  0.00     0.000 HD 
HETATM    3  N   UNL     1     -11.118   5.156  66.029  1.00  0.00    -0.772 NA 
HETATM    4  H1  UNL     1     -12.310   4.320  64.569  1.00  0.00     0.000 HD 
HETATM    5  H   UNL     1     -11.899   5.563  66.544  1.00  0.00     0.000 HD 
ENDROOT
BRANCH   3   6
HETATM    6  C   UNL     1      -9.891   5.327  66.471  1.00  0.00    -0.185 A  
HETATM    7  N   UNL     1      -9.444   6.634  66.374  1.00  0.00    -0.154 NA 
HETATM    8  N   UNL     1      -8.137   6.965  66.519  1.00  0.00    -0.108 NA 
HETATM    9  C   UNL     1      -7.304   6.214  67.318  1.00  0.00    -0.077 A  
HETATM   10  C   UNL     1      -7.709   4.804  67.586  1.00  0.00    -0.086 A  
HETATM   11  C   UNL     1      -8.938   4.324  67.085  1.00  0.00    -0.133 A  
HETATM   12  C   UNL     1      -9.194   2.949  67.186  1.00  0.00    -0.189 A  
HETATM   13  C   UNL     1      -6.828   3.951  68.270  1.00  0.00    -0.047 A  
HETATM   14  C   UNL     1      -8.304   2.098  67.855  1.00  0.00    -0.081 A  
HETATM   15  C   UNL     1      -7.138   2.602  68.418  1.00  0.00    -0.048 A  
BRANCH   9  16
HETATM   16  N   UNL     1      -6.177   6.662  67.815  1.00  0.00    -0.034 NA 
HETATM   17  H1  UNL     1      -4.406   7.474  67.289  1.00  0.00     0.000 HD 
HETATM   18  N   UNL     1      -5.283   7.125  66.902  1.00  0.00    -0.021 NA 
HETATM   19  H   UNL     1      -5.985   6.663  68.817  1.00  0.00     0.000 HD 
HETATM   20  H2  UNL     1      -5.475   7.125  65.901  1.00  0.00     0.000 HD 
ENDBRANCH   9  16
ENDBRANCH   3   6
TORSDOF 2
ENDMDL
MODEL      203
REMARK 921   NORMALIZED FREE ENERGY PREDICTED BY IDOCK:   -2.66 KCAL/MOL
REMARK 922        TOTAL FREE ENERGY PREDICTED BY IDOCK:   -3.10 KCAL/MOL
REMARK 923 INTER-LIGAND FREE ENERGY PREDICTED BY IDOCK:   -3.00 KCAL/MOL
REMARK 924 INTRA-LIGAND FREE ENERGY PREDICTED BY IDOCK:   -0.10 KCAL/MOL
REMARK 927      BINDING AFFINITY PREDICTED BY RF-SCORE:    0.00 PKD
ROOT
HETATM    1  N   UNL     1     -11.630  10.987  68.533  1.00  0.00    -0.370 NA 
HETATM    2  H2  UNL     1     -11.263  11.926  68.382  1.00  0.00     0.000 HD 
HETATM    3  N   UNL     1     -11.095   9.954  67.867  1.00  0.00    -0.492 NA 
HETATM    4  H1  UNL     1     -12.399  10.848  69.190  1.00  0.00     0.000 HD 
HETATM    5  H   UNL     1     -11.463   9.014  68.018  1.00  0.00     0.000 HD 
ENDROOT
BRANCH   3   6
HETATM    6  C   UNL     1     -10.104  10.133  67.021  1.00  0.00    -0.223 A  
HETATM    7  N   UNL     1     -10.452   9.901  65.701  1.00  0.00    -0.045 NA 
HETATM    8  N   UNL     1      -9.524   9.767  64.721  1.00  0.00    -0.279 NA 
HETATM    9  C   UNL     1      -8.308  10.408  64.808  1.00  0.00    -0.157 A  
HETATM   10  C   UNL     1      -7.845  10.804  66.170  1.00  0.00    -0.155 A  
HETATM   11  C   UNL     1      -8.681  10.578  67.284  1.00  0.00    -0.126 A  
HETATM   12  C   UNL     1      -8.137  10.778  68.561  1.00  0.00    -0.133 A  
HETATM   13  C   UNL     1      -6.552  11.326  66.333  1.00  0.00    -0.069 A  
HETATM   14  C   UNL     1      -6.840  11.284  68.720  1.00  0.00    -0.082 A  
HETATM   15  C   UNL     1      -6.060  11.582  67.609  1.00  0.00    -0.062 A  
BRANCH   9  16
HETATM   16  N   UNL     1      -7.541  10.652  63.774  1.00  0.00    -0.352 NA 
HETATM   17  H1  UNL     1      -7.583  11.332  61.874  1.00  0.00     0.000 HD 
HETATM   18  N   UNL     1      -8.180  11.141  62.679  1.00  0.00    -0.457 NA 
HETATM   19  H   UNL     1      -6.535  10.486  63.790  1.00  0.00     0.000 HD 
HETATM   20  H2  UNL     1      -9.186  11.307  62.663  1.00  0.00     0.000 HD 
ENDBRANCH   9  16
ENDBRANCH   3   6
TORSDOF 2
ENDMDL
MODEL      204
REMARK 921   NORMALIZED FREE ENERGY PREDICTED BY IDOCK:   -2.60 KCAL/MOL
REMARK 922        TOTAL FREE ENERGY PREDICTED BY IDOCK:   -3.04 KCAL/MOL
REMARK 923 INTER-LIGAND FREE ENERGY PREDICTED BY IDOCK:   -3.22 KCAL/MOL
REMARK 924 INTRA-LIGAND FREE ENERGY PREDICTED BY IDOCK:    0.18 KCAL/MOL
REMARK 927      BINDING AFFINITY PREDICTED BY RF-SCORE:    0.00 PKD
ROOT
HETATM    1  N   UNL     1      -7.567  12.532  68.942  1.00  0.00    -0.304 NA 
HETATM    2  H2  UNL     1      -7.838  13.236  68.256  1.00  0.00     0.000 HD 
HETATM    3  N   UNL     1      -7.691  11.232  68.639  1.00  0.00    -0.129 NA 
HETATM    4  H1  UNL     1      -7.204  12.828  69.849  1.00  0.00     0.000 HD 
HETATM    5  H   UNL     1      -7.419  10.528  69.325  1.00  0.00     0.000 HD 
ENDROOT
BRANCH   3   6
HETATM    6  C   UNL     1      -8.158  10.851  67.470  1.00  0.00    -0.116 A  
HETATM    7  N   UNL     1      -7.511   9.743  66.948  1.00  0.00    -0.091 NA 
HETATM    8  N   UNL     1      -7.654   9.363  65.654  1.00  0.00    -0.094 NA 
HETATM    9  C   UNL     1      -8.818   9.627  64.966  1.00  0.00    -0.186 A  
HETATM   10  C   UNL     1      -9.668  10.743  65.474  1.00  0.00    -0.290 A  
HETATM   11  C   UNL     1      -9.297  11.423  66.653  1.00  0.00    -0.198 A  
HETATM   12  C   UNL     1     -10.005  12.585  66.988  1.00  0.00    -0.217 A  
HETATM   13  C   UNL     1     -10.787  11.150  64.729  1.00  0.00    -0.277 A  
HETATM   14  C   UNL     1     -11.111  12.998  66.234  1.00  0.00    -0.314 A  
HETATM   15  C   UNL     1     -11.516  12.268  65.123  1.00  0.00    -0.390 A  
BRANCH   9  16
HETATM   16  N   UNL     1      -9.188   8.978  63.890  1.00  0.00    -0.297 NA 
HETATM   17  H1  UNL     1      -8.486   7.789  62.417  1.00  0.00     0.000 HD 
HETATM   18  N   UNL     1      -8.199   8.294  63.255  1.00  0.00    -0.313 NA 
HETATM   19  H   UNL     1     -10.149   8.986  63.551  1.00  0.00     0.000 HD 
HETATM   20  H2  UNL     1      -7.237   8.287  63.594  1.00  0.00     0.000 HD 
ENDBRANCH   9  16
ENDBRANCH   3   6
TORSDOF 2
ENDMDL
MODEL      205
REMARK 921   NORMALIZED FREE ENERGY PREDICTED BY IDOCK:   -2.56 KCAL/MOL
REMARK 922        TOTAL FREE ENERGY PREDICTED BY IDOCK:   -3.00 KCAL/MOL
REMARK 923 INTER-LIGAND FREE ENERGY PREDICTED BY IDOCK:   -2.87 KCAL/MOL
REMARK 924 INTRA-LIGAND FREE ENERGY PREDICTED BY IDOCK:   -0.13 KCAL/MOL
REMARK 927      BINDING AFFINITY PREDICTED BY RF-SCORE:    0.00 PKD
ROOT
HETATM    1  N   UNL     1      -9.532   2.481  65.772  1.00  0.00    -0.364 NA 
HETATM    2  H2  UNL     1      -8.995   2.599  66.632  1.00  0.00     0.000 HD 
HETATM    3  N   UNL     1     -10.037   3.559  65.156  1.00  0.00    -0.394 NA 
HETATM    4  H1  UNL     1      -9.675   1.544  65.395  1.00  0.00     0.000 HD 
HETATM    5  H   UNL     1     -10.574   3.441  64.297  1.00  0.00     0.000 HD 
ENDROOT
BRANCH   3   6
HETATM    6  C   UNL     1      -9.851   4.767  65.643  1.00  0.00    -0.176 A  
HETATM    7  N   UNL     1     -10.889   5.207  66.448  1.00  0.00    -0.221 NA 
HETATM    8  N   UNL     1     -11.017   6.505  66.819  1.00  0.00    -0.327 NA 
HETATM    9  C   UNL     1      -9.910   7.313  66.951  1.00  0.00    -0.214 A  
HETATM   10  C   UNL     1      -8.681   6.909  66.208  1.00  0.00    -0.149 A  
HETATM   11  C   UNL     1      -8.675   5.704  65.474  1.00  0.00    -0.151 A  
HETATM   12  C   UNL     1      -7.580   5.456  64.634  1.00  0.00    -0.081 A  
HETATM   13  C   UNL     1      -7.573   7.771  66.189  1.00  0.00    -0.087 A  
HETATM   14  C   UNL     1      -6.483   6.327  64.604  1.00  0.00    -0.034 A  
HETATM   15  C   UNL     1      -6.468   7.467  65.399  1.00  0.00    -0.044 A  
BRANCH   9  16
HETATM   16  N   UNL     1      -9.897   8.417  67.659  1.00  0.00    -0.163 NA 
HETATM   17  H1  UNL     1     -11.109   9.805  68.480  1.00  0.00     0.000 HD 
HETATM   18  N   UNL     1     -11.119   8.947  67.929  1.00  0.00    -0.464 NA 
HETATM   19  H   UNL     1      -9.032   8.847  67.983  1.00  0.00     0.000 HD 
HETATM   20  H2  UNL     1     -11.985   8.516  67.605  1.00  0.00     0.000 HD 
ENDBRANCH   9  16
ENDBRANCH   3   6
TORSDOF 2
ENDMDL
MODEL      206
REMARK 921   NORMALIZED FREE ENERGY PREDICTED BY IDOCK:   -2.53 KCAL/MOL
REMARK 922        TOTAL FREE ENERGY PREDICTED BY IDOCK:   -2.96 KCAL/MOL
REMARK 923 INTER-LIGAND FREE ENERGY PREDICTED BY IDOCK:   -2.82 KCAL/MOL
REMARK 924 INTRA-LIGAND FREE ENERGY PREDICTED BY IDOCK:   -0.14 KCAL/MOL
REMARK 927      BINDING AFFINITY PREDICTED BY RF-SCORE:    0.00 PKD
ROOT
HETATM    1  N   UNL     1      -6.038   8.472  73.074  1.00  0.00    -0.085 NA 
HETATM    2  H2  UNL     1      -6.800   8.877  73.619  1.00  0.00     0.000 HD 
HETATM    3  N   UNL     1      -6.292   7.972  71.856  1.00  0.00    -0.042 NA 
HETATM    4  H1  UNL     1      -5.096   8.455  73.463  1.00  0.00     0.000 HD 
HETATM    5  H   UNL     1      -5.531   7.568  71.310  1.00  0.00     0.000 HD 
ENDROOT
BRANCH   3   6
HETATM    6  C   UNL     1      -7.508   7.995  71.354  1.00  0.00    -0.071 A  
HETATM    7  N   UNL     1      -7.837   9.198  70.751  1.00  0.00    -0.140 NA 
HETATM    8  N   UNL     1      -9.113   9.516  70.420  1.00  0.00    -0.253 NA 
HETATM    9  C   UNL     1     -10.024   8.534  70.098  1.00  0.00    -0.181 A  
HETATM   10  C   UNL     1      -9.748   7.159  70.606  1.00  0.00    -0.175 A  
HETATM   11  C   UNL     1      -8.557   6.904  71.317  1.00  0.00    -0.123 A  
HETATM   12  C   UNL     1      -8.424   5.657  71.945  1.00  0.00    -0.127 A  
HETATM   13  C   UNL     1     -10.713   6.154  70.433  1.00  0.00    -0.347 A  
HETATM   14  C   UNL     1      -9.397   4.662  71.785  1.00  0.00    -0.190 A  
HETATM   15  C   UNL     1     -10.526   4.901  71.010  1.00  0.00    -0.164 A  
BRANCH   9  16
HETATM   16  N   UNL     1     -11.117   8.756  69.409  1.00  0.00    -0.436 NA 
HETATM   17  H1  UNL     1     -11.783   9.126  67.541  1.00  0.00     0.000 HD 
HETATM   18  N   UNL     1     -10.933   8.954  68.077  1.00  0.00    -0.483 NA 
HETATM   19  H   UNL     1     -12.040   8.778  69.842  1.00  0.00     0.000 HD 
HETATM   20  H2  UNL     1     -10.010   8.931  67.645  1.00  0.00     0.000 HD 
ENDBRANCH   9  16
ENDBRANCH   3   6
TORSDOF 2
ENDMDL
MODEL      207
REMARK 921   NORMALIZED FREE ENERGY PREDICTED BY IDOCK:   -2.47 KCAL/MOL
REMARK 922        TOTAL FREE ENERGY PREDICTED BY IDOCK:   -2.89 KCAL/MOL
REMARK 923 INTER-LIGAND FREE ENERGY PREDICTED BY IDOCK:   -2.76 KCAL/MOL
REMARK 924 INTRA-LIGAND FREE ENERGY PREDICTED BY IDOCK:   -0.13 KCAL/MOL
REMARK 927      BINDING AFFINITY PREDICTED BY RF-SCORE:    0.00 PKD
ROOT
HETATM    1  N   UNL     1      -9.465  15.098  68.529  1.00  0.00    -0.197 NA 
HETATM    2  H2  UNL     1      -8.648  14.825  69.076  1.00  0.00     0.000 HD 
HETATM    3  N   UNL     1      -9.959  14.250  67.615  1.00  0.00    -0.224 NA 
HETATM    4  H1  UNL     1      -9.892  16.010  68.685  1.00  0.00     0.000 HD 
HETATM    5  H   UNL     1     -10.775  14.522  67.067  1.00  0.00     0.000 HD 
ENDROOT
BRANCH   3   6
HETATM    6  C   UNL     1      -9.407  13.073  67.413  1.00  0.00    -0.209 A  
HETATM    7  N   UNL     1      -8.586  12.661  68.449  1.00  0.00    -0.157 NA 
HETATM    8  N   UNL     1      -7.724  11.622  68.320  1.00  0.00    -0.121 NA 
HETATM    9  C   UNL     1      -7.997  10.581  67.460  1.00  0.00    -0.107 A  
HETATM   10  C   UNL     1      -8.945  10.856  66.341  1.00  0.00    -0.186 A  
HETATM   11  C   UNL     1      -9.568  12.119  66.249  1.00  0.00    -0.246 A  
HETATM   12  C   UNL     1     -10.293  12.407  65.084  1.00  0.00    -0.313 A  
HETATM   13  C   UNL     1      -9.146   9.880  65.352  1.00  0.00    -0.241 A  
HETATM   14  C   UNL     1     -10.478  11.436  64.092  1.00  0.00    -0.421 A  
HETATM   15  C   UNL     1      -9.928  10.168  64.237  1.00  0.00    -0.174 A  
BRANCH   9  16
HETATM   16  N   UNL     1      -7.448   9.395  67.558  1.00  0.00    -0.090 NA 
HETATM   17  H1  UNL     1      -6.920   7.982  68.898  1.00  0.00     0.000 HD 
HETATM   18  N   UNL     1      -7.347   8.905  68.822  1.00  0.00    -0.075 NA 
HETATM   19  H   UNL     1      -7.120   8.877  66.743  1.00  0.00     0.000 HD 
HETATM   20  H2  UNL     1      -7.675   9.423  69.636  1.00  0.00     0.000 HD 
ENDBRANCH   9  16
ENDBRANCH   3   6
TORSDOF 2
ENDMDL
MODEL      208
REMARK 921   NORMALIZED FREE ENERGY PREDICTED BY IDOCK:   -2.45 KCAL/MOL
REMARK 922        TOTAL FREE ENERGY PREDICTED BY IDOCK:   -2.87 KCAL/MOL
REMARK 923 INTER-LIGAND FREE ENERGY PREDICTED BY IDOCK:   -2.75 KCAL/MOL
REMARK 924 INTRA-LIGAND FREE ENERGY PREDICTED BY IDOCK:   -0.12 KCAL/MOL
REMARK 927      BINDING AFFINITY PREDICTED BY RF-SCORE:    0.00 PKD
ROOT
HETATM    1  N   UNL     1      -6.629   9.740  71.267  1.00  0.00    -0.319 NA 
HETATM    2  H2  UNL     1      -7.052   9.477  72.157  1.00  0.00     0.000 HD 
HETATM    3  N   UNL     1      -6.986   9.092  70.149  1.00  0.00    -0.042 NA 
HETATM    4  H1  UNL     1      -5.940  10.492  71.242  1.00  0.00     0.000 HD 
HETATM    5  H   UNL     1      -6.562   9.355  69.259  1.00  0.00     0.000 HD 
ENDROOT
BRANCH   3   6
HETATM    6  C   UNL     1      -7.874   8.122  70.182  1.00  0.00    -0.098 A  
HETATM    7  N   UNL     1      -7.911   7.445  71.389  1.00  0.00    -0.095 NA 
HETATM    8  N   UNL     1      -8.552   6.259  71.534  1.00  0.00    -0.130 NA 
HETATM    9  C   UNL     1      -9.647   5.948  70.757  1.00  0.00    -0.170 A  
HETATM   10  C   UNL     1      -9.787   6.673  69.461  1.00  0.00    -0.162 A  
HETATM   11  C   UNL     1      -8.856   7.678  69.119  1.00  0.00    -0.139 A  
HETATM   12  C   UNL     1      -8.902   8.195  67.817  1.00  0.00    -0.130 A  
HETATM   13  C   UNL     1     -10.799   6.294  68.565  1.00  0.00    -0.394 A  
HETATM   14  C   UNL     1      -9.903   7.802  66.920  1.00  0.00    -0.305 A  
HETATM   15  C   UNL     1     -10.864   6.874  67.301  1.00  0.00    -0.426 A  
BRANCH   9  16
HETATM   16  N   UNL     1     -10.535   5.041  71.083  1.00  0.00    -0.178 NA 
HETATM   17  H1  UNL     1     -10.749   3.292  72.067  1.00  0.00     0.000 HD 
HETATM   18  N   UNL     1     -10.058   3.999  71.813  1.00  0.00    -0.164 NA 
HETATM   19  H   UNL     1     -11.514   5.112  70.807  1.00  0.00     0.000 HD 
HETATM   20  H2  UNL     1      -9.079   3.928  72.089  1.00  0.00     0.000 HD 
ENDBRANCH   9  16
ENDBRANCH   3   6
TORSDOF 2
ENDMDL
MODEL      209
REMARK 921   NORMALIZED FREE ENERGY PREDICTED BY IDOCK:   -2.45 KCAL/MOL
REMARK 922        TOTAL FREE ENERGY PREDICTED BY IDOCK:   -2.87 KCAL/MOL
REMARK 923 INTER-LIGAND FREE ENERGY PREDICTED BY IDOCK:   -2.84 KCAL/MOL
REMARK 924 INTRA-LIGAND FREE ENERGY PREDICTED BY IDOCK:   -0.03 KCAL/MOL
REMARK 927      BINDING AFFINITY PREDICTED BY RF-SCORE:    0.00 PKD
ROOT
HETATM    1  N   UNL     1     -12.063   6.376  72.487  1.00  0.00    -0.531 NA 
HETATM    2  H2  UNL     1     -12.384   5.671  71.823  1.00  0.00     0.000 HD 
HETATM    3  N   UNL     1     -11.037   7.174  72.158  1.00  0.00    -0.240 NA 
HETATM    4  H1  UNL     1     -12.529   6.463  73.390  1.00  0.00     0.000 HD 
HETATM    5  H   UNL     1     -10.716   7.878  72.822  1.00  0.00     0.000 HD 
ENDROOT
BRANCH   3   6
HETATM    6  C   UNL     1     -10.437   7.061  70.993  1.00  0.00    -0.212 A  
HETATM    7  N   UNL     1     -10.534   8.197  70.207  1.00  0.00    -0.214 NA 
HETATM    8  N   UNL     1     -10.226   8.193  68.887  1.00  0.00    -0.207 NA 
HETATM    9  C   UNL     1      -9.282   7.322  68.386  1.00  0.00    -0.137 A  
HETATM   10  C   UNL     1      -9.005   6.091  69.181  1.00  0.00    -0.124 A  
HETATM   11  C   UNL     1      -9.649   5.902  70.422  1.00  0.00    -0.204 A  
HETATM   12  C   UNL     1      -9.517   4.652  71.044  1.00  0.00    -0.227 A  
HETATM   13  C   UNL     1      -8.164   5.101  68.647  1.00  0.00    -0.085 A  
HETATM   14  C   UNL     1      -8.690   3.661  70.500  1.00  0.00    -0.124 A  
HETATM   15  C   UNL     1      -7.995   3.894  69.319  1.00  0.00    -0.058 A  
BRANCH   9  16
HETATM   16  N   UNL     1      -8.655   7.507  67.250  1.00  0.00    -0.117 NA 
HETATM   17  H1  UNL     1      -8.921   7.466  65.250  1.00  0.00     0.000 HD 
HETATM   18  N   UNL     1      -9.409   7.322  66.134  1.00  0.00    -0.359 NA 
HETATM   19  H   UNL     1      -7.671   7.769  67.207  1.00  0.00     0.000 HD 
HETATM   20  H2  UNL     1     -10.393   7.060  66.178  1.00  0.00     0.000 HD 
ENDBRANCH   9  16
ENDBRANCH   3   6
TORSDOF 2
ENDMDL
MODEL      210
REMARK 921   NORMALIZED FREE ENERGY PREDICTED BY IDOCK:   -2.44 KCAL/MOL
REMARK 922        TOTAL FREE ENERGY PREDICTED BY IDOCK:   -2.86 KCAL/MOL
REMARK 923 INTER-LIGAND FREE ENERGY PREDICTED BY IDOCK:   -2.74 KCAL/MOL
REMARK 924 INTRA-LIGAND FREE ENERGY PREDICTED BY IDOCK:   -0.12 KCAL/MOL
REMARK 927      BINDING AFFINITY PREDICTED BY RF-SCORE:    0.00 PKD
ROOT
HETATM    1  N   UNL     1     -12.128  10.320  69.262  1.00  0.00    -0.565 NA 
HETATM    2  H2  UNL     1     -11.784  10.802  68.431  1.00  0.00     0.000 HD 
HETATM    3  N   UNL     1     -11.664   9.096  69.554  1.00  0.00    -0.186 NA 
HETATM    4  H1  UNL     1     -12.818  10.778  69.858  1.00  0.00     0.000 HD 
HETATM    5  H   UNL     1     -12.008   8.615  70.385  1.00  0.00     0.000 HD 
ENDROOT
BRANCH   3   6
HETATM    6  C   UNL     1     -10.774   8.507  68.786  1.00  0.00    -0.054 A  
HETATM    7  N   UNL     1     -10.726   9.018  67.499  1.00  0.00    -0.235 NA 
HETATM    8  N   UNL     1     -10.082   8.381  66.491  1.00  0.00    -0.279 NA 
HETATM    9  C   UNL     1      -8.992   7.577  66.746  1.00  0.00    -0.144 A  
HETATM   10  C   UNL     1      -8.864   7.026  68.126  1.00  0.00    -0.129 A  
HETATM   11  C   UNL     1      -9.799   7.397  69.116  1.00  0.00    -0.168 A  
HETATM   12  C   UNL     1      -9.764   6.712  70.339  1.00  0.00    -0.186 A  
HETATM   13  C   UNL     1      -7.857   6.087  68.402  1.00  0.00    -0.106 A  
HETATM   14  C   UNL     1      -8.768   5.763  70.604  1.00  0.00    -0.137 A  
HETATM   15  C   UNL     1      -7.802   5.471  69.649  1.00  0.00    -0.090 A  
BRANCH   9  16
HETATM   16  N   UNL     1      -8.100   7.255  65.842  1.00  0.00    -0.118 NA 
HETATM   17  H1  UNL     1      -7.909   6.494  63.983  1.00  0.00     0.000 HD 
HETATM   18  N   UNL     1      -8.603   6.745  64.686  1.00  0.00    -0.344 NA 
HETATM   19  H   UNL     1      -7.100   7.377  65.994  1.00  0.00     0.000 HD 
HETATM   20  H2  UNL     1      -9.604   6.622  64.534  1.00  0.00     0.000 HD 
ENDBRANCH   9  16
ENDBRANCH   3   6
TORSDOF 2
ENDMDL
MODEL      211
REMARK 921   NORMALIZED FREE ENERGY PREDICTED BY IDOCK:   -2.43 KCAL/MOL
REMARK 922        TOTAL FREE ENERGY PREDICTED BY IDOCK:   -2.84 KCAL/MOL
REMARK 923 INTER-LIGAND FREE ENERGY PREDICTED BY IDOCK:   -2.72 KCAL/MOL
REMARK 924 INTRA-LIGAND FREE ENERGY PREDICTED BY IDOCK:   -0.12 KCAL/MOL
REMARK 927      BINDING AFFINITY PREDICTED BY RF-SCORE:    0.00 PKD
ROOT
HETATM    1  N   UNL     1     -11.350   4.323  64.723  1.00  0.00    -1.022 NA 
HETATM    2  H2  UNL     1     -10.742   3.530  64.520  1.00  0.00     0.000 HD 
HETATM    3  N   UNL     1     -10.978   5.220  65.648  1.00  0.00    -0.679 NA 
HETATM    4  H1  UNL     1     -12.232   4.422  64.220  1.00  0.00     0.000 HD 
HETATM    5  H   UNL     1     -11.586   6.013  65.852  1.00  0.00     0.000 HD 
ENDROOT
BRANCH   3   6
HETATM    6  C   UNL     1      -9.840   5.093  66.296  1.00  0.00    -0.192 A  
HETATM    7  N   UNL     1      -9.986   4.598  67.581  1.00  0.00    -0.139 NA 
HETATM    8  N   UNL     1      -8.985   4.649  68.494  1.00  0.00    -0.105 NA 
HETATM    9  C   UNL     1      -7.666   4.617  68.098  1.00  0.00    -0.081 A  
HETATM   10  C   UNL     1      -7.368   5.039  66.698  1.00  0.00    -0.086 A  
HETATM   11  C   UNL     1      -8.428   5.377  65.830  1.00  0.00    -0.127 A  
HETATM   12  C   UNL     1      -8.103   5.954  64.595  1.00  0.00    -0.132 A  
HETATM   13  C   UNL     1      -6.032   5.167  66.287  1.00  0.00    -0.023 A  
HETATM   14  C   UNL     1      -6.768   6.096  64.195  1.00  0.00    -0.038 A  
HETATM   15  C   UNL     1      -5.736   5.679  65.027  1.00  0.00    -0.017 A  
BRANCH   9  16
HETATM   16  N   UNL     1      -6.679   4.273  68.888  1.00  0.00    -0.045 NA 
HETATM   17  H1  UNL     1      -6.199   4.013  70.831  1.00  0.00     0.000 HD 
HETATM   18  N   UNL     1      -6.968   4.281  70.216  1.00  0.00    -0.037 NA 
HETATM   19  H   UNL     1      -5.758   4.018  68.531  1.00  0.00     0.000 HD 
HETATM   20  H2  UNL     1      -7.888   4.536  70.572  1.00  0.00     0.000 HD 
ENDBRANCH   9  16
ENDBRANCH   3   6
TORSDOF 2
ENDMDL
MODEL      212
REMARK 921   NORMALIZED FREE ENERGY PREDICTED BY IDOCK:   -2.38 KCAL/MOL
REMARK 922        TOTAL FREE ENERGY PREDICTED BY IDOCK:   -2.80 KCAL/MOL
REMARK 923 INTER-LIGAND FREE ENERGY PREDICTED BY IDOCK:   -2.67 KCAL/MOL
REMARK 924 INTRA-LIGAND FREE ENERGY PREDICTED BY IDOCK:   -0.12 KCAL/MOL
REMARK 927      BINDING AFFINITY PREDICTED BY RF-SCORE:    0.00 PKD
ROOT
HETATM    1  N   UNL     1      -6.384  13.543  69.645  1.00  0.00    -0.167 NA 
HETATM    2  H2  UNL     1      -6.904  14.385  69.892  1.00  0.00     0.000 HD 
HETATM    3  N   UNL     1      -6.728  12.851  68.550  1.00  0.00    -0.084 NA 
HETATM    4  H1  UNL     1      -5.608  13.242  70.236  1.00  0.00     0.000 HD 
HETATM    5  H   UNL     1      -6.208  12.009  68.304  1.00  0.00     0.000 HD 
ENDROOT
BRANCH   3   6
HETATM    6  C   UNL     1      -7.728  13.240  67.789  1.00  0.00    -0.159 A  
HETATM    7  N   UNL     1      -7.421  14.322  66.981  1.00  0.00     0.070 NA 
HETATM    8  N   UNL     1      -8.375  15.036  66.334  1.00  0.00     0.033 NA 
HETATM    9  C   UNL     1      -9.555  14.443  65.942  1.00  0.00    -0.220 A  
HETATM   10  C   UNL     1      -9.968  13.207  66.668  1.00  0.00    -0.270 A  
HETATM   11  C   UNL     1      -9.121  12.662  67.656  1.00  0.00    -0.192 A  
HETATM   12  C   UNL     1      -9.626  11.623  68.450  1.00  0.00    -0.195 A  
HETATM   13  C   UNL     1     -11.229  12.646  66.411  1.00  0.00    -0.350 A  
HETATM   14  C   UNL     1     -10.892  11.077  68.202  1.00  0.00    -0.274 A  
HETATM   15  C   UNL     1     -11.680  11.569  67.169  1.00  0.00    -0.140 A  
BRANCH   9  16
HETATM   16  N   UNL     1     -10.332  14.924  65.002  1.00  0.00    -0.392 NA 
HETATM   17  H1  UNL     1     -11.588  16.448  64.588  1.00  0.00     0.000 HD 
HETATM   18  N   UNL     1     -10.984  16.074  65.319  1.00  0.00    -0.333 NA 
HETATM   19  H   UNL     1     -10.440  14.467  64.097  1.00  0.00     0.000 HD 
HETATM   20  H2  UNL     1     -10.875  16.530  66.225  1.00  0.00     0.000 HD 
ENDBRANCH   9  16
ENDBRANCH   3   6
TORSDOF 2
ENDMDL
MODEL      213
REMARK 921   NORMALIZED FREE ENERGY PREDICTED BY IDOCK:   -2.38 KCAL/MOL
REMARK 922        TOTAL FREE ENERGY PREDICTED BY IDOCK:   -2.80 KCAL/MOL
REMARK 923 INTER-LIGAND FREE ENERGY PREDICTED BY IDOCK:   -3.10 KCAL/MOL
REMARK 924 INTRA-LIGAND FREE ENERGY PREDICTED BY IDOCK:    0.31 KCAL/MOL
REMARK 927      BINDING AFFINITY PREDICTED BY RF-SCORE:    0.00 PKD
ROOT
HETATM    1  N   UNL     1     -11.146   5.345  65.990  1.00  0.00    -0.789 NA 
HETATM    2  H2  UNL     1     -10.720   4.422  65.913  1.00  0.00     0.000 HD 
HETATM    3  N   UNL     1     -11.047   6.024  67.142  1.00  0.00    -0.545 NA 
HETATM    4  H1  UNL     1     -11.640   5.738  65.189  1.00  0.00     0.000 HD 
HETATM    5  H   UNL     1     -11.474   6.947  67.219  1.00  0.00     0.000 HD 
ENDROOT
BRANCH   3   6
HETATM    6  C   UNL     1     -10.410   5.517  68.175  1.00  0.00    -0.176 A  
HETATM    7  N   UNL     1     -10.802   6.057  69.389  1.00  0.00    -0.330 NA 
HETATM    8  N   UNL     1     -10.089   5.872  70.527  1.00  0.00    -0.188 NA 
HETATM    9  C   UNL     1      -9.337   4.733  70.711  1.00  0.00    -0.148 A  
HETATM   10  C   UNL     1      -8.918   3.990  69.487  1.00  0.00    -0.163 A  
HETATM   11  C   UNL     1      -9.357   4.430  68.220  1.00  0.00    -0.199 A  
HETATM   12  C   UNL     1      -8.788   3.832  67.087  1.00  0.00    -0.135 A  
HETATM   13  C   UNL     1      -8.031   2.909  69.606  1.00  0.00    -0.052 A  
HETATM   14  C   UNL     1      -7.891   2.763  67.210  1.00  0.00    -0.070 A  
HETATM   15  C   UNL     1      -7.533   2.286  68.465  1.00  0.00    -0.047 A  
BRANCH   9  16
HETATM   16  N   UNL     1      -8.952   4.298  71.887  1.00  0.00    -0.117 NA 
HETATM   17  H1  UNL     1      -9.578   3.231  73.481  1.00  0.00     0.000 HD 
HETATM   18  N   UNL     1      -9.877   3.569  72.567  1.00  0.00    -0.147 NA 
HETATM   19  H   UNL     1      -8.026   4.494  72.265  1.00  0.00     0.000 HD 
HETATM   20  H2  UNL     1     -10.803   3.374  72.189  1.00  0.00     0.000 HD 
ENDBRANCH   9  16
ENDBRANCH   3   6
TORSDOF 2
ENDMDL
MODEL      214
REMARK 921   NORMALIZED FREE ENERGY PREDICTED BY IDOCK:   -2.38 KCAL/MOL
REMARK 922        TOTAL FREE ENERGY PREDICTED BY IDOCK:   -2.79 KCAL/MOL
REMARK 923 INTER-LIGAND FREE ENERGY PREDICTED BY IDOCK:   -2.67 KCAL/MOL
REMARK 924 INTRA-LIGAND FREE ENERGY PREDICTED BY IDOCK:   -0.12 KCAL/MOL
REMARK 927      BINDING AFFINITY PREDICTED BY RF-SCORE:    0.00 PKD
ROOT
HETATM    1  N   UNL     1     -11.111   5.046  72.621  1.00  0.00    -0.222 NA 
HETATM    2  H2  UNL     1     -12.000   5.538  72.529  1.00  0.00     0.000 HD 
HETATM    3  N   UNL     1     -10.059   5.440  71.887  1.00  0.00    -0.187 NA 
HETATM    4  H1  UNL     1     -11.036   4.262  73.269  1.00  0.00     0.000 HD 
HETATM    5  H   UNL     1      -9.171   4.948  71.979  1.00  0.00     0.000 HD 
ENDROOT
BRANCH   3   6
HETATM    6  C   UNL     1     -10.157   6.451  71.052  1.00  0.00    -0.182 A  
HETATM    7  N   UNL     1     -11.350   7.146  71.158  1.00  0.00    -0.265 NA 
HETATM    8  N   UNL     1     -11.755   8.036  70.219  1.00  0.00    -0.011 NA 
HETATM    9  C   UNL     1     -10.837   8.738  69.470  1.00  0.00    -0.142 A  
HETATM   10  C   UNL     1      -9.472   8.150  69.343  1.00  0.00    -0.162 A  
HETATM   11  C   UNL     1      -9.156   6.963  70.038  1.00  0.00    -0.145 A  
HETATM   12  C   UNL     1      -7.938   6.337  69.741  1.00  0.00    -0.118 A  
HETATM   13  C   UNL     1      -8.543   8.745  68.474  1.00  0.00    -0.134 A  
HETATM   14  C   UNL     1      -7.020   6.925  68.861  1.00  0.00    -0.082 A  
HETATM   15  C   UNL     1      -7.311   8.138  68.250  1.00  0.00    -0.095 A  
BRANCH   9  16
HETATM   16  N   UNL     1     -11.112   9.859  68.848  1.00  0.00    -0.401 NA 
HETATM   17  H1  UNL     1     -12.269  11.508  68.960  1.00  0.00     0.000 HD 
HETATM   18  N   UNL     1     -12.055  10.636  69.443  1.00  0.00    -0.521 NA 
HETATM   19  H   UNL     1     -10.652  10.129  67.980  1.00  0.00     0.000 HD 
HETATM   20  H2  UNL     1     -12.516  10.366  70.312  1.00  0.00     0.000 HD 
ENDBRANCH   9  16
ENDBRANCH   3   6
TORSDOF 2
ENDMDL
MODEL      215
REMARK 921   NORMALIZED FREE ENERGY PREDICTED BY IDOCK:   -2.38 KCAL/MOL
REMARK 922        TOTAL FREE ENERGY PREDICTED BY IDOCK:   -2.79 KCAL/MOL
REMARK 923 INTER-LIGAND FREE ENERGY PREDICTED BY IDOCK:   -2.98 KCAL/MOL
REMARK 924 INTRA-LIGAND FREE ENERGY PREDICTED BY IDOCK:    0.19 KCAL/MOL
REMARK 927      BINDING AFFINITY PREDICTED BY RF-SCORE:    0.00 PKD
ROOT
HETATM    1  N   UNL     1     -11.033  10.772  68.478  1.00  0.00    -0.223 NA 
HETATM    2  H2  UNL     1     -10.280  11.263  67.997  1.00  0.00     0.000 HD 
HETATM    3  N   UNL     1     -11.191   9.454  68.286  1.00  0.00    -0.490 NA 
HETATM    4  H1  UNL     1     -11.653  11.291  69.100  1.00  0.00     0.000 HD 
HETATM    5  H   UNL     1     -11.944   8.963  68.767  1.00  0.00     0.000 HD 
ENDROOT
BRANCH   3   6
HETATM    6  C   UNL     1     -10.390   8.786  67.485  1.00  0.00    -0.268 A  
HETATM    7  N   UNL     1     -10.114   7.501  67.922  1.00  0.00    -0.173 NA 
HETATM    8  N   UNL     1      -9.112   6.756  67.392  1.00  0.00    -0.118 NA 
HETATM    9  C   UNL     1      -8.719   6.929  66.084  1.00  0.00    -0.145 A  
HETATM   10  C   UNL     1      -9.035   8.242  65.448  1.00  0.00    -0.062 A  
HETATM   11  C   UNL     1      -9.771   9.207  66.169  1.00  0.00    -0.357 A  
HETATM   12  C   UNL     1      -9.877  10.492  65.619  1.00  0.00    -0.311 A  
HETATM   13  C   UNL     1      -8.531   8.527  64.170  1.00  0.00    -0.052 A  
HETATM   14  C   UNL     1      -9.358  10.778  64.350  1.00  0.00    -0.279 A  
HETATM   15  C   UNL     1      -8.710   9.792  63.616  1.00  0.00    -0.235 A  
BRANCH   9  16
HETATM   16  N   UNL     1      -8.065   6.026  65.396  1.00  0.00    -0.125 NA 
HETATM   17  H1  UNL     1      -8.270   4.212  64.535  1.00  0.00     0.000 HD 
HETATM   18  N   UNL     1      -8.779   4.916  65.070  1.00  0.00    -0.146 NA 
HETATM   19  H   UNL     1      -7.089   6.146  65.125  1.00  0.00     0.000 HD 
HETATM   20  H2  UNL     1      -9.754   4.795  65.341  1.00  0.00     0.000 HD 
ENDBRANCH   9  16
ENDBRANCH   3   6
TORSDOF 2
ENDMDL
MODEL      216
REMARK 921   NORMALIZED FREE ENERGY PREDICTED BY IDOCK:   -2.35 KCAL/MOL
REMARK 922        TOTAL FREE ENERGY PREDICTED BY IDOCK:   -2.76 KCAL/MOL
REMARK 923 INTER-LIGAND FREE ENERGY PREDICTED BY IDOCK:   -2.71 KCAL/MOL
REMARK 924 INTRA-LIGAND FREE ENERGY PREDICTED BY IDOCK:   -0.04 KCAL/MOL
REMARK 927      BINDING AFFINITY PREDICTED BY RF-SCORE:    0.00 PKD
ROOT
HETATM    1  N   UNL     1     -11.875   9.625  70.441  1.00  0.00    -0.418 NA 
HETATM    2  H2  UNL     1     -11.333  10.356  70.902  1.00  0.00     0.000 HD 
HETATM    3  N   UNL     1     -11.474   9.157  69.250  1.00  0.00    -0.315 NA 
HETATM    4  H1  UNL     1     -12.713   9.260  70.894  1.00  0.00     0.000 HD 
HETATM    5  H   UNL     1     -12.016   8.426  68.789  1.00  0.00     0.000 HD 
ENDROOT
BRANCH   3   6
HETATM    6  C   UNL     1     -10.393   9.627  68.667  1.00  0.00    -0.203 A  
HETATM    7  N   UNL     1      -9.402   8.677  68.485  1.00  0.00    -0.138 NA 
HETATM    8  N   UNL     1      -8.130   9.011  68.157  1.00  0.00    -0.105 NA 
HETATM    9  C   UNL     1      -7.865  10.148  67.427  1.00  0.00    -0.102 A  
HETATM   10  C   UNL     1      -8.894  11.229  67.456  1.00  0.00    -0.140 A  
HETATM   11  C   UNL     1     -10.103  11.021  68.152  1.00  0.00    -0.195 A  
HETATM   12  C   UNL     1     -10.956  12.121  68.323  1.00  0.00    -0.273 A  
HETATM   13  C   UNL     1      -8.612  12.464  66.852  1.00  0.00    -0.171 A  
HETATM   14  C   UNL     1     -10.664  13.358  67.733  1.00  0.00    -0.259 A  
HETATM   15  C   UNL     1      -9.509  13.522  66.978  1.00  0.00    -0.251 A  
BRANCH   9  16
HETATM   16  N   UNL     1      -6.758  10.336  66.750  1.00  0.00    -0.079 NA 
HETATM   17  H1  UNL     1      -5.188   9.354  65.947  1.00  0.00     0.000 HD 
HETATM   18  N   UNL     1      -6.049   9.209  66.474  1.00  0.00    -0.063 NA 
HETATM   19  H   UNL     1      -6.451  11.261  66.451  1.00  0.00     0.000 HD 
HETATM   20  H2  UNL     1      -6.357   8.284  66.773  1.00  0.00     0.000 HD 
ENDBRANCH   9  16
ENDBRANCH   3   6
TORSDOF 2
ENDMDL
MODEL      217
REMARK 921   NORMALIZED FREE ENERGY PREDICTED BY IDOCK:   -2.31 KCAL/MOL
REMARK 922        TOTAL FREE ENERGY PREDICTED BY IDOCK:   -2.71 KCAL/MOL
REMARK 923 INTER-LIGAND FREE ENERGY PREDICTED BY IDOCK:   -2.63 KCAL/MOL
REMARK 924 INTRA-LIGAND FREE ENERGY PREDICTED BY IDOCK:   -0.08 KCAL/MOL
REMARK 927      BINDING AFFINITY PREDICTED BY RF-SCORE:    0.00 PKD
ROOT
HETATM    1  N   UNL     1      -8.793   5.033  74.334  1.00  0.00    -0.112 NA 
HETATM    2  H2  UNL     1      -9.783   5.266  74.410  1.00  0.00     0.000 HD 
HETATM    3  N   UNL     1      -8.158   5.223  73.169  1.00  0.00    -0.108 NA 
HETATM    4  H1  UNL     1      -8.301   4.660  75.146  1.00  0.00     0.000 HD 
HETATM    5  H   UNL     1      -7.168   4.991  73.092  1.00  0.00     0.000 HD 
ENDROOT
BRANCH   3   6
HETATM    6  C   UNL     1      -8.793   5.704  72.122  1.00  0.00    -0.137 A  
HETATM    7  N   UNL     1     -10.000   5.075  71.867  1.00  0.00    -0.180 NA 
HETATM    8  N   UNL     1     -10.666   5.234  70.697  1.00  0.00    -0.191 NA 
HETATM    9  C   UNL     1     -10.552   6.400  69.972  1.00  0.00    -0.236 A  
HETATM   10  C   UNL     1      -9.338   7.232  70.212  1.00  0.00    -0.158 A  
HETATM   11  C   UNL     1      -8.409   6.843  71.200  1.00  0.00    -0.119 A  
HETATM   12  C   UNL     1      -7.190   7.534  71.262  1.00  0.00    -0.063 A  
HETATM   13  C   UNL     1      -9.098   8.352  69.400  1.00  0.00    -0.154 A  
HETATM   14  C   UNL     1      -6.948   8.641  70.438  1.00  0.00    -0.043 A  
HETATM   15  C   UNL     1      -7.909   9.064  69.528  1.00  0.00    -0.094 A  
BRANCH   9  16
HETATM   16  N   UNL     1     -11.427   6.787  69.076  1.00  0.00    -0.582 NA 
HETATM   17  H1  UNL     1     -12.042   6.440  67.186  1.00  0.00     0.000 HD 
HETATM   18  N   UNL     1     -11.361   6.139  67.883  1.00  0.00    -0.454 NA 
HETATM   19  H   UNL     1     -12.109   7.522  69.261  1.00  0.00     0.000 HD 
HETATM   20  H2  UNL     1     -10.679   5.404  67.698  1.00  0.00     0.000 HD 
ENDBRANCH   9  16
ENDBRANCH   3   6
TORSDOF 2
ENDMDL
MODEL      218
REMARK 921   NORMALIZED FREE ENERGY PREDICTED BY IDOCK:   -2.25 KCAL/MOL
REMARK 922        TOTAL FREE ENERGY PREDICTED BY IDOCK:   -2.65 KCAL/MOL
REMARK 923 INTER-LIGAND FREE ENERGY PREDICTED BY IDOCK:   -2.51 KCAL/MOL
REMARK 924 INTRA-LIGAND FREE ENERGY PREDICTED BY IDOCK:   -0.13 KCAL/MOL
REMARK 927      BINDING AFFINITY PREDICTED BY RF-SCORE:    0.00 PKD
ROOT
HETATM    1  N   UNL     1      -9.860   8.491  70.489  1.00  0.00    -0.176 NA 
HETATM    2  H2  UNL     1     -10.008   9.450  70.804  1.00  0.00     0.000 HD 
HETATM    3  N   UNL     1      -9.453   8.264  69.232  1.00  0.00    -0.155 NA 
HETATM    4  H1  UNL     1     -10.023   7.720  71.136  1.00  0.00     0.000 HD 
HETATM    5  H   UNL     1      -9.304   7.306  68.917  1.00  0.00     0.000 HD 
ENDROOT
BRANCH   3   6
HETATM    6  C   UNL     1      -9.242   9.260  68.398  1.00  0.00    -0.131 A  
HETATM    7  N   UNL     1     -10.325   9.538  67.581  1.00  0.00    -0.228 NA 
HETATM    8  N   UNL     1     -10.221  10.332  66.486  1.00  0.00    -0.228 NA 
HETATM    9  C   UNL     1      -9.288  11.343  66.434  1.00  0.00    -0.204 A  
HETATM   10  C   UNL     1      -8.103  11.221  67.333  1.00  0.00    -0.135 A  
HETATM   11  C   UNL     1      -8.020  10.139  68.235  1.00  0.00    -0.101 A  
HETATM   12  C   UNL     1      -6.811   9.949  68.918  1.00  0.00    -0.057 A  
HETATM   13  C   UNL     1      -7.052  12.144  67.216  1.00  0.00    -0.144 A  
HETATM   14  C   UNL     1      -5.758  10.863  68.787  1.00  0.00    -0.040 A  
HETATM   15  C   UNL     1      -5.887  11.971  67.959  1.00  0.00    -0.055 A  
BRANCH   9  16
HETATM   16  N   UNL     1      -9.374  12.369  65.623  1.00  0.00    -0.441 NA 
HETATM   17  H1  UNL     1      -9.427  12.864  63.668  1.00  0.00     0.000 HD 
HETATM   18  N   UNL     1      -9.360  12.065  64.298  1.00  0.00    -0.419 NA 
HETATM   19  H   UNL     1      -9.445  13.328  65.962  1.00  0.00     0.000 HD 
HETATM   20  H2  UNL     1      -9.289  11.106  63.959  1.00  0.00     0.000 HD 
ENDBRANCH   9  16
ENDBRANCH   3   6
TORSDOF 2
ENDMDL
MODEL      219
REMARK 921   NORMALIZED FREE ENERGY PREDICTED BY IDOCK:   -2.24 KCAL/MOL
REMARK 922        TOTAL FREE ENERGY PREDICTED BY IDOCK:   -2.63 KCAL/MOL
REMARK 923 INTER-LIGAND FREE ENERGY PREDICTED BY IDOCK:   -2.78 KCAL/MOL
REMARK 924 INTRA-LIGAND FREE ENERGY PREDICTED BY IDOCK:    0.15 KCAL/MOL
REMARK 927      BINDING AFFINITY PREDICTED BY RF-SCORE:    0.00 PKD
ROOT
HETATM    1  N   UNL     1      -8.965  10.241  67.302  1.00  0.00    -0.132 NA 
HETATM    2  H2  UNL     1      -9.609  10.450  66.539  1.00  0.00     0.000 HD 
HETATM    3  N   UNL     1      -8.658  11.199  68.188  1.00  0.00    -0.134 NA 
HETATM    4  H1  UNL     1      -8.564   9.307  67.378  1.00  0.00     0.000 HD 
HETATM    5  H   UNL     1      -8.013  10.990  68.950  1.00  0.00     0.000 HD 
ENDROOT
BRANCH   3   6
HETATM    6  C   UNL     1      -9.175  12.405  68.090  1.00  0.00    -0.205 A  
HETATM    7  N   UNL     1     -10.477  12.413  67.616  1.00  0.00    -0.213 NA 
HETATM    8  N   UNL     1     -11.085  13.548  67.191  1.00  0.00    -0.287 NA 
HETATM    9  C   UNL     1     -10.742  14.773  67.719  1.00  0.00    -0.268 A  
HETATM   10  C   UNL     1      -9.394  14.887  68.350  1.00  0.00    -0.197 A  
HETATM   11  C   UNL     1      -8.570  13.746  68.445  1.00  0.00    -0.156 A  
HETATM   12  C   UNL     1      -7.243  13.931  68.860  1.00  0.00    -0.103 A  
HETATM   13  C   UNL     1      -8.936  16.145  68.771  1.00  0.00    -0.236 A  
HETATM   14  C   UNL     1      -6.784  15.191  69.264  1.00  0.00    -0.146 A  
HETATM   15  C   UNL     1      -7.635  16.289  69.245  1.00  0.00    -0.203 A  
BRANCH   9  16
HETATM   16  N   UNL     1     -11.515  15.829  67.665  1.00  0.00    -0.195 NA 
HETATM   17  H1  UNL     1     -12.682  17.018  68.804  1.00  0.00     0.000 HD 
HETATM   18  N   UNL     1     -12.081  16.196  68.846  1.00  0.00    -0.309 NA 
HETATM   19  H   UNL     1     -11.682  16.340  66.798  1.00  0.00     0.000 HD 
HETATM   20  H2  UNL     1     -11.914  15.685  69.712  1.00  0.00     0.000 HD 
ENDBRANCH   9  16
ENDBRANCH   3   6
TORSDOF 2
ENDMDL
MODEL      220
REMARK 921   NORMALIZED FREE ENERGY PREDICTED BY IDOCK:   -2.19 KCAL/MOL
REMARK 922        TOTAL FREE ENERGY PREDICTED BY IDOCK:   -2.58 KCAL/MOL
REMARK 923 INTER-LIGAND FREE ENERGY PREDICTED BY IDOCK:   -2.45 KCAL/MOL
REMARK 924 INTRA-LIGAND FREE ENERGY PREDICTED BY IDOCK:   -0.12 KCAL/MOL
REMARK 927      BINDING AFFINITY PREDICTED BY RF-SCORE:    0.00 PKD
ROOT
HETATM    1  N   UNL     1      -9.790   6.277  73.714  1.00  0.00    -0.180 NA 
HETATM    2  H2  UNL     1     -10.035   7.183  74.115  1.00  0.00     0.000 HD 
HETATM    3  N   UNL     1      -9.605   6.170  72.391  1.00  0.00    -0.152 NA 
HETATM    4  H1  UNL     1      -9.690   5.468  74.327  1.00  0.00     0.000 HD 
HETATM    5  H   UNL     1      -9.360   5.264  71.990  1.00  0.00     0.000 HD 
ENDROOT
BRANCH   3   6
HETATM    6  C   UNL     1      -9.734   7.214  71.601  1.00  0.00    -0.159 A  
HETATM    7  N   UNL     1     -11.037   7.443  71.192  1.00  0.00    -0.248 NA 
HETATM    8  N   UNL     1     -11.338   8.289  70.176  1.00  0.00    -0.134 NA 
HETATM    9  C   UNL     1     -10.534   9.372  69.897  1.00  0.00    -0.233 A  
HETATM   10  C   UNL     1      -9.118   9.304  70.363  1.00  0.00    -0.288 A  
HETATM   11  C   UNL     1      -8.685   8.193  71.118  1.00  0.00    -0.161 A  
HETATM   12  C   UNL     1      -7.311   8.068  71.367  1.00  0.00    -0.070 A  
HETATM   13  C   UNL     1      -8.218  10.310  69.981  1.00  0.00     0.044 A  
HETATM   14  C   UNL     1      -6.413   9.066  70.969  1.00  0.00    -0.068 A  
HETATM   15  C   UNL     1      -6.868  10.197  70.301  1.00  0.00    -0.150 A  
BRANCH   9  16
HETATM   16  N   UNL     1     -10.938  10.423  69.226  1.00  0.00    -0.227 NA 
HETATM   17  H1  UNL     1     -12.501  11.146  68.175  1.00  0.00     0.000 HD 
HETATM   18  N   UNL     1     -12.186  10.329  68.697  1.00  0.00    -0.427 NA 
HETATM   19  H   UNL     1     -10.356  11.252  69.109  1.00  0.00     0.000 HD 
HETATM   20  H2  UNL     1     -12.768   9.500  68.815  1.00  0.00     0.000 HD 
ENDBRANCH   9  16
ENDBRANCH   3   6
TORSDOF 2
ENDMDL
MODEL      221
REMARK 921   NORMALIZED FREE ENERGY PREDICTED BY IDOCK:   -2.16 KCAL/MOL
REMARK 922        TOTAL FREE ENERGY PREDICTED BY IDOCK:   -2.54 KCAL/MOL
REMARK 923 INTER-LIGAND FREE ENERGY PREDICTED BY IDOCK:   -2.65 KCAL/MOL
REMARK 924 INTRA-LIGAND FREE ENERGY PREDICTED BY IDOCK:    0.11 KCAL/MOL
REMARK 927      BINDING AFFINITY PREDICTED BY RF-SCORE:    0.00 PKD
ROOT
HETATM    1  N   UNL     1      -8.442   8.127  63.718  1.00  0.00    -0.395 NA 
HETATM    2  H2  UNL     1      -8.818   7.789  64.604  1.00  0.00     0.000 HD 
HETATM    3  N   UNL     1      -7.835   9.322  63.671  1.00  0.00    -0.123 NA 
HETATM    4  H1  UNL     1      -8.533   7.551  62.881  1.00  0.00     0.000 HD 
HETATM    5  H   UNL     1      -7.459   9.660  62.786  1.00  0.00     0.000 HD 
ENDROOT
BRANCH   3   6
HETATM    6  C   UNL     1      -7.718  10.065  64.750  1.00  0.00    -0.142 A  
HETATM    7  N   UNL     1      -6.428  10.518  64.975  1.00  0.00    -0.078 NA 
HETATM    8  N   UNL     1      -6.047  11.061  66.157  1.00  0.00    -0.135 NA 
HETATM    9  C   UNL     1      -6.953  11.730  66.951  1.00  0.00    -0.101 A  
HETATM   10  C   UNL     1      -8.396  11.408  66.754  1.00  0.00    -0.163 A  
HETATM   11  C   UNL     1      -8.777  10.507  65.737  1.00  0.00    -0.188 A  
HETATM   12  C   UNL     1     -10.112  10.079  65.709  1.00  0.00    -0.320 A  
HETATM   13  C   UNL     1      -9.349  11.948  67.632  1.00  0.00    -0.183 A  
HETATM   14  C   UNL     1     -11.057  10.608  66.598  1.00  0.00    -0.053 A  
HETATM   15  C   UNL     1     -10.682  11.559  67.539  1.00  0.00    -0.267 A  
BRANCH   9  16
HETATM   16  N   UNL     1      -6.609  12.593  67.875  1.00  0.00    -0.096 NA 
HETATM   17  H1  UNL     1      -6.205  14.548  68.167  1.00  0.00     0.000 HD 
HETATM   18  N   UNL     1      -6.472  13.876  67.448  1.00  0.00    -0.402 NA 
HETATM   19  H   UNL     1      -6.456  12.322  68.846  1.00  0.00     0.000 HD 
HETATM   20  H2  UNL     1      -6.625  14.148  66.477  1.00  0.00     0.000 HD 
ENDBRANCH   9  16
ENDBRANCH   3   6
TORSDOF 2
ENDMDL
MODEL      222
REMARK 921   NORMALIZED FREE ENERGY PREDICTED BY IDOCK:   -2.14 KCAL/MOL
REMARK 922        TOTAL FREE ENERGY PREDICTED BY IDOCK:   -2.52 KCAL/MOL
REMARK 923 INTER-LIGAND FREE ENERGY PREDICTED BY IDOCK:   -2.40 KCAL/MOL
REMARK 924 INTRA-LIGAND FREE ENERGY PREDICTED BY IDOCK:   -0.12 KCAL/MOL
REMARK 927      BINDING AFFINITY PREDICTED BY RF-SCORE:    0.00 PKD
ROOT
HETATM    1  N   UNL     1      -8.404  10.061  67.280  1.00  0.00    -0.121 NA 
HETATM    2  H2  UNL     1      -8.519   9.124  66.892  1.00  0.00     0.000 HD 
HETATM    3  N   UNL     1      -8.701  10.283  68.568  1.00  0.00    -0.125 NA 
HETATM    4  H1  UNL     1      -8.065  10.814  66.681  1.00  0.00     0.000 HD 
HETATM    5  H   UNL     1      -8.587  11.219  68.956  1.00  0.00     0.000 HD 
ENDROOT
BRANCH   3   6
HETATM    6  C   UNL     1      -9.139   9.311  69.340  1.00  0.00    -0.152 A  
HETATM    7  N   UNL     1     -10.502   9.361  69.576  1.00  0.00    -0.210 NA 
HETATM    8  N   UNL     1     -11.096   8.626  70.549  1.00  0.00    -0.242 NA 
HETATM    9  C   UNL     1     -10.570   7.414  70.937  1.00  0.00    -0.223 A  
HETATM   10  C   UNL     1      -9.122   7.182  70.660  1.00  0.00    -0.158 A  
HETATM   11  C   UNL     1      -8.380   8.159  69.963  1.00  0.00    -0.122 A  
HETATM   12  C   UNL     1      -6.989   7.998  69.895  1.00  0.00    -0.045 A  
HETATM   13  C   UNL     1      -8.500   6.028  71.163  1.00  0.00    -0.125 A  
HETATM   14  C   UNL     1      -6.370   6.853  70.413  1.00  0.00    -0.039 A  
HETATM   15  C   UNL     1      -7.126   5.859  71.022  1.00  0.00    -0.069 A  
BRANCH   9  16
HETATM   16  N   UNL     1     -11.260   6.487  71.555  1.00  0.00    -0.263 NA 
HETATM   17  H1  UNL     1     -12.724   6.225  72.919  1.00  0.00     0.000 HD 
HETATM   18  N   UNL     1     -12.187   6.945  72.438  1.00  0.00    -0.507 NA 
HETATM   19  H   UNL     1     -11.112   5.492  71.387  1.00  0.00     0.000 HD 
HETATM   20  H2  UNL     1     -12.334   7.940  72.607  1.00  0.00     0.000 HD 
ENDBRANCH   9  16
ENDBRANCH   3   6
TORSDOF 2
ENDMDL
MODEL      223
REMARK 921   NORMALIZED FREE ENERGY PREDICTED BY IDOCK:   -1.98 KCAL/MOL
REMARK 922        TOTAL FREE ENERGY PREDICTED BY IDOCK:   -2.35 KCAL/MOL
REMARK 923 INTER-LIGAND FREE ENERGY PREDICTED BY IDOCK:   -2.24 KCAL/MOL
REMARK 924 INTRA-LIGAND FREE ENERGY PREDICTED BY IDOCK:   -0.11 KCAL/MOL
REMARK 927      BINDING AFFINITY PREDICTED BY RF-SCORE:    0.00 PKD
ROOT
HETATM    1  N   UNL     1      -6.503  14.792  70.787  1.00  0.00    -0.121 NA 
HETATM    2  H2  UNL     1      -6.966  13.986  71.209  1.00  0.00     0.000 HD 
HETATM    3  N   UNL     1      -6.862  15.191  69.559  1.00  0.00    -0.165 NA 
HETATM    4  H1  UNL     1      -5.775  15.280  71.307  1.00  0.00     0.000 HD 
HETATM    5  H   UNL     1      -6.399  15.996  69.137  1.00  0.00     0.000 HD 
ENDROOT
BRANCH   3   6
HETATM    6  C   UNL     1      -7.802  14.561  68.889  1.00  0.00    -0.134 A  
HETATM    7  N   UNL     1      -7.934  13.227  69.238  1.00  0.00     0.414 NA 
HETATM    8  N   UNL     1      -8.644  12.349  68.488  1.00  0.00    -0.112 NA 
HETATM    9  C   UNL     1      -9.716  12.771  67.734  1.00  0.00    -0.207 A  
HETATM   10  C   UNL     1      -9.756  14.215  67.358  1.00  0.00    -0.232 A  
HETATM   11  C   UNL     1      -8.757  15.088  67.838  1.00  0.00    -0.155 A  
HETATM   12  C   UNL     1      -8.713  16.385  67.308  1.00  0.00    -0.198 A  
HETATM   13  C   UNL     1     -10.744  14.669  66.470  1.00  0.00    -0.312 A  
HETATM   14  C   UNL     1      -9.691  16.830  66.410  1.00  0.00    -0.309 A  
HETATM   15  C   UNL     1     -10.718  15.983  66.012  1.00  0.00    -0.271 A  
BRANCH   9  16
HETATM   16  N   UNL     1     -10.667  11.974  67.312  1.00  0.00    -0.225 NA 
HETATM   17  H1  UNL     1     -11.074  10.036  66.923  1.00  0.00     0.000 HD 
HETATM   18  N   UNL     1     -10.335  10.657  67.252  1.00  0.00    -0.208 NA 
HETATM   19  H   UNL     1     -11.590  12.316  67.046  1.00  0.00     0.000 HD 
HETATM   20  H2  UNL     1      -9.412  10.314  67.517  1.00  0.00     0.000 HD 
ENDBRANCH   9  16
ENDBRANCH   3   6
TORSDOF 2
ENDMDL
MODEL      224
REMARK 921   NORMALIZED FREE ENERGY PREDICTED BY IDOCK:   -1.89 KCAL/MOL
REMARK 922        TOTAL FREE ENERGY PREDICTED BY IDOCK:   -2.25 KCAL/MOL
REMARK 923 INTER-LIGAND FREE ENERGY PREDICTED BY IDOCK:   -2.13 KCAL/MOL
REMARK 924 INTRA-LIGAND FREE ENERGY PREDICTED BY IDOCK:   -0.12 KCAL/MOL
REMARK 927      BINDING AFFINITY PREDICTED BY RF-SCORE:    0.00 PKD
ROOT
HETATM    1  N   UNL     1     -11.090   8.042  69.004  1.00  0.00    -0.412 NA 
HETATM    2  H2  UNL     1     -11.658   7.427  68.422  1.00  0.00     0.000 HD 
HETATM    3  N   UNL     1      -9.859   8.385  68.599  1.00  0.00    -0.165 NA 
HETATM    4  H1  UNL     1     -11.469   8.389  69.886  1.00  0.00     0.000 HD 
HETATM    5  H   UNL     1      -9.291   9.000  69.182  1.00  0.00     0.000 HD 
ENDROOT
BRANCH   3   6
HETATM    6  C   UNL     1      -9.371   7.938  67.462  1.00  0.00    -0.143 A  
HETATM    7  N   UNL     1      -9.797   6.661  67.139  1.00  0.00    -0.142 NA 
HETATM    8  N   UNL     1      -9.206   5.926  66.164  1.00  0.00    -0.160 NA 
HETATM    9  C   UNL     1      -8.607   6.537  65.085  1.00  0.00     0.013 A  
HETATM   10  C   UNL     1      -8.177   7.955  65.259  1.00  0.00    -0.147 A  
HETATM   11  C   UNL     1      -8.457   8.625  66.469  1.00  0.00    -0.118 A  
HETATM   12  C   UNL     1      -7.868   9.881  66.672  1.00  0.00    -0.110 A  
HETATM   13  C   UNL     1      -7.432   8.579  64.246  1.00  0.00    -0.111 A  
HETATM   14  C   UNL     1      -7.112  10.494  65.665  1.00  0.00    -0.119 A  
HETATM   15  C   UNL     1      -6.917   9.856  64.446  1.00  0.00    -0.128 A  
BRANCH   9  16
HETATM   16  N   UNL     1      -8.373   5.932  63.946  1.00  0.00    -0.299 NA 
HETATM   17  H1  UNL     1      -7.776   4.171  63.162  1.00  0.00     0.000 HD 
HETATM   18  N   UNL     1      -7.958   4.642  64.048  1.00  0.00    -0.091 NA 
HETATM   19  H   UNL     1      -8.494   6.397  63.046  1.00  0.00     0.000 HD 
HETATM   20  H2  UNL     1      -7.837   4.177  64.948  1.00  0.00     0.000 HD 
ENDBRANCH   9  16
ENDBRANCH   3   6
TORSDOF 2
ENDMDL
MODEL      225
REMARK 921   NORMALIZED FREE ENERGY PREDICTED BY IDOCK:   -1.56 KCAL/MOL
REMARK 922        TOTAL FREE ENERGY PREDICTED BY IDOCK:   -1.88 KCAL/MOL
REMARK 923 INTER-LIGAND FREE ENERGY PREDICTED BY IDOCK:   -1.74 KCAL/MOL
REMARK 924 INTRA-LIGAND FREE ENERGY PREDICTED BY IDOCK:   -0.14 KCAL/MOL
REMARK 927      BINDING AFFINITY PREDICTED BY RF-SCORE:    0.00 PKD
ROOT
HETATM    1  N   UNL     1      -9.249   8.399  70.488  1.00  0.00    -0.147 NA 
HETATM    2  H2  UNL     1     -10.003   8.234  69.822  1.00  0.00     0.000 HD 
HETATM    3  N   UNL     1      -8.234   7.526  70.565  1.00  0.00    -0.117 NA 
HETATM    4  H1  UNL     1      -9.277   9.226  71.084  1.00  0.00     0.000 HD 
HETATM    5  H   UNL     1      -7.479   7.690  71.231  1.00  0.00     0.000 HD 
ENDROOT
BRANCH   3   6
HETATM    6  C   UNL     1      -8.197   6.460  69.795  1.00  0.00    -0.126 A  
HETATM    7  N   UNL     1      -7.703   6.708  68.526  1.00  0.00    -0.104 NA 
HETATM    8  N   UNL     1      -7.836   5.819  67.511  1.00  0.00    -0.101 NA 
HETATM    9  C   UNL     1      -7.900   4.466  67.761  1.00  0.00    -0.084 A  
HETATM   10  C   UNL     1      -8.332   4.049  69.127  1.00  0.00    -0.087 A  
HETATM   11  C   UNL     1      -8.582   5.029  70.110  1.00  0.00    -0.111 A  
HETATM   12  C   UNL     1      -9.172   4.615  71.312  1.00  0.00    -0.191 A  
HETATM   13  C   UNL     1      -8.555   2.689  69.393  1.00  0.00    -0.115 A  
HETATM   14  C   UNL     1      -9.409   3.258  71.568  1.00  0.00    -0.204 A  
HETATM   15  C   UNL     1      -9.078   2.295  70.622  1.00  0.00    -0.171 A  
BRANCH   9  16
HETATM   16  N   UNL     1      -7.637   3.548  66.864  1.00  0.00    -0.079 NA 
HETATM   17  H1  UNL     1      -8.235   2.848  65.068  1.00  0.00     0.000 HD 
HETATM   18  N   UNL     1      -8.439   3.562  65.767  1.00  0.00    -0.106 NA 
HETATM   19  H   UNL     1      -6.883   2.871  66.980  1.00  0.00     0.000 HD 
HETATM   20  H2  UNL     1      -9.192   4.239  65.650  1.00  0.00     0.000 HD 
ENDBRANCH   9  16
ENDBRANCH   3   6
TORSDOF 2
ENDMDL
MODEL      226
REMARK 921   NORMALIZED FREE ENERGY PREDICTED BY IDOCK:   -1.38 KCAL/MOL
REMARK 922        TOTAL FREE ENERGY PREDICTED BY IDOCK:   -1.67 KCAL/MOL
REMARK 923 INTER-LIGAND FREE ENERGY PREDICTED BY IDOCK:   -2.04 KCAL/MOL
REMARK 924 INTRA-LIGAND FREE ENERGY PREDICTED BY IDOCK:    0.37 KCAL/MOL
REMARK 927      BINDING AFFINITY PREDICTED BY RF-SCORE:    0.00 PKD
ROOT
HETATM    1  N   UNL     1      -9.249   8.399  70.488  1.00  0.00    -0.147 NA 
HETATM    2  H2  UNL     1     -10.003   8.234  69.822  1.00  0.00     0.000 HD 
HETATM    3  N   UNL     1      -8.234   7.526  70.565  1.00  0.00    -0.117 NA 
HETATM    4  H1  UNL     1      -9.277   9.226  71.084  1.00  0.00     0.000 HD 
HETATM    5  H   UNL     1      -7.479   7.690  71.231  1.00  0.00     0.000 HD 
ENDROOT
BRANCH   3   6
HETATM    6  C   UNL     1      -8.197   6.460  69.795  1.00  0.00    -0.126 A  
HETATM    7  N   UNL     1      -7.219   5.548  70.156  1.00  0.00    -0.065 NA 
HETATM    8  N   UNL     1      -6.842   4.531  69.342  1.00  0.00    -0.045 NA 
HETATM    9  C   UNL     1      -7.730   3.977  68.448  1.00  0.00    -0.066 A  
HETATM   10  C   UNL     1      -8.893   4.816  68.037  1.00  0.00    -0.115 A  
HETATM   11  C   UNL     1      -9.076   6.088  68.620  1.00  0.00    -0.116 A  
HETATM   12  C   UNL     1     -10.059   6.924  68.071  1.00  0.00    -0.193 A  
HETATM   13  C   UNL     1      -9.748   4.360  67.021  1.00  0.00    -0.232 A  
HETATM   14  C   UNL     1     -10.899   6.472  67.045  1.00  0.00    -0.465 A  
HETATM   15  C   UNL     1     -10.761   5.185  66.539  1.00  0.00    -0.262 A  
BRANCH   9  16
HETATM   16  N   UNL     1      -7.587   2.783  67.927  1.00  0.00    -0.056 NA 
HETATM   17  H1  UNL     1      -6.347   1.675  66.783  1.00  0.00     0.000 HD 
HETATM   18  N   UNL     1      -6.459   2.604  67.188  1.00  0.00    -0.035 NA 
HETATM   19  H   UNL     1      -8.272   2.041  68.065  1.00  0.00     0.000 HD 
HETATM   20  H2  UNL     1      -5.774   3.346  67.050  1.00  0.00     0.000 HD 
ENDBRANCH   9  16
ENDBRANCH   3   6
TORSDOF 2
ENDMDL
