MODEL        1
REMARK 921   NORMALIZED FREE ENERGY PREDICTED BY IDOCK:   -8.29 KCAL/MOL
REMARK 922        TOTAL FREE ENERGY PREDICTED BY IDOCK:  -12.56 KCAL/MOL
REMARK 923 INTER-LIGAND FREE ENERGY PREDICTED BY IDOCK:  -10.71 KCAL/MOL
REMARK 924 INTRA-LIGAND FREE ENERGY PREDICTED BY IDOCK:   -1.84 KCAL/MOL
REMARK 927      BINDING AFFINITY PREDICTED BY RF-SCORE:    0.00 PKD
ROOT
HETATM    1  C   UNL     1     -12.642  13.146  70.714  1.00  0.00    -0.260 C  
HETATM    2  C   UNL     1     -13.301  12.369  71.849  1.00  0.00    -0.450 C  
HETATM    3  C   UNL     1     -13.954  13.494  72.703  1.00  0.00    -0.388 C  
HETATM    4  C   UNL     1     -13.334  14.802  72.228  1.00  0.00    -0.391 C  
HETATM    5  N   UNL     1     -12.309  14.405  71.292  1.00  0.00    -0.341 N  
HETATM    6  C   UNL     1     -11.848  15.390  70.457  1.00  0.00    -0.339 C  
HETATM    7  O   UNL     1     -11.678  16.514  70.917  1.00  0.00    -0.212 OA 
HETATM    8  C   UNL     1     -11.482  14.926  68.996  1.00  0.00    -0.301 C  
HETATM    9  C   UNL     1     -11.742  12.623  69.525  1.00  0.00    -0.308 C  
HETATM   10  N   UNL     1     -12.112  13.566  68.528  1.00  0.00    -0.334 N  
HETATM   11  C   UNL     1     -11.640  12.819  67.441  1.00  0.00    -0.356 C  
HETATM   12  H   UNL     1     -11.654  10.985  68.575  1.00  0.00     0.000 HD 
HETATM   13  C   UNL     1     -10.136  12.533  67.711  1.00  0.00    -0.218 C  
HETATM   14  O   UNL     1     -12.350  12.440  66.528  1.00  0.00    -0.511 OA 
HETATM   15  O   UNL     1     -12.195  11.299  69.290  1.00  0.00    -0.322 OA 
HETATM   16  O   UNL     1     -10.306  12.675  69.257  1.00  0.00     0.092 OA 
HETATM   17  C   UNL     1      -9.993  13.622  65.190  1.00  0.00    -0.218 C  
HETATM   18  C   UNL     1      -8.213  14.353  66.786  1.00  0.00     0.080 C  
HETATM   19  C   UNL     1      -9.605  13.723  66.704  1.00  0.00    -0.295 C  
ENDROOT
BRANCH   8  20
HETATM   20  C   UNL     1     -11.624  16.158  68.083  1.00  0.00    -0.133 C  
BRANCH  20  21
HETATM   21  C   UNL     1     -10.249  16.807  67.802  1.00  0.00    -0.303 A  
HETATM   22  C   UNL     1      -9.112  18.431  66.414  1.00  0.00    -0.271 A  
HETATM   23  C   UNL     1      -8.316  18.027  68.633  1.00  0.00    -0.282 A  
HETATM   24  C   UNL     1      -9.276  17.034  68.803  1.00  0.00    -0.252 A  
HETATM   25  C   UNL     1      -8.254  18.759  67.465  1.00  0.00    -0.278 A  
HETATM   26  C   UNL     1     -10.098  17.463  66.576  1.00  0.00    -0.320 A  
ENDBRANCH  20  21
ENDBRANCH   8  20
BRANCH  13  27
HETATM   27  N   UNL     1      -9.655  11.157  67.418  1.00  0.00    -0.168 NA 
HETATM   28  H   UNL     1     -10.194  10.482  66.877  1.00  0.00     0.000 HD 
BRANCH  27  29
HETATM   29  C   UNL     1      -8.491  10.897  67.914  1.00  0.00    -0.129 C  
HETATM   30  H   UNL     1      -6.520  10.899  67.550  1.00  0.00     0.000 HD 
HETATM   31  O   UNL     1      -7.376  11.090  67.186  1.00  0.00    -0.103 OA 
BRANCH  29  32
HETATM   32  C   UNL     1      -8.135  10.326  69.287  1.00  0.00    -0.156 C  
HETATM   33  C   UNL     1      -9.288   9.733  70.094  1.00  0.00    -0.215 C  
HETATM   34  N   UNL     1      -8.747   8.987  71.247  1.00  0.00    -0.281 NA 
HETATM   35  C   UNL     1      -7.944   7.767  70.895  1.00  0.00    -0.097 C  
HETATM   36  C   UNL     1      -9.714   8.811  72.314  1.00  0.00    -0.212 C  
HETATM   37  C   UNL     1      -8.657   6.375  71.076  1.00  0.00    -0.131 C  
HETATM   38  C   UNL     1      -9.709   6.271  70.037  1.00  0.00    -0.193 A  
HETATM   39  C   UNL     1     -11.056   6.005  70.068  1.00  0.00    -0.381 A  
HETATM   40  N   UNL     1     -11.568   6.345  68.830  1.00  0.00    -0.507 NA 
HETATM   41  C   UNL     1     -10.561   6.799  67.999  1.00  0.00    -0.231 A  
HETATM   42  H   UNL     1     -12.551   6.272  68.567  1.00  0.00     0.000 HD 
HETATM   43  C   UNL     1     -10.573   7.378  66.730  1.00  0.00    -0.281 A  
HETATM   44  C   UNL     1      -9.340   7.829  66.224  1.00  0.00    -0.210 A  
HETATM   45  C   UNL     1      -8.175   7.827  67.002  1.00  0.00    -0.117 A  
HETATM   46  C   UNL     1      -8.236   7.418  68.338  1.00  0.00    -0.125 A  
HETATM   47  C   UNL     1      -7.287   7.887  69.441  1.00  0.00    -0.081 C  
HETATM   48  C   UNL     1      -9.404   6.751  68.746  1.00  0.00    -0.132 A  
HETATM   49  C   UNL     1      -6.897   9.372  69.276  1.00  0.00    -0.049 C  
ENDBRANCH  29  32
ENDBRANCH  27  29
ENDBRANCH  13  27
TORSDOF 5
ENDMDL
MODEL        2
REMARK 921   NORMALIZED FREE ENERGY PREDICTED BY IDOCK:   -8.00 KCAL/MOL
REMARK 922        TOTAL FREE ENERGY PREDICTED BY IDOCK:  -12.19 KCAL/MOL
REMARK 923 INTER-LIGAND FREE ENERGY PREDICTED BY IDOCK:  -10.79 KCAL/MOL
REMARK 924 INTRA-LIGAND FREE ENERGY PREDICTED BY IDOCK:   -1.40 KCAL/MOL
REMARK 927      BINDING AFFINITY PREDICTED BY RF-SCORE:    0.00 PKD
ROOT
HETATM    1  C   UNL     1     -12.012  13.636  69.798  1.00  0.00    -0.341 C  
HETATM    2  C   UNL     1     -13.066  13.888  70.870  1.00  0.00    -0.261 C  
HETATM    3  C   UNL     1     -13.069  15.440  70.992  1.00  0.00    -0.565 C  
HETATM    4  C   UNL     1     -11.810  15.924  70.285  1.00  0.00    -0.327 C  
HETATM    5  N   UNL     1     -11.096  14.718  69.939  1.00  0.00    -0.253 N  
HETATM    6  C   UNL     1     -10.118  14.856  68.987  1.00  0.00    -0.237 C  
HETATM    7  O   UNL     1      -9.403  15.851  69.024  1.00  0.00    -0.213 OA 
HETATM    8  C   UNL     1      -9.954  13.638  67.999  1.00  0.00    -0.247 C  
HETATM    9  C   UNL     1     -11.453  12.269  69.237  1.00  0.00    -0.292 C  
HETATM   10  N   UNL     1     -11.182  12.665  67.899  1.00  0.00    -0.248 N  
HETATM   11  C   UNL     1     -11.110  11.368  67.376  1.00  0.00    -0.289 C  
HETATM   12  H   UNL     1     -12.193  10.534  69.045  1.00  0.00     0.000 HD 
HETATM   13  C   UNL     1     -10.021  10.614  68.192  1.00  0.00    -0.158 C  
HETATM   14  O   UNL     1     -11.843  10.956  66.497  1.00  0.00     0.132 OA 
HETATM   15  O   UNL     1     -12.529  11.356  69.382  1.00  0.00    -0.213 OA 
HETATM   16  O   UNL     1     -10.200  11.543  69.435  1.00  0.00    -0.014 OA 
HETATM   17  C   UNL     1      -9.133  10.159  65.630  1.00  0.00    -0.216 C  
HETATM   18  C   UNL     1      -7.359  10.691  67.311  1.00  0.00    -0.092 C  
HETATM   19  C   UNL     1      -8.862  10.792  67.036  1.00  0.00    -0.137 C  
ENDROOT
BRANCH   8  20
HETATM   20  C   UNL     1      -9.343  14.192  66.699  1.00  0.00    -0.299 C  
BRANCH  20  21
HETATM   21  C   UNL     1     -10.346  14.098  65.526  1.00  0.00    -0.368 A  
HETATM   22  C   UNL     1     -11.049  12.703  63.676  1.00  0.00    -0.496 A  
HETATM   23  C   UNL     1     -12.652  14.115  64.754  1.00  0.00    -0.326 A  
HETATM   24  C   UNL     1     -11.654  14.632  65.574  1.00  0.00    -0.335 A  
HETATM   25  C   UNL     1     -12.371  13.123  63.837  1.00  0.00    -0.439 A  
HETATM   26  C   UNL     1     -10.044  13.186  64.509  1.00  0.00    -0.244 A  
ENDBRANCH  20  21
ENDBRANCH   8  20
BRANCH  13  27
HETATM   27  N   UNL     1     -10.338   9.220  68.600  1.00  0.00    -0.200 NA 
HETATM   28  H   UNL     1     -11.186   8.733  68.310  1.00  0.00     0.000 HD 
BRANCH  27  29
HETATM   29  C   UNL     1      -9.439   8.682  69.355  1.00  0.00    -0.161 C  
HETATM   30  H   UNL     1      -8.197   8.994  70.897  1.00  0.00     0.000 HD 
HETATM   31  O   UNL     1      -8.858   9.389  70.341  1.00  0.00    -0.217 OA 
BRANCH  29  32
HETATM   32  C   UNL     1      -8.846   7.273  69.293  1.00  0.00    -0.136 C  
HETATM   33  C   UNL     1      -8.184   6.761  70.571  1.00  0.00    -0.117 C  
HETATM   34  N   UNL     1      -7.919   5.315  70.438  1.00  0.00    -0.089 NA 
HETATM   35  C   UNL     1      -9.143   4.450  70.346  1.00  0.00    -0.106 C  
HETATM   36  C   UNL     1      -6.886   4.842  71.342  1.00  0.00    -0.039 C  
HETATM   37  C   UNL     1      -9.551   3.660  71.645  1.00  0.00    -0.226 C  
HETATM   38  C   UNL     1     -10.036   4.649  72.637  1.00  0.00    -0.224 A  
HETATM   39  C   UNL     1      -9.709   4.932  73.940  1.00  0.00    -0.138 A  
HETATM   40  N   UNL     1     -10.276   6.154  74.247  1.00  0.00    -0.304 NA 
HETATM   41  C   UNL     1     -10.986   6.643  73.168  1.00  0.00    -0.231 A  
HETATM   42  H   UNL     1     -10.184   6.629  75.146  1.00  0.00     0.000 HD 
HETATM   43  C   UNL     1     -11.612   7.865  72.923  1.00  0.00    -0.303 A  
HETATM   44  C   UNL     1     -12.156   8.058  71.640  1.00  0.00    -0.339 A  
HETATM   45  C   UNL     1     -11.964   7.130  70.608  1.00  0.00    -0.312 A  
HETATM   46  C   UNL     1     -11.167   6.002  70.831  1.00  0.00    -0.335 A  
HETATM   47  C   UNL     1     -10.393   5.250  69.748  1.00  0.00    -0.369 C  
HETATM   48  C   UNL     1     -10.842   5.707  72.166  1.00  0.00    -0.300 A  
HETATM   49  C   UNL     1      -9.811   6.206  68.683  1.00  0.00    -0.160 C  
ENDBRANCH  29  32
ENDBRANCH  27  29
ENDBRANCH  13  27
TORSDOF 5
ENDMDL
MODEL        3
REMARK 921   NORMALIZED FREE ENERGY PREDICTED BY IDOCK:   -7.77 KCAL/MOL
REMARK 922        TOTAL FREE ENERGY PREDICTED BY IDOCK:  -11.89 KCAL/MOL
REMARK 923 INTER-LIGAND FREE ENERGY PREDICTED BY IDOCK:  -10.06 KCAL/MOL
REMARK 924 INTRA-LIGAND FREE ENERGY PREDICTED BY IDOCK:   -1.83 KCAL/MOL
REMARK 927      BINDING AFFINITY PREDICTED BY RF-SCORE:    0.00 PKD
ROOT
HETATM    1  C   UNL     1      -9.612   4.915  66.801  1.00  0.00    -0.161 C  
HETATM    2  C   UNL     1      -9.977   4.231  65.489  1.00  0.00    -0.233 C  
HETATM    3  C   UNL     1      -9.189   2.892  65.567  1.00  0.00    -0.123 C  
HETATM    4  C   UNL     1      -8.178   3.060  66.693  1.00  0.00    -0.090 C  
HETATM    5  N   UNL     1      -8.301   4.441  67.096  1.00  0.00    -0.101 N  
HETATM    6  C   UNL     1      -7.768   4.756  68.320  1.00  0.00    -0.081 C  
HETATM    7  O   UNL     1      -6.697   4.250  68.638  1.00  0.00    -0.044 OA 
HETATM    8  C   UNL     1      -8.559   5.839  69.148  1.00  0.00    -0.110 C  
HETATM    9  C   UNL     1     -10.012   6.348  67.336  1.00  0.00    -0.138 C  
HETATM   10  N   UNL     1     -10.055   6.067  68.728  1.00  0.00    -0.155 N  
HETATM   11  C   UNL     1     -10.801   7.199  69.080  1.00  0.00    -0.162 C  
HETATM   12  H   UNL     1     -11.513   7.473  67.063  1.00  0.00     0.000 HD 
HETATM   13  C   UNL     1     -10.010   8.436  68.568  1.00  0.00    -0.187 C  
HETATM   14  O   UNL     1     -11.890   7.144  69.621  1.00  0.00     0.070 OA 
HETATM   15  O   UNL     1     -11.272   6.612  66.742  1.00  0.00    -0.333 OA 
HETATM   16  O   UNL     1      -9.284   7.609  67.459  1.00  0.00    -0.131 OA 
HETATM   17  C   UNL     1     -10.381   9.135  71.201  1.00  0.00    -0.387 C  
HETATM   18  C   UNL     1      -8.123   9.644  70.255  1.00  0.00    -0.206 C  
HETATM   19  C   UNL     1      -9.379   8.795  70.046  1.00  0.00    -0.175 C  
ENDROOT
BRANCH   8  20
HETATM   20  C   UNL     1      -8.238   5.593  70.634  1.00  0.00    -0.118 C  
BRANCH  20  21
HETATM   21  C   UNL     1      -9.414   4.890  71.350  1.00  0.00    -0.212 A  
HETATM   22  C   UNL     1     -10.161   2.764  72.235  1.00  0.00    -0.225 A  
HETATM   23  C   UNL     1     -10.936   4.790  73.244  1.00  0.00    -0.390 A  
HETATM   24  C   UNL     1     -10.253   5.534  72.287  1.00  0.00    -0.244 A  
HETATM   25  C   UNL     1     -10.861   3.412  73.255  1.00  0.00    -0.287 A  
HETATM   26  C   UNL     1      -9.446   3.492  71.289  1.00  0.00    -0.229 A  
ENDBRANCH  20  21
ENDBRANCH   8  20
BRANCH  13  27
HETATM   27  N   UNL     1     -10.802   9.508  67.909  1.00  0.00    -0.444 NA 
HETATM   28  H   UNL     1     -11.757   9.373  67.579  1.00  0.00     0.000 HD 
BRANCH  27  29
HETATM   29  C   UNL     1     -10.167  10.627  67.794  1.00  0.00    -0.180 C  
HETATM   30  H   UNL     1      -8.814  11.638  66.716  1.00  0.00     0.000 HD 
HETATM   31  O   UNL     1      -9.281  10.815  66.801  1.00  0.00    -0.155 OA 
BRANCH  29  32
HETATM   32  C   UNL     1     -10.229  11.866  68.691  1.00  0.00    -0.202 C  
HETATM   33  C   UNL     1      -9.325  13.032  68.296  1.00  0.00    -0.199 C  
HETATM   34  N   UNL     1      -9.700  14.227  69.077  1.00  0.00    -0.102 NA 
HETATM   35  C   UNL     1     -11.069  14.773  68.786  1.00  0.00    -0.265 C  
HETATM   36  C   UNL     1      -8.638  15.214  69.151  1.00  0.00    -0.218 C  
HETATM   37  C   UNL     1     -11.140  16.061  67.884  1.00  0.00    -0.307 C  
HETATM   38  C   UNL     1     -10.747  15.668  66.510  1.00  0.00    -0.293 A  
HETATM   39  C   UNL     1      -9.814  16.130  65.616  1.00  0.00    -0.255 A  
HETATM   40  N   UNL     1      -9.695  15.180  64.620  1.00  0.00    -0.276 NA 
HETATM   41  C   UNL     1     -10.562  14.129  64.849  1.00  0.00    -0.430 A  
HETATM   42  H   UNL     1      -9.057  15.245  63.826  1.00  0.00     0.000 HD 
HETATM   43  C   UNL     1     -10.729  12.889  64.232  1.00  0.00    -0.430 A  
HETATM   44  C   UNL     1     -11.656  12.006  64.815  1.00  0.00    -0.344 A  
HETATM   45  C   UNL     1     -12.284  12.292  66.034  1.00  0.00    -0.050 A  
HETATM   46  C   UNL     1     -11.952  13.460  66.727  1.00  0.00    -0.447 A  
HETATM   47  C   UNL     1     -12.057  13.639  68.242  1.00  0.00    -0.306 C  
HETATM   48  C   UNL     1     -11.220  14.431  66.022  1.00  0.00    -0.333 A  
HETATM   49  C   UNL     1     -11.681  12.349  69.004  1.00  0.00    -0.372 C  
ENDBRANCH  29  32
ENDBRANCH  27  29
ENDBRANCH  13  27
TORSDOF 5
ENDMDL
MODEL        4
REMARK 921   NORMALIZED FREE ENERGY PREDICTED BY IDOCK:   -7.47 KCAL/MOL
REMARK 922        TOTAL FREE ENERGY PREDICTED BY IDOCK:  -11.49 KCAL/MOL
REMARK 923 INTER-LIGAND FREE ENERGY PREDICTED BY IDOCK:  -10.43 KCAL/MOL
REMARK 924 INTRA-LIGAND FREE ENERGY PREDICTED BY IDOCK:   -1.06 KCAL/MOL
REMARK 927      BINDING AFFINITY PREDICTED BY RF-SCORE:    0.00 PKD
ROOT
HETATM    1  C   UNL     1     -11.850  14.035  70.049  1.00  0.00    -0.320 C  
HETATM    2  C   UNL     1     -12.720  14.074  71.300  1.00  0.00    -0.439 C  
HETATM    3  C   UNL     1     -12.560  15.544  71.784  1.00  0.00    -0.480 C  
HETATM    4  C   UNL     1     -11.368  16.114  71.027  1.00  0.00    -0.338 C  
HETATM    5  N   UNL     1     -10.825  14.992  70.299  1.00  0.00    -0.212 N  
HETATM    6  C   UNL     1      -9.976  15.303  69.268  1.00  0.00    -0.251 C  
HETATM    7  O   UNL     1      -9.171  16.215  69.428  1.00  0.00    -0.248 OA 
HETATM    8  C   UNL     1     -10.063  14.362  68.007  1.00  0.00    -0.232 C  
HETATM    9  C   UNL     1     -11.504  12.818  69.101  1.00  0.00    -0.306 C  
HETATM   10  N   UNL     1     -11.381  13.518  67.869  1.00  0.00    -0.273 N  
HETATM   11  C   UNL     1     -11.503  12.389  67.049  1.00  0.00    -0.358 C  
HETATM   12  H   UNL     1     -12.424  11.232  68.620  1.00  0.00     0.000 HD 
HETATM   13  C   UNL     1     -10.390  11.393  67.485  1.00  0.00    -0.195 C  
HETATM   14  O   UNL     1     -12.384  12.253  66.221  1.00  0.00    -0.556 OA 
HETATM   15  O   UNL     1     -12.632  11.964  69.190  1.00  0.00     0.047 OA 
HETATM   16  O   UNL     1     -10.310  11.993  68.926  1.00  0.00    -0.188 OA 
HETATM   17  C   UNL     1      -9.903  11.537  64.783  1.00  0.00    -0.286 C  
HETATM   18  C   UNL     1      -7.877  11.530  66.248  1.00  0.00     0.046 C  
HETATM   19  C   UNL     1      -9.386  11.785  66.240  1.00  0.00    -0.235 C  
ENDROOT
BRANCH   8  20
HETATM   20  C   UNL     1      -9.584  15.184  66.796  1.00  0.00    -0.260 C  
BRANCH  20  21
HETATM   21  C   UNL     1      -8.049  15.367  66.817  1.00  0.00    -0.212 A  
HETATM   22  C   UNL     1      -6.287  17.026  66.771  1.00  0.00    -0.246 A  
HETATM   23  C   UNL     1      -5.921  14.961  67.922  1.00  0.00    -0.160 A  
HETATM   24  C   UNL     1      -7.172  14.506  67.516  1.00  0.00    -0.210 A  
HETATM   25  C   UNL     1      -5.489  16.231  67.595  1.00  0.00    -0.164 A  
HETATM   26  C   UNL     1      -7.554  16.600  66.382  1.00  0.00    -0.297 A  
ENDBRANCH  20  21
ENDBRANCH   8  20
BRANCH  13  27
HETATM   27  N   UNL     1     -10.780   9.963  67.595  1.00  0.00    -0.272 NA 
HETATM   28  H   UNL     1     -11.715   9.622  67.374  1.00  0.00     0.000 HD 
BRANCH  27  29
HETATM   29  C   UNL     1      -9.823   9.193  67.997  1.00  0.00    -0.168 C  
HETATM   30  H   UNL     1      -8.209   9.068  69.178  1.00  0.00     0.000 HD 
HETATM   31  O   UNL     1      -8.913   9.634  68.882  1.00  0.00    -0.135 OA 
BRANCH  29  32
HETATM   32  C   UNL     1      -9.501   7.758  67.575  1.00  0.00    -0.170 C  
HETATM   33  C   UNL     1      -8.382   7.062  68.347  1.00  0.00    -0.124 C  
HETATM   34  N   UNL     1      -8.384   5.623  68.017  1.00  0.00    -0.100 NA 
HETATM   35  C   UNL     1      -9.601   4.868  68.470  1.00  0.00    -0.152 C  
HETATM   36  C   UNL     1      -7.112   4.977  68.288  1.00  0.00    -0.062 C  
HETATM   37  C   UNL     1      -9.441   3.975  69.757  1.00  0.00    -0.265 C  
HETATM   38  C   UNL     1      -9.283   4.884  70.917  1.00  0.00    -0.196 A  
HETATM   39  C   UNL     1      -8.352   4.998  71.919  1.00  0.00    -0.120 A  
HETATM   40  N   UNL     1      -8.559   6.218  72.533  1.00  0.00    -0.121 NA 
HETATM   41  C   UNL     1      -9.629   6.874  71.955  1.00  0.00    -0.142 A  
HETATM   42  H   UNL     1      -8.000   6.584  73.304  1.00  0.00     0.000 HD 
HETATM   43  C   UNL     1     -10.147   8.160  72.114  1.00  0.00    -0.320 A  
HETATM   44  C   UNL     1     -11.202   8.532  71.261  1.00  0.00    -0.321 A  
HETATM   45  C   UNL     1     -11.628   7.710  70.209  1.00  0.00    -0.079 A  
HETATM   46  C   UNL     1     -10.961   6.507  69.956  1.00  0.00    -0.388 A  
HETATM   47  C   UNL     1     -10.880   5.821  68.592  1.00  0.00    -0.270 C  
HETATM   48  C   UNL     1     -10.084   6.045  70.952  1.00  0.00    -0.246 A  
HETATM   49  C   UNL     1     -10.758   6.841  67.438  1.00  0.00    -0.405 C  
ENDBRANCH  29  32
ENDBRANCH  27  29
ENDBRANCH  13  27
TORSDOF 5
ENDMDL
MODEL        5
REMARK 921   NORMALIZED FREE ENERGY PREDICTED BY IDOCK:   -7.42 KCAL/MOL
REMARK 922        TOTAL FREE ENERGY PREDICTED BY IDOCK:  -11.44 KCAL/MOL
REMARK 923 INTER-LIGAND FREE ENERGY PREDICTED BY IDOCK:  -10.23 KCAL/MOL
REMARK 924 INTRA-LIGAND FREE ENERGY PREDICTED BY IDOCK:   -1.21 KCAL/MOL
REMARK 927      BINDING AFFINITY PREDICTED BY RF-SCORE:    0.00 PKD
ROOT
HETATM    1  C   UNL     1     -12.601  12.986  70.648  1.00  0.00    -0.193 C  
HETATM    2  C   UNL     1     -13.346  12.266  71.766  1.00  0.00    -0.353 C  
HETATM    3  C   UNL     1     -13.981  13.439  72.568  1.00  0.00    -0.519 C  
HETATM    4  C   UNL     1     -13.279  14.705  72.097  1.00  0.00    -0.363 C  
HETATM    5  N   UNL     1     -12.233  14.240  71.216  1.00  0.00    -0.347 N  
HETATM    6  C   UNL     1     -11.690  15.184  70.384  1.00  0.00    -0.293 C  
HETATM    7  O   UNL     1     -11.486  16.309  70.829  1.00  0.00    -0.401 OA 
HETATM    8  C   UNL     1     -11.282  14.673  68.949  1.00  0.00    -0.267 C  
HETATM    9  C   UNL     1     -11.676  12.396  69.511  1.00  0.00    -0.322 C  
HETATM   10  N   UNL     1     -11.956  13.334  68.480  1.00  0.00    -0.340 N  
HETATM   11  C   UNL     1     -11.473  12.543  67.430  1.00  0.00    -0.341 C  
HETATM   12  H   UNL     1     -11.625  10.736  68.597  1.00  0.00     0.000 HD 
HETATM   13  C   UNL     1      -9.997  12.192  67.773  1.00  0.00    -0.198 C  
HETATM   14  O   UNL     1     -12.159  12.179  66.493  1.00  0.00    -0.627 OA 
HETATM   15  O   UNL     1     -12.181  11.091  69.281  1.00  0.00    -0.369 OA 
HETATM   16  O   UNL     1     -10.229  12.375  69.307  1.00  0.00     0.138 OA 
HETATM   17  C   UNL     1      -9.692  13.219  65.240  1.00  0.00     0.008 C  
HETATM   18  C   UNL     1      -7.950  13.899  66.901  1.00  0.00     0.190 C  
HETATM   19  C   UNL     1      -9.366  13.334  66.768  1.00  0.00    -0.254 C  
ENDROOT
BRANCH   8  20
HETATM   20  C   UNL     1     -11.324  15.890  68.007  1.00  0.00    -0.284 C  
BRANCH  20  21
HETATM   21  C   UNL     1     -10.241  16.926  68.385  1.00  0.00    -0.322 A  
HETATM   22  C   UNL     1      -7.849  17.273  68.533  1.00  0.00    -0.266 A  
HETATM   23  C   UNL     1      -9.276  19.136  68.071  1.00  0.00    -0.364 A  
HETATM   24  C   UNL     1     -10.395  18.319  68.197  1.00  0.00    -0.393 A  
HETATM   25  C   UNL     1      -8.003  18.618  68.192  1.00  0.00    -0.312 A  
HETATM   26  C   UNL     1      -8.955  16.433  68.633  1.00  0.00    -0.233 A  
ENDBRANCH  20  21
ENDBRANCH   8  20
BRANCH  13  27
HETATM   27  N   UNL     1      -9.571  10.789  67.529  1.00  0.00    -0.158 NA 
HETATM   28  H   UNL     1      -9.846  10.258  66.703  1.00  0.00     0.000 HD 
BRANCH  27  29
HETATM   29  C   UNL     1      -8.819  10.304  68.460  1.00  0.00    -0.127 C  
HETATM   30  H   UNL     1      -6.998  10.374  69.296  1.00  0.00     0.000 HD 
HETATM   31  O   UNL     1      -7.552  10.730  68.611  1.00  0.00    -0.092 OA 
BRANCH  29  32
HETATM   32  C   UNL     1      -9.136   9.214  69.485  1.00  0.00    -0.155 C  
HETATM   33  C   UNL     1     -10.229   8.219  69.098  1.00  0.00    -0.218 C  
HETATM   34  N   UNL     1     -10.221   7.089  70.048  1.00  0.00    -0.191 NA 
HETATM   35  C   UNL     1      -8.986   6.236  70.009  1.00  0.00    -0.149 C  
HETATM   36  C   UNL     1     -11.479   6.366  70.080  1.00  0.00    -0.417 C  
HETATM   37  C   UNL     1      -9.105   4.851  69.269  1.00  0.00    -0.145 C  
HETATM   38  C   UNL     1      -9.244   5.128  67.820  1.00  0.00    -0.125 A  
HETATM   39  C   UNL     1     -10.153   4.753  66.861  1.00  0.00    -0.210 A  
HETATM   40  N   UNL     1      -9.944   5.564  65.762  1.00  0.00    -0.380 NA 
HETATM   41  C   UNL     1      -8.894   6.432  65.994  1.00  0.00    -0.150 A  
HETATM   42  H   UNL     1     -10.487   5.526  64.899  1.00  0.00     0.000 HD 
HETATM   43  C   UNL     1      -8.386   7.514  65.275  1.00  0.00    -0.112 A  
HETATM   44  C   UNL     1      -7.355   8.255  65.882  1.00  0.00    -0.076 A  
HETATM   45  C   UNL     1      -6.946   8.012  67.199  1.00  0.00    -0.075 A  
HETATM   46  C   UNL     1      -7.607   7.044  67.962  1.00  0.00    -0.111 A  
HETATM   47  C   UNL     1      -7.714   7.054  69.487  1.00  0.00    -0.107 C  
HETATM   48  C   UNL     1      -8.455   6.160  67.272  1.00  0.00    -0.104 A  
HETATM   49  C   UNL     1      -7.874   8.484  70.047  1.00  0.00    -0.102 C  
ENDBRANCH  29  32
ENDBRANCH  27  29
ENDBRANCH  13  27
TORSDOF 5
ENDMDL
MODEL        6
REMARK 921   NORMALIZED FREE ENERGY PREDICTED BY IDOCK:   -7.41 KCAL/MOL
REMARK 922        TOTAL FREE ENERGY PREDICTED BY IDOCK:  -11.43 KCAL/MOL
REMARK 923 INTER-LIGAND FREE ENERGY PREDICTED BY IDOCK:  -10.83 KCAL/MOL
REMARK 924 INTRA-LIGAND FREE ENERGY PREDICTED BY IDOCK:   -0.60 KCAL/MOL
REMARK 927      BINDING AFFINITY PREDICTED BY RF-SCORE:    0.00 PKD
ROOT
HETATM    1  C   UNL     1      -7.983  16.482  68.060  1.00  0.00    -0.158 C  
HETATM    2  C   UNL     1      -6.591  17.095  68.157  1.00  0.00    -0.159 C  
HETATM    3  C   UNL     1      -6.878  18.513  68.729  1.00  0.00    -0.287 C  
HETATM    4  C   UNL     1      -8.376  18.739  68.572  1.00  0.00    -0.346 C  
HETATM    5  N   UNL     1      -8.845  17.593  67.830  1.00  0.00    -0.241 N  
HETATM    6  C   UNL     1     -10.198  17.370  67.867  1.00  0.00    -0.348 C  
HETATM    7  O   UNL     1     -10.951  18.336  67.798  1.00  0.00    -0.321 OA 
HETATM    8  C   UNL     1     -10.638  15.857  67.886  1.00  0.00    -0.300 C  
HETATM    9  C   UNL     1      -8.427  15.077  67.487  1.00  0.00    -0.174 C  
HETATM   10  N   UNL     1      -9.540  14.828  68.336  1.00  0.00    -0.207 N  
HETATM   11  C   UNL     1      -9.609  13.452  68.083  1.00  0.00    -0.222 C  
HETATM   12  H   UNL     1      -7.577  13.388  67.363  1.00  0.00     0.000 HD 
HETATM   13  C   UNL     1      -9.760  13.285  66.543  1.00  0.00    -0.273 C  
HETATM   14  O   UNL     1      -9.493  12.603  68.947  1.00  0.00     0.060 OA 
HETATM   15  O   UNL     1      -7.309  14.232  67.707  1.00  0.00    -0.139 OA 
HETATM   16  O   UNL     1      -9.085  14.663  66.250  1.00  0.00    -0.251 OA 
HETATM   17  C   UNL     1     -11.887  11.780  67.422  1.00  0.00    -0.210 C  
HETATM   18  C   UNL     1     -12.331  13.217  65.424  1.00  0.00    -0.528 C  
HETATM   19  C   UNL     1     -11.384  13.022  66.611  1.00  0.00    -0.366 C  
ENDROOT
BRANCH   8  20
HETATM   20  C   UNL     1     -12.023  15.799  68.557  1.00  0.00    -0.109 C  
BRANCH  20  21
HETATM   21  C   UNL     1     -11.929  15.208  69.982  1.00  0.00    -0.374 A  
HETATM   22  C   UNL     1     -11.897  15.791  72.331  1.00  0.00    -0.606 A  
HETATM   23  C   UNL     1     -12.798  13.679  71.661  1.00  0.00    -0.427 A  
HETATM   24  C   UNL     1     -12.459  13.946  70.339  1.00  0.00    -0.404 A  
HETATM   25  C   UNL     1     -12.564  14.608  72.655  1.00  0.00    -0.421 A  
HETATM   26  C   UNL     1     -11.578  16.090  71.010  1.00  0.00    -0.472 A  
ENDBRANCH  20  21
ENDBRANCH   8  20
BRANCH  13  27
HETATM   27  N   UNL     1      -8.944  12.219  65.905  1.00  0.00    -0.425 NA 
HETATM   28  H   UNL     1      -8.009  12.380  65.533  1.00  0.00     0.000 HD 
BRANCH  27  29
HETATM   29  C   UNL     1      -9.532  11.069  65.865  1.00  0.00    -0.214 C  
HETATM   30  H   UNL     1     -10.712   9.871  64.774  1.00  0.00     0.000 HD 
HETATM   31  O   UNL     1     -10.280  10.716  64.804  1.00  0.00    -0.325 OA 
BRANCH  29  32
HETATM   32  C   UNL     1      -9.553   9.961  66.920  1.00  0.00    -0.225 C  
HETATM   33  C   UNL     1     -10.142   8.622  66.483  1.00  0.00    -0.269 C  
HETATM   34  N   UNL     1      -9.840   7.598  67.503  1.00  0.00    -0.154 NA 
HETATM   35  C   UNL     1      -8.383   7.269  67.660  1.00  0.00    -0.117 C  
HETATM   36  C   UNL     1     -10.735   6.457  67.445  1.00  0.00    -0.336 C  
HETATM   37  C   UNL     1      -7.887   5.924  67.008  1.00  0.00    -0.102 C  
HETATM   38  C   UNL     1      -7.931   6.097  65.537  1.00  0.00    -0.117 A  
HETATM   39  C   UNL     1      -8.506   5.388  64.511  1.00  0.00    -0.117 A  
HETATM   40  N   UNL     1      -8.471   6.193  63.389  1.00  0.00    -0.328 NA 
HETATM   41  C   UNL     1      -7.855   7.397  63.675  1.00  0.00    -0.108 A  
HETATM   42  H   UNL     1      -8.847   5.936  62.476  1.00  0.00     0.000 HD 
HETATM   43  C   UNL     1      -7.695   8.574  62.945  1.00  0.00    -0.124 A  
HETATM   44  C   UNL     1      -7.097   9.660  63.610  1.00  0.00    -0.110 A  
HETATM   45  C   UNL     1      -6.800   9.618  64.979  1.00  0.00    -0.104 A  
HETATM   46  C   UNL     1      -7.149   8.489  65.728  1.00  0.00    -0.075 A  
HETATM   47  C   UNL     1      -7.447   8.492  67.227  1.00  0.00    -0.093 C  
HETATM   48  C   UNL     1      -7.515   7.338  65.010  1.00  0.00    -0.089 A  
HETATM   49  C   UNL     1      -8.194   9.771  67.667  1.00  0.00    -0.114 C  
ENDBRANCH  29  32
ENDBRANCH  27  29
ENDBRANCH  13  27
TORSDOF 5
ENDMDL
MODEL        7
REMARK 921   NORMALIZED FREE ENERGY PREDICTED BY IDOCK:   -7.20 KCAL/MOL
REMARK 922        TOTAL FREE ENERGY PREDICTED BY IDOCK:  -11.15 KCAL/MOL
REMARK 923 INTER-LIGAND FREE ENERGY PREDICTED BY IDOCK:   -9.44 KCAL/MOL
REMARK 924 INTRA-LIGAND FREE ENERGY PREDICTED BY IDOCK:   -1.71 KCAL/MOL
REMARK 927      BINDING AFFINITY PREDICTED BY RF-SCORE:    0.00 PKD
ROOT
HETATM    1  C   UNL     1     -11.705  13.500  69.678  1.00  0.00    -0.314 C  
HETATM    2  C   UNL     1     -12.652  13.631  70.866  1.00  0.00    -0.421 C  
HETATM    3  C   UNL     1     -13.032  15.139  70.840  1.00  0.00    -0.488 C  
HETATM    4  C   UNL     1     -12.030  15.814  69.913  1.00  0.00    -0.332 C  
HETATM    5  N   UNL     1     -11.081  14.778  69.580  1.00  0.00    -0.270 N  
HETATM    6  C   UNL     1     -10.290  15.021  68.486  1.00  0.00    -0.230 C  
HETATM    7  O   UNL     1      -9.850  16.154  68.323  1.00  0.00    -0.219 OA 
HETATM    8  C   UNL     1      -9.944  13.761  67.604  1.00  0.00    -0.238 C  
HETATM    9  C   UNL     1     -10.889  12.245  69.173  1.00  0.00    -0.099 C  
HETATM   10  N   UNL     1     -10.890  12.520  67.778  1.00  0.00    -0.218 N  
HETATM   11  C   UNL     1     -10.556  11.220  67.375  1.00  0.00    -0.224 C  
HETATM   12  H   UNL     1     -11.185  10.374  69.256  1.00  0.00     0.000 HD 
HETATM   13  C   UNL     1      -9.222  10.857  68.089  1.00  0.00    -0.158 C  
HETATM   14  O   UNL     1     -11.261  10.538  66.656  1.00  0.00    -0.093 OA 
HETATM   15  O   UNL     1     -11.676  11.129  69.561  1.00  0.00    -0.273 OA 
HETATM   16  O   UNL     1      -9.480  11.868  69.252  1.00  0.00     0.287 OA 
HETATM   17  C   UNL     1      -8.560  10.302  65.479  1.00  0.00    -0.173 C  
HETATM   18  C   UNL     1      -6.791  11.449  66.823  1.00  0.00    -0.132 C  
HETATM   19  C   UNL     1      -8.292  11.156  66.764  1.00  0.00    -0.152 C  
ENDROOT
BRANCH   8  20
HETATM   20  C   UNL     1      -9.652  14.273  66.182  1.00  0.00    -0.300 C  
BRANCH  20  21
HETATM   21  C   UNL     1     -10.742  13.811  65.188  1.00  0.00    -0.365 A  
HETATM   22  C   UNL     1     -11.229  12.205  63.443  1.00  0.00    -0.494 A  
HETATM   23  C   UNL     1     -13.013  13.030  64.806  1.00  0.00    -0.207 A  
HETATM   24  C   UNL     1     -12.127  13.877  65.464  1.00  0.00    -0.425 A  
HETATM   25  C   UNL     1     -12.569  12.162  63.829  1.00  0.00    -0.585 A  
HETATM   26  C   UNL     1     -10.322  13.023  64.111  1.00  0.00    -0.345 A  
ENDBRANCH  20  21
ENDBRANCH   8  20
BRANCH  13  27
HETATM   27  N   UNL     1      -9.126   9.491  68.669  1.00  0.00    -0.131 NA 
HETATM   28  H   UNL     1      -9.411   8.651  68.167  1.00  0.00     0.000 HD 
BRANCH  27  29
HETATM   29  C   UNL     1      -8.648   9.468  69.869  1.00  0.00    -0.204 C  
HETATM   30  H   UNL     1      -7.150  10.092  71.045  1.00  0.00     0.000 HD 
HETATM   31  O   UNL     1      -7.502  10.108  70.163  1.00  0.00    -0.165 OA 
BRANCH  29  32
HETATM   32  C   UNL     1      -9.186   8.749  71.107  1.00  0.00    -0.299 C  
HETATM   33  C   UNL     1     -10.203   7.637  70.855  1.00  0.00    -0.199 C  
HETATM   34  N   UNL     1     -10.408   6.870  72.099  1.00  0.00    -0.198 NA 
HETATM   35  C   UNL     1      -9.209   6.103  72.578  1.00  0.00    -0.137 C  
HETATM   36  C   UNL     1     -11.663   6.142  72.118  1.00  0.00    -0.309 C  
HETATM   37  C   UNL     1      -9.211   4.550  72.313  1.00  0.00    -0.157 C  
HETATM   38  C   UNL     1      -9.054   4.344  70.854  1.00  0.00    -0.186 A  
HETATM   39  C   UNL     1      -9.764   3.645  69.909  1.00  0.00    -0.096 A  
HETATM   40  N   UNL     1      -9.323   4.071  68.670  1.00  0.00    -0.151 NA 
HETATM   41  C   UNL     1      -8.321   5.012  68.810  1.00  0.00    -0.084 A  
HETATM   42  H   UNL     1      -9.686   3.737  67.777  1.00  0.00     0.000 HD 
HETATM   43  C   UNL     1      -7.657   5.829  67.895  1.00  0.00    -0.085 A  
HETATM   44  C   UNL     1      -6.750   6.768  68.420  1.00  0.00    -0.065 A  
HETATM   45  C   UNL     1      -6.615   6.975  69.799  1.00  0.00    -0.044 A  
HETATM   46  C   UNL     1      -7.435   6.274  70.689  1.00  0.00    -0.087 A  
HETATM   47  C   UNL     1      -7.840   6.765  72.078  1.00  0.00    -0.096 C  
HETATM   48  C   UNL     1      -8.149   5.181  70.168  1.00  0.00    -0.083 A  
HETATM   49  C   UNL     1      -8.076   8.291  72.107  1.00  0.00    -0.195 C  
ENDBRANCH  29  32
ENDBRANCH  27  29
ENDBRANCH  13  27
TORSDOF 5
ENDMDL
MODEL        8
REMARK 921   NORMALIZED FREE ENERGY PREDICTED BY IDOCK:   -7.18 KCAL/MOL
REMARK 922        TOTAL FREE ENERGY PREDICTED BY IDOCK:  -11.12 KCAL/MOL
REMARK 923 INTER-LIGAND FREE ENERGY PREDICTED BY IDOCK:   -9.29 KCAL/MOL
REMARK 924 INTRA-LIGAND FREE ENERGY PREDICTED BY IDOCK:   -1.83 KCAL/MOL
REMARK 927      BINDING AFFINITY PREDICTED BY RF-SCORE:    0.00 PKD
ROOT
HETATM    1  C   UNL     1      -9.504   4.983  66.446  1.00  0.00    -0.153 C  
HETATM    2  C   UNL     1     -10.195   4.285  65.281  1.00  0.00    -0.234 C  
HETATM    3  C   UNL     1      -9.388   2.961  65.144  1.00  0.00    -0.124 C  
HETATM    4  C   UNL     1      -8.115   3.154  65.956  1.00  0.00    -0.089 C  
HETATM    5  N   UNL     1      -8.153   4.535  66.378  1.00  0.00    -0.103 N  
HETATM    6  C   UNL     1      -7.316   4.867  67.412  1.00  0.00    -0.078 C  
HETATM    7  O   UNL     1      -6.189   4.383  67.430  1.00  0.00    -0.033 OA 
HETATM    8  C   UNL     1      -7.876   5.939  68.423  1.00  0.00    -0.105 C  
HETATM    9  C   UNL     1      -9.773   6.410  67.069  1.00  0.00    -0.149 C  
HETATM   10  N   UNL     1      -9.434   6.136  68.422  1.00  0.00    -0.119 N  
HETATM   11  C   UNL     1     -10.080   7.255  68.962  1.00  0.00    -0.186 C  
HETATM   12  H   UNL     1     -11.314   7.505  67.211  1.00  0.00     0.000 HD 
HETATM   13  C   UNL     1      -9.481   8.505  68.255  1.00  0.00    -0.134 C  
HETATM   14  O   UNL     1     -10.981   7.183  69.776  1.00  0.00    -0.244 OA 
HETATM   15  O   UNL     1     -11.152   6.647  66.836  1.00  0.00    -0.400 OA 
HETATM   16  O   UNL     1      -9.064   7.686  66.991  1.00  0.00    -0.126 OA 
HETATM   17  C   UNL     1      -9.142   9.210  70.891  1.00  0.00    -0.316 C  
HETATM   18  C   UNL     1      -7.233   9.757  69.371  1.00  0.00    -0.076 C  
HETATM   19  C   UNL     1      -8.483   8.884  69.509  1.00  0.00    -0.128 C  
ENDROOT
BRANCH   8  20
HETATM   20  C   UNL     1      -7.162   5.707  69.767  1.00  0.00    -0.069 C  
BRANCH  20  21
HETATM   21  C   UNL     1      -8.058   4.914  70.746  1.00  0.00    -0.087 A  
HETATM   22  C   UNL     1      -9.701   5.153  72.508  1.00  0.00    -0.181 A  
HETATM   23  C   UNL     1      -9.775   3.226  71.092  1.00  0.00    -0.212 A  
HETATM   24  C   UNL     1      -8.624   3.655  70.439  1.00  0.00    -0.109 A  
HETATM   25  C   UNL     1     -10.345   3.986  72.094  1.00  0.00    -0.155 A  
HETATM   26  C   UNL     1      -8.567   5.614  71.845  1.00  0.00    -0.131 A  
ENDBRANCH  20  21
ENDBRANCH   8  20
BRANCH  13  27
HETATM   27  N   UNL     1     -10.442   9.558  67.835  1.00  0.00    -0.228 NA 
HETATM   28  H   UNL     1     -11.429   9.373  67.656  1.00  0.00     0.000 HD 
BRANCH  27  29
HETATM   29  C   UNL     1      -9.910  10.729  67.716  1.00  0.00    -0.166 C  
HETATM   30  H   UNL     1      -8.686  11.867  66.610  1.00  0.00     0.000 HD 
HETATM   31  O   UNL     1      -9.077  11.006  66.698  1.00  0.00    -0.159 OA 
BRANCH  29  32
HETATM   32  C   UNL     1     -10.049  11.947  68.633  1.00  0.00    -0.186 C  
HETATM   33  C   UNL     1      -9.234  13.180  68.248  1.00  0.00    -0.194 C  
HETATM   34  N   UNL     1      -9.684  14.333  69.051  1.00  0.00    -0.102 NA 
HETATM   35  C   UNL     1     -11.090  14.785  68.783  1.00  0.00    -0.265 C  
HETATM   36  C   UNL     1      -8.693  15.391  69.131  1.00  0.00    -0.242 C  
HETATM   37  C   UNL     1     -11.262  16.079  67.901  1.00  0.00    -0.276 C  
HETATM   38  C   UNL     1     -10.857  15.735  66.517  1.00  0.00    -0.230 A  
HETATM   39  C   UNL     1      -9.968  16.276  65.622  1.00  0.00    -0.274 A  
HETATM   40  N   UNL     1      -9.794  15.351  64.610  1.00  0.00    -0.254 NA 
HETATM   41  C   UNL     1     -10.582  14.238  64.831  1.00  0.00    -0.431 A  
HETATM   42  H   UNL     1      -9.171  15.473  63.812  1.00  0.00     0.000 HD 
HETATM   43  C   UNL     1     -10.668  12.999  64.196  1.00  0.00    -0.429 A  
HETATM   44  C   UNL     1     -11.524  12.044  64.774  1.00  0.00    -0.357 A  
HETATM   45  C   UNL     1     -12.158  12.267  66.003  1.00  0.00    -0.229 A  
HETATM   46  C   UNL     1     -11.901  13.445  66.711  1.00  0.00    -0.452 A  
HETATM   47  C   UNL     1     -12.003  13.593  68.230  1.00  0.00    -0.385 C  
HETATM   48  C   UNL     1     -11.247  14.476  66.015  1.00  0.00    -0.337 A  
HETATM   49  C   UNL     1     -11.528  12.322  68.968  1.00  0.00    -0.349 C  
ENDBRANCH  29  32
ENDBRANCH  27  29
ENDBRANCH  13  27
TORSDOF 5
ENDMDL
MODEL        9
REMARK 921   NORMALIZED FREE ENERGY PREDICTED BY IDOCK:   -7.12 KCAL/MOL
REMARK 922        TOTAL FREE ENERGY PREDICTED BY IDOCK:  -11.05 KCAL/MOL
REMARK 923 INTER-LIGAND FREE ENERGY PREDICTED BY IDOCK:   -9.81 KCAL/MOL
REMARK 924 INTRA-LIGAND FREE ENERGY PREDICTED BY IDOCK:   -1.23 KCAL/MOL
REMARK 927      BINDING AFFINITY PREDICTED BY RF-SCORE:    0.00 PKD
ROOT
HETATM    1  C   UNL     1      -6.946  16.316  68.720  1.00  0.00    -0.159 C  
HETATM    2  C   UNL     1      -5.744  16.552  69.628  1.00  0.00    -0.182 C  
HETATM    3  C   UNL     1      -5.147  17.878  69.073  1.00  0.00    -0.169 C  
HETATM    4  C   UNL     1      -5.796  18.099  67.713  1.00  0.00    -0.154 C  
HETATM    5  N   UNL     1      -6.572  16.904  67.477  1.00  0.00    -0.134 N  
HETATM    6  C   UNL     1      -7.530  16.998  66.500  1.00  0.00    -0.292 C  
HETATM    7  O   UNL     1      -7.260  17.613  65.474  1.00  0.00    -0.406 OA 
HETATM    8  C   UNL     1      -8.858  16.194  66.771  1.00  0.00    -0.244 C  
HETATM    9  C   UNL     1      -7.958  15.104  68.683  1.00  0.00    -0.151 C  
HETATM   10  N   UNL     1      -9.128  15.796  68.266  1.00  0.00    -0.184 N  
HETATM   11  C   UNL     1     -10.032  14.802  68.659  1.00  0.00    -0.232 C  
HETATM   12  H   UNL     1      -8.602  13.898  69.997  1.00  0.00     0.000 HD 
HETATM   13  C   UNL     1      -9.608  13.495  67.930  1.00  0.00    -0.218 C  
HETATM   14  O   UNL     1     -10.915  14.981  69.478  1.00  0.00    -0.248 OA 
HETATM   15  O   UNL     1      -7.993  14.627  70.019  1.00  0.00     0.200 OA 
HETATM   16  O   UNL     1      -8.127  13.967  67.781  1.00  0.00    -0.143 OA 
HETATM   17  C   UNL     1     -12.263  13.625  67.224  1.00  0.00    -0.317 C  
HETATM   18  C   UNL     1     -10.694  12.928  65.406  1.00  0.00    -0.307 C  
HETATM   19  C   UNL     1     -10.766  13.628  66.765  1.00  0.00    -0.272 C  
ENDROOT
BRANCH   8  20
HETATM   20  C   UNL     1      -9.979  16.894  65.981  1.00  0.00    -0.313 C  
BRANCH  20  21
HETATM   21  C   UNL     1     -10.281  18.295  66.562  1.00  0.00    -0.409 A  
HETATM   22  C   UNL     1     -10.264  19.599  68.601  1.00  0.00    -0.498 A  
HETATM   23  C   UNL     1      -9.901  20.696  66.507  1.00  0.00    -0.205 A  
HETATM   24  C   UNL     1     -10.104  19.495  65.835  1.00  0.00    -0.444 A  
HETATM   25  C   UNL     1      -9.934  20.751  67.885  1.00  0.00    -0.147 A  
HETATM   26  C   UNL     1     -10.440  18.382  67.949  1.00  0.00    -0.416 A  
ENDBRANCH  20  21
ENDBRANCH   8  20
BRANCH  13  27
HETATM   27  N   UNL     1      -9.623  12.246  68.736  1.00  0.00    -0.406 NA 
HETATM   28  H   UNL     1     -10.282  12.080  69.496  1.00  0.00     0.000 HD 
BRANCH  27  29
HETATM   29  C   UNL     1      -8.723  11.389  68.382  1.00  0.00    -0.157 C  
HETATM   30  H   UNL     1      -6.886  10.690  68.774  1.00  0.00     0.000 HD 
HETATM   31  O   UNL     1      -7.548  11.320  69.033  1.00  0.00    -0.128 OA 
BRANCH  29  32
HETATM   32  C   UNL     1      -8.753  10.380  67.233  1.00  0.00    -0.125 C  
HETATM   33  C   UNL     1      -7.791   9.198  67.345  1.00  0.00    -0.099 C  
HETATM   34  N   UNL     1      -8.133   8.191  66.321  1.00  0.00    -0.103 NA 
HETATM   35  C   UNL     1      -9.471   7.531  66.501  1.00  0.00    -0.179 C  
HETATM   36  C   UNL     1      -7.032   7.296  66.015  1.00  0.00    -0.065 C  
HETATM   37  C   UNL     1      -9.467   6.072  67.093  1.00  0.00    -0.125 C  
HETATM   38  C   UNL     1      -9.059   6.168  68.515  1.00  0.00    -0.117 A  
HETATM   39  C   UNL     1      -8.086   5.561  69.271  1.00  0.00    -0.095 A  
HETATM   40  N   UNL     1      -7.986   6.271  70.452  1.00  0.00    -0.109 NA 
HETATM   41  C   UNL     1      -8.901   7.305  70.475  1.00  0.00    -0.153 A  
HETATM   42  H   UNL     1      -7.328   6.060  71.203  1.00  0.00     0.000 HD 
HETATM   43  C   UNL     1      -9.106   8.367  71.356  1.00  0.00    -0.240 A  
HETATM   44  C   UNL     1     -10.083   9.314  70.997  1.00  0.00    -0.373 A  
HETATM   45  C   UNL     1     -10.727   9.278  69.753  1.00  0.00    -0.245 A  
HETATM   46  C   UNL     1     -10.361   8.310  68.813  1.00  0.00    -0.223 A  
HETATM   47  C   UNL     1     -10.494   8.468  67.298  1.00  0.00    -0.366 C  
HETATM   48  C   UNL     1      -9.573   7.241  69.273  1.00  0.00    -0.156 A  
HETATM   49  C   UNL     1     -10.190   9.911  66.838  1.00  0.00    -0.302 C  
ENDBRANCH  29  32
ENDBRANCH  27  29
ENDBRANCH  13  27
TORSDOF 5
ENDMDL
MODEL       10
REMARK 921   NORMALIZED FREE ENERGY PREDICTED BY IDOCK:   -6.95 KCAL/MOL
REMARK 922        TOTAL FREE ENERGY PREDICTED BY IDOCK:  -10.82 KCAL/MOL
REMARK 923 INTER-LIGAND FREE ENERGY PREDICTED BY IDOCK:   -9.70 KCAL/MOL
REMARK 924 INTRA-LIGAND FREE ENERGY PREDICTED BY IDOCK:   -1.12 KCAL/MOL
REMARK 927      BINDING AFFINITY PREDICTED BY RF-SCORE:    0.00 PKD
ROOT
HETATM    1  C   UNL     1     -11.549  11.837  69.646  1.00  0.00    -0.323 C  
HETATM    2  C   UNL     1     -12.502  11.529  70.795  1.00  0.00    -0.444 C  
HETATM    3  C   UNL     1     -13.090  12.928  71.140  1.00  0.00    -0.170 C  
HETATM    4  C   UNL     1     -12.195  13.947  70.448  1.00  0.00    -0.368 C  
HETATM    5  N   UNL     1     -11.110  13.170  69.896  1.00  0.00     0.140 N  
HETATM    6  C   UNL     1     -10.364  13.790  68.927  1.00  0.00    -0.136 C  
HETATM    7  O   UNL     1     -10.088  14.976  69.071  1.00  0.00    -0.227 OA 
HETATM    8  C   UNL     1      -9.847  12.857  67.766  1.00  0.00    -0.221 C  
HETATM    9  C   UNL     1     -10.567  10.875  68.866  1.00  0.00    -0.210 C  
HETATM   10  N   UNL     1     -10.609  11.495  67.588  1.00  0.00    -0.191 N  
HETATM   11  C   UNL     1     -10.097  10.400  66.880  1.00  0.00    -0.219 C  
HETATM   12  H   UNL     1     -10.597   9.023  68.463  1.00  0.00     0.000 HD 
HETATM   13  C   UNL     1      -8.724  10.051  67.523  1.00  0.00    -0.125 C  
HETATM   14  O   UNL     1     -10.701   9.835  65.988  1.00  0.00     0.012 OA 
HETATM   15  O   UNL     1     -11.188   9.602  68.932  1.00  0.00    -0.115 OA 
HETATM   16  O   UNL     1      -9.118  10.687  68.895  1.00  0.00    -0.165 OA 
HETATM   17  C   UNL     1      -7.997  10.278  64.881  1.00  0.00    -0.146 C  
HETATM   18  C   UNL     1      -6.403  11.274  66.530  1.00  0.00    -0.119 C  
HETATM   19  C   UNL     1      -7.848  10.804  66.348  1.00  0.00    -0.148 C  
ENDROOT
BRANCH   8  20
HETATM   20  C   UNL     1      -9.634  13.750  66.530  1.00  0.00    -0.295 C  
BRANCH  20  21
HETATM   21  C   UNL     1     -10.713  13.485  65.456  1.00  0.00    -0.293 A  
HETATM   22  C   UNL     1     -11.263  12.089  63.556  1.00  0.00    -0.526 A  
HETATM   23  C   UNL     1     -13.026  12.966  64.915  1.00  0.00    -0.214 A  
HETATM   24  C   UNL     1     -12.097  13.662  65.681  1.00  0.00    -0.457 A  
HETATM   25  C   UNL     1     -12.619  12.145  63.882  1.00  0.00    -0.545 A  
HETATM   26  C   UNL     1     -10.317  12.754  64.331  1.00  0.00    -0.388 A  
ENDBRANCH  20  21
ENDBRANCH   8  20
BRANCH  13  27
HETATM   27  N   UNL     1      -8.436   8.609  67.740  1.00  0.00    -0.125 NA 
HETATM   28  H   UNL     1      -9.015   7.862  67.359  1.00  0.00     0.000 HD 
BRANCH  27  29
HETATM   29  C   UNL     1      -7.384   8.392  68.457  1.00  0.00    -0.093 C  
HETATM   30  H   UNL     1      -5.382   8.299  68.440  1.00  0.00     0.000 HD 
HETATM   31  O   UNL     1      -6.156   8.459  67.913  1.00  0.00    -0.046 OA 
BRANCH  29  32
HETATM   32  C   UNL     1      -7.288   8.004  69.934  1.00  0.00    -0.066 C  
HETATM   33  C   UNL     1      -8.492   8.357  70.806  1.00  0.00    -0.139 C  
HETATM   34  N   UNL     1      -8.365   7.681  72.112  1.00  0.00    -0.106 NA 
HETATM   35  C   UNL     1      -8.438   6.181  72.060  1.00  0.00    -0.121 C  
HETATM   36  C   UNL     1      -9.154   8.309  73.155  1.00  0.00    -0.235 C  
HETATM   37  C   UNL     1      -9.795   5.523  72.511  1.00  0.00    -0.188 C  
HETATM   38  C   UNL     1     -10.812   5.843  71.481  1.00  0.00    -0.325 A  
HETATM   39  C   UNL     1     -12.060   6.412  71.518  1.00  0.00    -0.231 A  
HETATM   40  N   UNL     1     -12.401   6.734  70.218  1.00  0.00    -0.561 NA 
HETATM   41  C   UNL     1     -11.400   6.351  69.346  1.00  0.00    -0.377 A  
HETATM   42  H   UNL     1     -13.271   7.190  69.941  1.00  0.00     0.000 HD 
HETATM   43  C   UNL     1     -11.200   6.566  67.983  1.00  0.00    -0.251 A  
HETATM   44  C   UNL     1      -9.985   6.114  67.437  1.00  0.00    -0.166 A  
HETATM   45  C   UNL     1      -8.960   5.596  68.241  1.00  0.00    -0.114 A  
HETATM   46  C   UNL     1      -9.117   5.569  69.630  1.00  0.00    -0.152 A  
HETATM   47  C   UNL     1      -7.970   5.611  70.641  1.00  0.00    -0.104 C  
HETATM   48  C   UNL     1     -10.411   5.793  70.129  1.00  0.00    -0.348 A  
HETATM   49  C   UNL     1      -6.821   6.532  70.174  1.00  0.00    -0.058 C  
ENDBRANCH  29  32
ENDBRANCH  27  29
ENDBRANCH  13  27
TORSDOF 5
ENDMDL
MODEL       11
REMARK 921   NORMALIZED FREE ENERGY PREDICTED BY IDOCK:   -6.93 KCAL/MOL
REMARK 922        TOTAL FREE ENERGY PREDICTED BY IDOCK:  -10.80 KCAL/MOL
REMARK 923 INTER-LIGAND FREE ENERGY PREDICTED BY IDOCK:   -9.43 KCAL/MOL
REMARK 924 INTRA-LIGAND FREE ENERGY PREDICTED BY IDOCK:   -1.37 KCAL/MOL
REMARK 927      BINDING AFFINITY PREDICTED BY RF-SCORE:    0.00 PKD
ROOT
HETATM    1  C   UNL     1      -6.892  16.012  68.384  1.00  0.00    -0.124 C  
HETATM    2  C   UNL     1      -5.697  16.176  69.316  1.00  0.00    -0.122 C  
HETATM    3  C   UNL     1      -5.242  17.638  69.038  1.00  0.00    -0.170 C  
HETATM    4  C   UNL     1      -5.941  18.064  67.754  1.00  0.00    -0.156 C  
HETATM    5  N   UNL     1      -6.606  16.872  67.284  1.00  0.00    -0.155 N  
HETATM    6  C   UNL     1      -7.591  17.067  66.351  1.00  0.00    -0.315 C  
HETATM    7  O   UNL     1      -7.406  17.900  65.470  1.00  0.00    -0.522 OA 
HETATM    8  C   UNL     1      -8.831  16.099  66.459  1.00  0.00    -0.296 C  
HETATM    9  C   UNL     1      -7.786  14.739  68.106  1.00  0.00    -0.122 C  
HETATM   10  N   UNL     1      -9.025  15.384  67.844  1.00  0.00    -0.172 N  
HETATM   11  C   UNL     1      -9.822  14.247  68.031  1.00  0.00    -0.224 C  
HETATM   12  H   UNL     1      -8.280  13.236  69.150  1.00  0.00     0.000 HD 
HETATM   13  C   UNL     1      -9.294  13.162  67.049  1.00  0.00    -0.238 C  
HETATM   14  O   UNL     1     -10.697  14.171  68.872  1.00  0.00    -0.251 OA 
HETATM   15  O   UNL     1      -7.743  14.002  69.317  1.00  0.00    -0.008 OA 
HETATM   16  O   UNL     1      -7.868  13.796  66.992  1.00  0.00    -0.071 OA 
HETATM   17  C   UNL     1     -11.965  13.172  66.396  1.00  0.00    -0.462 C  
HETATM   18  C   UNL     1     -10.381  13.013  64.468  1.00  0.00    -0.386 C  
HETATM   19  C   UNL     1     -10.487  13.414  65.941  1.00  0.00    -0.287 C  
ENDROOT
BRANCH   8  20
HETATM   20  C   UNL     1     -10.031  16.832  65.832  1.00  0.00    -0.299 C  
BRANCH  20  21
HETATM   21  C   UNL     1     -10.339  18.146  66.586  1.00  0.00    -0.387 A  
HETATM   22  C   UNL     1     -10.102  19.266  68.719  1.00  0.00    -0.477 A  
HETATM   23  C   UNL     1     -10.144  20.566  66.712  1.00  0.00    -0.359 A  
HETATM   24  C   UNL     1     -10.362  19.415  65.963  1.00  0.00    -0.584 A  
HETATM   25  C   UNL     1      -9.969  20.499  68.080  1.00  0.00    -0.286 A  
HETATM   26  C   UNL     1     -10.289  18.099  67.983  1.00  0.00    -0.405 A  
ENDBRANCH  20  21
ENDBRANCH   8  20
BRANCH  13  27
HETATM   27  N   UNL     1      -9.171  11.781  67.584  1.00  0.00    -0.176 NA 
HETATM   28  H   UNL     1      -9.814  11.390  68.272  1.00  0.00     0.000 HD 
BRANCH  27  29
HETATM   29  C   UNL     1      -8.173  11.121  67.096  1.00  0.00    -0.137 C  
HETATM   30  H   UNL     1      -7.398  10.322  65.429  1.00  0.00     0.000 HD 
HETATM   31  O   UNL     1      -8.132  10.807  65.789  1.00  0.00    -0.162 OA 
BRANCH  29  32
HETATM   32  C   UNL     1      -6.947  10.558  67.816  1.00  0.00    -0.078 C  
HETATM   33  C   UNL     1      -6.943  10.673  69.339  1.00  0.00    -0.106 C  
HETATM   34  N   UNL     1      -5.848   9.850  69.889  1.00  0.00    -0.041 NA 
HETATM   35  C   UNL     1      -6.000   8.370  69.682  1.00  0.00    -0.032 C  
HETATM   36  C   UNL     1      -5.449  10.256  71.224  1.00  0.00    -0.057 C  
HETATM   37  C   UNL     1      -6.472   7.526  70.925  1.00  0.00    -0.039 C  
HETATM   38  C   UNL     1      -7.889   7.872  71.190  1.00  0.00    -0.086 A  
HETATM   39  C   UNL     1      -8.573   8.305  72.298  1.00  0.00    -0.194 A  
HETATM   40  N   UNL     1      -9.806   8.755  71.867  1.00  0.00    -0.314 NA 
HETATM   41  C   UNL     1      -9.931   8.590  70.501  1.00  0.00    -0.188 A  
HETATM   42  H   UNL     1     -10.524   9.154  72.472  1.00  0.00     0.000 HD 
HETATM   43  C   UNL     1     -10.899   8.998  69.584  1.00  0.00    -0.196 A  
HETATM   44  C   UNL     1     -10.637   8.744  68.225  1.00  0.00    -0.194 A  
HETATM   45  C   UNL     1      -9.407   8.232  67.791  1.00  0.00    -0.153 A  
HETATM   46  C   UNL     1      -8.384   8.011  68.718  1.00  0.00    -0.127 A  
HETATM   47  C   UNL     1      -6.890   8.037  68.395  1.00  0.00    -0.068 C  
HETATM   48  C   UNL     1      -8.740   8.038  70.077  1.00  0.00    -0.135 A  
HETATM   49  C   UNL     1      -6.543   9.121  67.351  1.00  0.00    -0.065 C  
ENDBRANCH  29  32
ENDBRANCH  27  29
ENDBRANCH  13  27
TORSDOF 5
ENDMDL
MODEL       12
REMARK 921   NORMALIZED FREE ENERGY PREDICTED BY IDOCK:   -6.87 KCAL/MOL
REMARK 922        TOTAL FREE ENERGY PREDICTED BY IDOCK:  -10.72 KCAL/MOL
REMARK 923 INTER-LIGAND FREE ENERGY PREDICTED BY IDOCK:   -8.79 KCAL/MOL
REMARK 924 INTRA-LIGAND FREE ENERGY PREDICTED BY IDOCK:   -1.93 KCAL/MOL
REMARK 927      BINDING AFFINITY PREDICTED BY RF-SCORE:    0.00 PKD
ROOT
HETATM    1  C   UNL     1     -12.288  13.508  70.339  1.00  0.00    -0.327 C  
HETATM    2  C   UNL     1     -13.402  13.501  71.380  1.00  0.00    -0.296 C  
HETATM    3  C   UNL     1     -13.699  15.016  71.575  1.00  0.00    -0.553 C  
HETATM    4  C   UNL     1     -12.533  15.763  70.943  1.00  0.00    -0.402 C  
HETATM    5  N   UNL     1     -11.595  14.731  70.568  1.00  0.00    -0.280 N  
HETATM    6  C   UNL     1     -10.632  15.100  69.664  1.00  0.00    -0.263 C  
HETATM    7  O   UNL     1     -10.117  16.207  69.776  1.00  0.00    -0.245 OA 
HETATM    8  C   UNL     1     -10.213  13.989  68.626  1.00  0.00    -0.233 C  
HETATM    9  C   UNL     1     -11.465  12.300  69.736  1.00  0.00    -0.166 C  
HETATM   10  N   UNL     1     -11.234  12.812  68.431  1.00  0.00    -0.258 N  
HETATM   11  C   UNL     1     -10.904  11.581  67.850  1.00  0.00    -0.210 C  
HETATM   12  H   UNL     1     -11.861  10.471  69.432  1.00  0.00     0.000 HD 
HETATM   13  C   UNL     1      -9.718  10.999  68.671  1.00  0.00    -0.195 C  
HETATM   14  O   UNL     1     -11.521  11.089  66.923  1.00  0.00    -0.384 OA 
HETATM   15  O   UNL     1     -12.356  11.197  69.795  1.00  0.00    -0.303 OA 
HETATM   16  O   UNL     1     -10.105  11.809  69.949  1.00  0.00     0.857 OA 
HETATM   17  C   UNL     1      -8.683  10.856  66.127  1.00  0.00    -0.189 C  
HETATM   18  C   UNL     1      -7.093  11.616  67.902  1.00  0.00    -0.081 C  
HETATM   19  C   UNL     1      -8.579  11.452  67.572  1.00  0.00    -0.137 C  
ENDROOT
BRANCH   8  20
HETATM   20  C   UNL     1      -9.678  14.717  67.379  1.00  0.00    -0.218 C  
BRANCH  20  21
HETATM   21  C   UNL     1     -10.613  14.507  66.166  1.00  0.00    -0.308 A  
HETATM   22  C   UNL     1     -10.895  13.235  64.125  1.00  0.00    -0.369 A  
HETATM   23  C   UNL     1     -12.830  13.987  65.313  1.00  0.00    -0.418 A  
HETATM   24  C   UNL     1     -12.018  14.645  66.231  1.00  0.00    -0.262 A  
HETATM   25  C   UNL     1     -12.281  13.245  64.287  1.00  0.00    -0.454 A  
HETATM   26  C   UNL     1     -10.066  13.861  65.052  1.00  0.00    -0.319 A  
ENDBRANCH  20  21
ENDBRANCH   8  20
BRANCH  13  27
HETATM   27  N   UNL     1      -9.781   9.550  68.999  1.00  0.00    -0.165 NA 
HETATM   28  H   UNL     1     -10.080   8.840  68.331  1.00  0.00     0.000 HD 
BRANCH  27  29
HETATM   29  C   UNL     1      -9.421   9.275  70.209  1.00  0.00    -0.238 C  
HETATM   30  H   UNL     1     -10.070   8.973  72.081  1.00  0.00     0.000 HD 
HETATM   31  O   UNL     1     -10.334   9.175  71.191  1.00  0.00    -0.263 OA 
BRANCH  29  32
HETATM   32  C   UNL     1      -8.014   9.061  70.769  1.00  0.00    -0.172 C  
HETATM   33  C   UNL     1      -7.924   8.692  72.249  1.00  0.00    -0.008 C  
HETATM   34  N   UNL     1      -6.549   8.253  72.560  1.00  0.00    -0.082 NA 
HETATM   35  C   UNL     1      -6.120   6.980  71.888  1.00  0.00    -0.038 C  
HETATM   36  C   UNL     1      -6.228   8.352  73.972  1.00  0.00    -0.125 C  
HETATM   37  C   UNL     1      -6.110   5.680  72.775  1.00  0.00    -0.044 C  
HETATM   38  C   UNL     1      -7.519   5.327  73.069  1.00  0.00    -0.096 A  
HETATM   39  C   UNL     1      -8.219   5.082  74.224  1.00  0.00    -0.099 A  
HETATM   40  N   UNL     1      -9.562   5.107  73.901  1.00  0.00    -0.133 NA 
HETATM   41  C   UNL     1      -9.730   5.336  72.548  1.00  0.00    -0.150 A  
HETATM   42  H   UNL     1     -10.324   4.975  74.567  1.00  0.00     0.000 HD 
HETATM   43  C   UNL     1     -10.857   5.582  71.764  1.00  0.00    -0.277 A  
HETATM   44  C   UNL     1     -10.636   5.887  70.409  1.00  0.00    -0.353 A  
HETATM   45  C   UNL     1      -9.346   6.074  69.893  1.00  0.00    -0.165 A  
HETATM   46  C   UNL     1      -8.242   6.009  70.749  1.00  0.00    -0.125 A  
HETATM   47  C   UNL     1      -6.915   6.733  70.521  1.00  0.00    -0.063 C  
HETATM   48  C   UNL     1      -8.460   5.470  72.028  1.00  0.00    -0.127 A  
HETATM   49  C   UNL     1      -7.117   8.129  69.892  1.00  0.00    -0.059 C  
ENDBRANCH  29  32
ENDBRANCH  27  29
ENDBRANCH  13  27
TORSDOF 5
ENDMDL
MODEL       13
REMARK 921   NORMALIZED FREE ENERGY PREDICTED BY IDOCK:   -6.87 KCAL/MOL
REMARK 922        TOTAL FREE ENERGY PREDICTED BY IDOCK:  -10.72 KCAL/MOL
REMARK 923 INTER-LIGAND FREE ENERGY PREDICTED BY IDOCK:   -8.79 KCAL/MOL
REMARK 924 INTRA-LIGAND FREE ENERGY PREDICTED BY IDOCK:   -1.93 KCAL/MOL
REMARK 927      BINDING AFFINITY PREDICTED BY RF-SCORE:    0.00 PKD
ROOT
HETATM    1  C   UNL     1      -9.964  11.128  65.136  1.00  0.00    -0.272 C  
HETATM    2  C   UNL     1      -9.170  10.207  64.217  1.00  0.00    -0.312 C  
HETATM    3  C   UNL     1      -9.624  10.660  62.799  1.00  0.00    -0.333 C  
HETATM    4  C   UNL     1     -10.869  11.512  63.004  1.00  0.00    -0.018 C  
HETATM    5  N   UNL     1     -11.161  11.404  64.414  1.00  0.00    -0.264 N  
HETATM    6  C   UNL     1     -12.010  12.353  64.923  1.00  0.00    -0.398 C  
HETATM    7  O   UNL     1     -12.978  12.693  64.250  1.00  0.00    -0.730 OA 
HETATM    8  C   UNL     1     -11.694  12.831  66.391  1.00  0.00    -0.403 C  
HETATM    9  C   UNL     1     -10.036  11.158  66.714  1.00  0.00    -0.218 C  
HETATM   10  N   UNL     1     -10.238  12.552  66.906  1.00  0.00    -0.225 N  
HETATM   11  C   UNL     1      -9.871  12.566  68.258  1.00  0.00    -0.227 C  
HETATM   12  H   UNL     1      -8.815  10.693  68.088  1.00  0.00     0.000 HD 
HETATM   13  C   UNL     1     -10.793  11.546  68.985  1.00  0.00    -0.212 C  
HETATM   14  O   UNL     1      -8.946  13.224  68.697  1.00  0.00    -0.103 OA 
HETATM   15  O   UNL     1      -8.771  10.675  67.138  1.00  0.00    -0.130 OA 
HETATM   16  O   UNL     1     -11.045  10.725  67.680  1.00  0.00    -0.284 OA 
HETATM   17  C   UNL     1     -11.186  13.776  70.544  1.00  0.00     0.421 C  
HETATM   18  C   UNL     1     -13.234  12.430  70.047  1.00  0.00     1.337 C  
HETATM   19  C   UNL     1     -11.801  12.703  69.584  1.00  0.00    -0.379 C  
ENDROOT
BRANCH   8  20
HETATM   20  C   UNL     1     -12.269  14.252  66.537  1.00  0.00    -0.419 C  
BRANCH  20  21
HETATM   21  C   UNL     1     -11.142  15.308  66.582  1.00  0.00    -0.276 A  
HETATM   22  C   UNL     1      -9.780  16.637  68.080  1.00  0.00    -0.241 A  
HETATM   23  C   UNL     1      -8.885  15.970  65.964  1.00  0.00    -0.314 A  
HETATM   24  C   UNL     1     -10.098  15.375  65.631  1.00  0.00    -0.406 A  
HETATM   25  C   UNL     1      -8.701  16.562  67.197  1.00  0.00    -0.216 A  
HETATM   26  C   UNL     1     -10.991  16.020  67.777  1.00  0.00    -0.307 A  
ENDBRANCH  20  21
ENDBRANCH   8  20
BRANCH  13  27
HETATM   27  N   UNL     1     -10.146  10.653  69.982  1.00  0.00    -0.389 NA 
HETATM   28  H   UNL     1      -9.168  10.738  70.254  1.00  0.00     0.000 HD 
BRANCH  27  29
HETATM   29  C   UNL     1     -10.940   9.759  70.471  1.00  0.00    -0.321 C  
HETATM   30  H   UNL     1     -12.047   9.248  72.062  1.00  0.00     0.000 HD 
HETATM   31  O   UNL     1     -11.463   9.905  71.702  1.00  0.00    -0.329 OA 
BRANCH  29  32
HETATM   32  C   UNL     1     -11.397   8.436  69.855  1.00  0.00     0.062 C  
HETATM   33  C   UNL     1     -10.444   7.792  68.850  1.00  0.00    -0.194 C  
HETATM   34  N   UNL     1     -10.890   6.414  68.566  1.00  0.00    -0.289 NA 
HETATM   35  C   UNL     1     -10.813   5.468  69.730  1.00  0.00    -0.221 C  
HETATM   36  C   UNL     1     -10.379   5.900  67.308  1.00  0.00    -0.226 C  
HETATM   37  C   UNL     1      -9.611   4.451  69.737  1.00  0.00    -0.276 C  
HETATM   38  C   UNL     1      -8.371   5.226  69.982  1.00  0.00    -0.098 A  
HETATM   39  C   UNL     1      -7.168   5.330  69.329  1.00  0.00    -0.057 A  
HETATM   40  N   UNL     1      -6.516   6.433  69.847  1.00  0.00    -0.045 NA 
HETATM   41  C   UNL     1      -7.274   7.019  70.843  1.00  0.00    -0.072 A  
HETATM   42  H   UNL     1      -5.603   6.768  69.538  1.00  0.00     0.000 HD 
HETATM   43  C   UNL     1      -7.132   8.203  71.566  1.00  0.00    -0.075 A  
HETATM   44  C   UNL     1      -8.178   8.544  72.442  1.00  0.00    -0.156 A  
HETATM   45  C   UNL     1      -9.370   7.810  72.493  1.00  0.00    -0.234 A  
HETATM   46  C   UNL     1      -9.560   6.737  71.617  1.00  0.00    -0.163 A  
HETATM   47  C   UNL     1     -10.919   6.236  71.129  1.00  0.00    -0.336 C  
HETATM   48  C   UNL     1      -8.427   6.268  70.931  1.00  0.00    -0.131 A  
HETATM   49  C   UNL     1     -11.915   7.395  70.899  1.00  0.00    -0.308 C  
ENDBRANCH  29  32
ENDBRANCH  27  29
ENDBRANCH  13  27
TORSDOF 5
ENDMDL
MODEL       14
REMARK 921   NORMALIZED FREE ENERGY PREDICTED BY IDOCK:   -6.79 KCAL/MOL
REMARK 922        TOTAL FREE ENERGY PREDICTED BY IDOCK:  -10.62 KCAL/MOL
REMARK 923 INTER-LIGAND FREE ENERGY PREDICTED BY IDOCK:   -9.51 KCAL/MOL
REMARK 924 INTRA-LIGAND FREE ENERGY PREDICTED BY IDOCK:   -1.11 KCAL/MOL
REMARK 927      BINDING AFFINITY PREDICTED BY RF-SCORE:    0.00 PKD
ROOT
HETATM    1  C   UNL     1      -7.542   9.984  69.913  1.00  0.00    -0.170 C  
HETATM    2  C   UNL     1      -6.404   9.870  70.921  1.00  0.00    -0.056 C  
HETATM    3  C   UNL     1      -6.749   8.559  71.684  1.00  0.00    -0.079 C  
HETATM    4  C   UNL     1      -8.193   8.230  71.330  1.00  0.00    -0.131 C  
HETATM    5  N   UNL     1      -8.649   9.360  70.556  1.00  0.00    -0.221 N  
HETATM    6  C   UNL     1      -9.787   9.157  69.817  1.00  0.00    -0.181 C  
HETATM    7  O   UNL     1     -10.700   8.509  70.316  1.00  0.00    -0.223 OA 
HETATM    8  C   UNL     1      -9.830   9.888  68.421  1.00  0.00    -0.151 C  
HETATM    9  C   UNL     1      -7.850  11.127  68.866  1.00  0.00    -0.131 C  
HETATM   10  N   UNL     1      -8.443  10.342  67.840  1.00  0.00    -0.117 N  
HETATM   11  C   UNL     1      -8.296  11.296  66.825  1.00  0.00    -0.156 C  
HETATM   12  H   UNL     1      -6.764  12.355  67.913  1.00  0.00     0.000 HD 
HETATM   13  C   UNL     1      -9.008  12.589  67.317  1.00  0.00    -0.192 C  
HETATM   14  O   UNL     1      -7.657  11.103  65.808  1.00  0.00    -0.016 OA 
HETATM   15  O   UNL     1      -6.578  11.667  68.543  1.00  0.00    -0.055 OA 
HETATM   16  O   UNL     1      -8.836  12.205  68.821  1.00  0.00    -0.044 OA 
HETATM   17  C   UNL     1     -10.209  12.257  64.865  1.00  0.00    -0.307 C  
HETATM   18  C   UNL     1     -11.725  12.959  66.726  1.00  0.00    -0.445 C  
HETATM   19  C   UNL     1     -10.366  12.325  66.422  1.00  0.00    -0.250 C  
ENDROOT
BRANCH   8  20
HETATM   20  C   UNL     1     -10.779   9.079  67.517  1.00  0.00    -0.239 C  
BRANCH  20  21
HETATM   21  C   UNL     1     -10.177   7.699  67.168  1.00  0.00    -0.360 A  
HETATM   22  C   UNL     1     -10.730   5.368  66.822  1.00  0.00    -0.289 A  
HETATM   23  C   UNL     1      -8.881   6.321  65.640  1.00  0.00    -0.086 A  
HETATM   24  C   UNL     1      -9.069   7.528  66.307  1.00  0.00    -0.198 A  
HETATM   25  C   UNL     1      -9.729   5.253  65.856  1.00  0.00    -0.125 A  
HETATM   26  C   UNL     1     -10.952   6.576  67.476  1.00  0.00    -0.444 A  
ENDBRANCH  20  21
ENDBRANCH   8  20
BRANCH  13  27
HETATM   27  N   UNL     1      -8.299  13.874  67.077  1.00  0.00    -0.374 NA 
HETATM   28  H   UNL     1      -7.527  13.970  66.420  1.00  0.00     0.000 HD 
BRANCH  27  29
HETATM   29  C   UNL     1      -8.754  14.857  67.781  1.00  0.00    -0.167 C  
HETATM   30  H   UNL     1      -9.235  15.461  69.630  1.00  0.00     0.000 HD 
HETATM   31  O   UNL     1      -8.901  14.738  69.113  1.00  0.00    -0.163 OA 
BRANCH  29  32
HETATM   32  C   UNL     1      -9.227  16.235  67.316  1.00  0.00    -0.217 C  
HETATM   33  C   UNL     1      -9.306  17.321  68.388  1.00  0.00    -0.275 C  
HETATM   34  N   UNL     1      -9.503  18.633  67.742  1.00  0.00    -0.295 NA 
HETATM   35  C   UNL     1      -8.355  19.104  66.896  1.00  0.00    -0.285 C  
HETATM   36  C   UNL     1     -10.069  19.627  68.636  1.00  0.00    -0.447 C  
HETATM   37  C   UNL     1      -7.422  20.208  67.520  1.00  0.00    -0.332 C  
HETATM   38  C   UNL     1      -6.658  19.578  68.623  1.00  0.00    -0.318 A  
HETATM   39  C   UNL     1      -6.473  19.882  69.948  1.00  0.00    -0.337 A  
HETATM   40  N   UNL     1      -5.915  18.769  70.548  1.00  0.00    -0.093 NA 
HETATM   41  C   UNL     1      -5.714  17.768  69.617  1.00  0.00    -0.234 A  
HETATM   42  H   UNL     1      -5.683  18.697  71.539  1.00  0.00     0.000 HD 
HETATM   43  C   UNL     1      -5.316  16.436  69.733  1.00  0.00    -0.143 A  
HETATM   44  C   UNL     1      -5.328  15.663  68.558  1.00  0.00    -0.101 A  
HETATM   45  C   UNL     1      -5.842  16.157  67.352  1.00  0.00    -0.166 A  
HETATM   46  C   UNL     1      -6.411  17.434  67.314  1.00  0.00    -0.182 A  
HETATM   47  C   UNL     1      -7.493  17.881  66.330  1.00  0.00    -0.321 C  
HETATM   48  C   UNL     1      -6.172  18.270  68.418  1.00  0.00    -0.195 A  
HETATM   49  C   UNL     1      -8.505  16.753  66.031  1.00  0.00    -0.201 C  
ENDBRANCH  29  32
ENDBRANCH  27  29
ENDBRANCH  13  27
TORSDOF 5
ENDMDL
MODEL       15
REMARK 921   NORMALIZED FREE ENERGY PREDICTED BY IDOCK:   -6.79 KCAL/MOL
REMARK 922        TOTAL FREE ENERGY PREDICTED BY IDOCK:  -10.61 KCAL/MOL
REMARK 923 INTER-LIGAND FREE ENERGY PREDICTED BY IDOCK:  -10.00 KCAL/MOL
REMARK 924 INTRA-LIGAND FREE ENERGY PREDICTED BY IDOCK:   -0.61 KCAL/MOL
REMARK 927      BINDING AFFINITY PREDICTED BY RF-SCORE:    0.00 PKD
ROOT
HETATM    1  C   UNL     1      -6.857  10.245  68.696  1.00  0.00    -0.057 C  
HETATM    2  C   UNL     1      -5.348  10.034  68.720  1.00  0.00    -0.035 C  
HETATM    3  C   UNL     1      -5.193   8.748  69.583  1.00  0.00    -0.030 C  
HETATM    4  C   UNL     1      -6.534   8.538  70.275  1.00  0.00    -0.038 C  
HETATM    5  N   UNL     1      -7.311   9.706  69.935  1.00  0.00    -0.102 N  
HETATM    6  C   UNL     1      -8.664   9.601  70.129  1.00  0.00    -0.231 C  
HETATM    7  O   UNL     1      -9.068   9.024  71.133  1.00  0.00    -0.226 OA 
HETATM    8  C   UNL     1      -9.563  10.343  69.068  1.00  0.00    -0.204 C  
HETATM    9  C   UNL     1      -7.700  11.418  68.053  1.00  0.00    -0.114 C  
HETATM   10  N   UNL     1      -8.870  10.690  67.702  1.00  0.00    -0.131 N  
HETATM   11  C   UNL     1      -9.361  11.637  66.795  1.00  0.00    -0.186 C  
HETATM   12  H   UNL     1      -7.426  12.562  66.567  1.00  0.00     0.000 HD 
HETATM   13  C   UNL     1      -9.491  12.979  67.571  1.00  0.00    -0.198 C  
HETATM   14  O   UNL     1      -9.558  11.401  65.618  1.00  0.00    -0.219 OA 
HETATM   15  O   UNL     1      -6.919  11.857  66.954  1.00  0.00    -0.137 OA 
HETATM   16  O   UNL     1      -8.402  12.571  68.614  1.00  0.00    -0.097 OA 
HETATM   17  C   UNL     1     -12.022  12.762  66.518  1.00  0.00    -0.428 C  
HETATM   18  C   UNL     1     -11.900  13.568  68.882  1.00  0.00    -0.384 C  
HETATM   19  C   UNL     1     -11.117  12.830  67.794  1.00  0.00    -0.289 C  
ENDROOT
BRANCH   8  20
HETATM   20  C   UNL     1     -10.922   9.620  69.043  1.00  0.00    -0.161 C  
BRANCH  20  21
HETATM   21  C   UNL     1     -11.674   9.798  70.381  1.00  0.00    -0.301 A  
HETATM   22  C   UNL     1     -13.070  11.324  71.640  1.00  0.00    -0.513 A  
HETATM   23  C   UNL     1     -13.316   8.968  71.972  1.00  0.00    -0.494 A  
HETATM   24  C   UNL     1     -12.266   8.728  71.091  1.00  0.00    -0.284 A  
HETATM   25  C   UNL     1     -13.754  10.253  72.218  1.00  0.00    -0.067 A  
HETATM   26  C   UNL     1     -12.038  11.102  70.733  1.00  0.00    -0.458 A  
ENDBRANCH  20  21
ENDBRANCH   8  20
BRANCH  13  27
HETATM   27  N   UNL     1      -9.030  14.205  66.868  1.00  0.00    -0.275 NA 
HETATM   28  H   UNL     1      -8.720  14.207  65.897  1.00  0.00     0.000 HD 
BRANCH  27  29
HETATM   29  C   UNL     1      -9.060  15.267  67.602  1.00  0.00    -0.183 C  
HETATM   30  H   UNL     1      -8.671  16.010  69.423  1.00  0.00     0.000 HD 
HETATM   31  O   UNL     1      -8.650  15.229  68.883  1.00  0.00    -0.178 OA 
BRANCH  29  32
HETATM   32  C   UNL     1      -9.555  16.670  67.246  1.00  0.00    -0.243 C  
HETATM   33  C   UNL     1      -9.481  17.716  68.357  1.00  0.00    -0.298 C  
HETATM   34  N   UNL     1      -9.726  19.055  67.785  1.00  0.00    -0.314 NA 
HETATM   35  C   UNL     1      -8.678  19.536  66.823  1.00  0.00    -0.320 C  
HETATM   36  C   UNL     1     -10.158  20.024  68.775  1.00  0.00    -0.308 C  
HETATM   37  C   UNL     1      -7.653  20.601  67.368  1.00  0.00    -0.375 C  
HETATM   38  C   UNL     1      -6.776  19.917  68.348  1.00  0.00    -0.332 A  
HETATM   39  C   UNL     1      -6.425  20.168  69.652  1.00  0.00    -0.298 A  
HETATM   40  N   UNL     1      -5.824  19.024  70.141  1.00  0.00    -0.248 NA 
HETATM   41  C   UNL     1      -5.758  18.054  69.158  1.00  0.00    -0.214 A  
HETATM   42  H   UNL     1      -5.476  18.911  71.093  1.00  0.00     0.000 HD 
HETATM   43  C   UNL     1      -5.378  16.712  69.179  1.00  0.00    -0.133 A  
HETATM   44  C   UNL     1      -5.548  15.984  67.987  1.00  0.00    -0.129 A  
HETATM   45  C   UNL     1      -6.193  16.531  66.870  1.00  0.00    -0.143 A  
HETATM   46  C   UNL     1      -6.734  17.818  66.945  1.00  0.00    -0.211 A  
HETATM   47  C   UNL     1      -7.916  18.321  66.115  1.00  0.00    -0.219 C  
HETATM   48  C   UNL     1      -6.346  18.608  68.041  1.00  0.00    -0.209 A  
HETATM   49  C   UNL     1      -8.981  17.223  65.902  1.00  0.00     0.010 C  
ENDBRANCH  29  32
ENDBRANCH  27  29
ENDBRANCH  13  27
TORSDOF 5
ENDMDL
MODEL       16
REMARK 921   NORMALIZED FREE ENERGY PREDICTED BY IDOCK:   -6.78 KCAL/MOL
REMARK 922        TOTAL FREE ENERGY PREDICTED BY IDOCK:  -10.61 KCAL/MOL
REMARK 923 INTER-LIGAND FREE ENERGY PREDICTED BY IDOCK:   -9.36 KCAL/MOL
REMARK 924 INTRA-LIGAND FREE ENERGY PREDICTED BY IDOCK:   -1.25 KCAL/MOL
REMARK 927      BINDING AFFINITY PREDICTED BY RF-SCORE:    0.00 PKD
ROOT
HETATM    1  C   UNL     1     -12.149  13.882  70.254  1.00  0.00    -0.353 C  
HETATM    2  C   UNL     1     -13.070  13.934  71.467  1.00  0.00    -0.441 C  
HETATM    3  C   UNL     1     -13.129  15.455  71.790  1.00  0.00    -0.529 C  
HETATM    4  C   UNL     1     -11.992  16.100  71.009  1.00  0.00    -0.268 C  
HETATM    5  N   UNL     1     -11.272  14.992  70.426  1.00  0.00    -0.264 N  
HETATM    6  C   UNL     1     -10.428  15.307  69.392  1.00  0.00    -0.251 C  
HETATM    7  O   UNL     1      -9.760  16.332  69.474  1.00  0.00    -0.224 OA 
HETATM    8  C   UNL     1     -10.334  14.234  68.241  1.00  0.00    -0.242 C  
HETATM    9  C   UNL     1     -11.602  12.632  69.457  1.00  0.00    -0.281 C  
HETATM   10  N   UNL     1     -11.519  13.208  68.160  1.00  0.00    -0.292 N  
HETATM   11  C   UNL     1     -11.454  11.992  67.467  1.00  0.00    -0.333 C  
HETATM   12  H   UNL     1     -12.280  10.892  69.128  1.00  0.00     0.000 HD 
HETATM   13  C   UNL     1     -10.238  11.210  68.043  1.00  0.00    -0.181 C  
HETATM   14  O   UNL     1     -12.272  11.648  66.634  1.00  0.00    -0.210 OA 
HETATM   15  O   UNL     1     -12.609  11.644  69.608  1.00  0.00    -0.051 OA 
HETATM   16  O   UNL     1     -10.302  11.965  69.409  1.00  0.00     0.060 OA 
HETATM   17  C   UNL     1      -9.657  11.132  65.356  1.00  0.00    -0.266 C  
HETATM   18  C   UNL     1      -7.714  11.559  66.872  1.00  0.00    -0.157 C  
HETATM   19  C   UNL     1      -9.242  11.602  66.791  1.00  0.00    -0.190 C  
ENDROOT
BRANCH   8  20
HETATM   20  C   UNL     1      -9.916  14.981  66.961  1.00  0.00    -0.242 C  
BRANCH  20  21
HETATM   21  C   UNL     1      -8.401  15.288  66.963  1.00  0.00    -0.267 A  
HETATM   22  C   UNL     1      -6.772  17.047  66.625  1.00  0.00    -0.273 A  
HETATM   23  C   UNL     1      -6.276  15.267  68.144  1.00  0.00    -0.138 A  
HETATM   24  C   UNL     1      -7.477  14.645  67.818  1.00  0.00    -0.180 A  
HETATM   25  C   UNL     1      -5.935  16.484  67.590  1.00  0.00    -0.163 A  
HETATM   26  C   UNL     1      -7.992  16.456  66.310  1.00  0.00    -0.264 A  
ENDBRANCH  20  21
ENDBRANCH   8  20
BRANCH  13  27
HETATM   27  N   UNL     1     -10.438   9.760  68.299  1.00  0.00    -0.205 NA 
HETATM   28  H   UNL     1     -10.984   9.156  67.686  1.00  0.00     0.000 HD 
BRANCH  27  29
HETATM   29  C   UNL     1      -9.855   9.337  69.371  1.00  0.00    -0.174 C  
HETATM   30  H   UNL     1      -9.996   9.198  71.366  1.00  0.00     0.000 HD 
HETATM   31  O   UNL     1     -10.425   9.509  70.577  1.00  0.00    -0.252 OA 
BRANCH  29  32
HETATM   32  C   UNL     1      -8.497   8.648  69.521  1.00  0.00    -0.129 C  
HETATM   33  C   UNL     1      -8.112   8.209  70.932  1.00  0.00    -0.098 C  
HETATM   34  N   UNL     1      -6.929   7.329  70.865  1.00  0.00    -0.056 NA 
HETATM   35  C   UNL     1      -7.152   6.015  70.173  1.00  0.00    -0.071 C  
HETATM   36  C   UNL     1      -6.202   7.258  72.120  1.00  0.00    -0.040 C  
HETATM   37  C   UNL     1      -7.314   4.748  71.095  1.00  0.00    -0.064 C  
HETATM   38  C   UNL     1      -8.614   4.868  71.797  1.00  0.00    -0.132 A  
HETATM   39  C   UNL     1      -8.993   4.821  73.116  1.00  0.00    -0.114 A  
HETATM   40  N   UNL     1     -10.287   5.301  73.186  1.00  0.00    -0.184 NA 
HETATM   41  C   UNL     1     -10.751   5.627  71.926  1.00  0.00    -0.241 A  
HETATM   42  H   UNL     1     -10.825   5.400  74.047  1.00  0.00     0.000 HD 
HETATM   43  C   UNL     1     -11.910   6.263  71.481  1.00  0.00    -0.291 A  
HETATM   44  C   UNL     1     -12.000   6.534  70.103  1.00  0.00    -0.200 A  
HETATM   45  C   UNL     1     -10.926   6.306  69.233  1.00  0.00    -0.435 A  
HETATM   46  C   UNL     1      -9.708   5.845  69.742  1.00  0.00    -0.202 A  
HETATM   47  C   UNL     1      -8.341   6.099  69.106  1.00  0.00    -0.116 C  
HETATM   48  C   UNL     1      -9.714   5.356  71.060  1.00  0.00    -0.235 A  
HETATM   49  C   UNL     1      -8.247   7.509  68.481  1.00  0.00    -0.125 C  
ENDBRANCH  29  32
ENDBRANCH  27  29
ENDBRANCH  13  27
TORSDOF 5
ENDMDL
MODEL       17
REMARK 921   NORMALIZED FREE ENERGY PREDICTED BY IDOCK:   -6.76 KCAL/MOL
REMARK 922        TOTAL FREE ENERGY PREDICTED BY IDOCK:  -10.58 KCAL/MOL
REMARK 923 INTER-LIGAND FREE ENERGY PREDICTED BY IDOCK:   -9.61 KCAL/MOL
REMARK 924 INTRA-LIGAND FREE ENERGY PREDICTED BY IDOCK:   -0.97 KCAL/MOL
REMARK 927      BINDING AFFINITY PREDICTED BY RF-SCORE:    0.00 PKD
ROOT
HETATM    1  C   UNL     1      -7.721  14.737  68.353  1.00  0.00    -0.122 C  
HETATM    2  C   UNL     1      -6.676  14.673  69.461  1.00  0.00    -0.158 C  
HETATM    3  C   UNL     1      -6.134  16.131  69.509  1.00  0.00    -0.170 C  
HETATM    4  C   UNL     1      -6.616  16.805  68.231  1.00  0.00    -0.152 C  
HETATM    5  N   UNL     1      -7.242  15.748  67.471  1.00  0.00    -0.165 N  
HETATM    6  C   UNL     1      -8.068  16.153  66.454  1.00  0.00    -0.270 C  
HETATM    7  O   UNL     1      -7.723  17.108  65.766  1.00  0.00    -0.421 OA 
HETATM    8  C   UNL     1      -9.341  15.256  66.215  1.00  0.00    -0.310 C  
HETATM    9  C   UNL     1      -8.605  13.582  67.734  1.00  0.00    -0.183 C  
HETATM   10  N   UNL     1      -9.767  14.334  67.412  1.00  0.00    -0.231 N  
HETATM   11  C   UNL     1     -10.621  13.231  67.284  1.00  0.00    -0.247 C  
HETATM   12  H   UNL     1      -9.302  11.959  68.421  1.00  0.00     0.000 HD 
HETATM   13  C   UNL     1      -9.988  12.294  66.215  1.00  0.00    -0.232 C  
HETATM   14  O   UNL     1     -11.616  13.068  67.965  1.00  0.00    -0.299 OA 
HETATM   15  O   UNL     1      -8.770  12.653  68.793  1.00  0.00    -0.002 OA 
HETATM   16  O   UNL     1      -8.548  12.843  66.475  1.00  0.00    -0.053 OA 
HETATM   17  C   UNL     1     -12.527  12.570  65.198  1.00  0.00    -0.451 C  
HETATM   18  C   UNL     1     -10.675  12.639  63.518  1.00  0.00    -0.337 C  
HETATM   19  C   UNL     1     -10.989  12.796  65.008  1.00  0.00    -0.319 C  
ENDROOT
BRANCH   8  20
HETATM   20  C   UNL     1     -10.407  16.152  65.558  1.00  0.00    -0.391 C  
BRANCH  20  21
HETATM   21  C   UNL     1     -10.650  17.432  66.389  1.00  0.00    -0.192 A  
HETATM   22  C   UNL     1     -10.332  18.420  68.577  1.00  0.00    -0.326 A  
HETATM   23  C   UNL     1     -10.358  19.832  66.646  1.00  0.00    -0.614 A  
HETATM   24  C   UNL     1     -10.634  18.734  65.839  1.00  0.00    -0.405 A  
HETATM   25  C   UNL     1     -10.162  19.682  68.004  1.00  0.00    -0.579 A  
HETATM   26  C   UNL     1     -10.577  17.305  67.781  1.00  0.00    -0.367 A  
ENDBRANCH  20  21
ENDBRANCH   8  20
BRANCH  13  27
HETATM   27  N   UNL     1      -9.994  10.838  66.516  1.00  0.00    -0.206 NA 
HETATM   28  H   UNL     1     -10.609  10.415  67.210  1.00  0.00     0.000 HD 
BRANCH  27  29
HETATM   29  C   UNL     1      -9.147  10.159  65.816  1.00  0.00    -0.171 C  
HETATM   30  H   UNL     1      -8.885   9.119  64.123  1.00  0.00     0.000 HD 
HETATM   31  O   UNL     1      -9.507   9.619  64.638  1.00  0.00    -0.263 OA 
BRANCH  29  32
HETATM   32  C   UNL     1      -7.695   9.804  66.140  1.00  0.00    -0.104 C  
HETATM   33  C   UNL     1      -7.322   9.764  67.621  1.00  0.00    -0.090 C  
HETATM   34  N   UNL     1      -5.991   9.145  67.773  1.00  0.00    -0.049 NA 
HETATM   35  C   UNL     1      -5.915   7.696  67.386  1.00  0.00    -0.047 C  
HETATM   36  C   UNL     1      -5.344   9.492  69.026  1.00  0.00    -0.036 C  
HETATM   37  C   UNL     1      -5.888   6.650  68.563  1.00  0.00    -0.021 C  
HETATM   38  C   UNL     1      -7.229   6.654  69.196  1.00  0.00    -0.091 A  
HETATM   39  C   UNL     1      -7.673   6.815  70.485  1.00  0.00    -0.104 A  
HETATM   40  N   UNL     1      -9.037   7.030  70.422  1.00  0.00    -0.156 NA 
HETATM   41  C   UNL     1      -9.475   6.979  69.113  1.00  0.00    -0.143 A  
HETATM   42  H   UNL     1      -9.636   7.201  71.230  1.00  0.00     0.000 HD 
HETATM   43  C   UNL     1     -10.705   7.259  68.516  1.00  0.00    -0.165 A  
HETATM   44  C   UNL     1     -10.758   7.206  67.111  1.00  0.00    -0.422 A  
HETATM   45  C   UNL     1      -9.608   7.017  66.333  1.00  0.00    -0.159 A  
HETATM   46  C   UNL     1      -8.358   6.930  66.955  1.00  0.00    -0.121 A  
HETATM   47  C   UNL     1      -7.028   7.310  66.304  1.00  0.00    -0.066 C  
HETATM   48  C   UNL     1      -8.353   6.742  68.348  1.00  0.00    -0.123 A  
HETATM   49  C   UNL     1      -7.167   8.543  65.383  1.00  0.00    -0.083 C  
ENDBRANCH  29  32
ENDBRANCH  27  29
ENDBRANCH  13  27
TORSDOF 5
ENDMDL
MODEL       18
REMARK 921   NORMALIZED FREE ENERGY PREDICTED BY IDOCK:   -6.76 KCAL/MOL
REMARK 922        TOTAL FREE ENERGY PREDICTED BY IDOCK:  -10.58 KCAL/MOL
REMARK 923 INTER-LIGAND FREE ENERGY PREDICTED BY IDOCK:   -8.86 KCAL/MOL
REMARK 924 INTRA-LIGAND FREE ENERGY PREDICTED BY IDOCK:   -1.71 KCAL/MOL
REMARK 927      BINDING AFFINITY PREDICTED BY RF-SCORE:    0.00 PKD
ROOT
HETATM    1  C   UNL     1     -11.066  12.049  64.930  1.00  0.00    -0.316 C  
HETATM    2  C   UNL     1     -11.705  11.978  63.548  1.00  0.00    -0.566 C  
HETATM    3  C   UNL     1     -12.388  13.369  63.412  1.00  0.00    -0.343 C  
HETATM    4  C   UNL     1     -12.410  13.970  64.811  1.00  0.00    -0.413 C  
HETATM    5  N   UNL     1     -11.916  12.921  65.671  1.00  0.00    -0.416 N  
HETATM    6  C   UNL     1     -11.500  13.315  66.916  1.00  0.00    -0.338 C  
HETATM    7  O   UNL     1     -12.157  14.162  67.512  1.00  0.00    -0.395 OA 
HETATM    8  C   UNL     1     -10.256  12.538  67.495  1.00  0.00    -0.217 C  
HETATM    9  C   UNL     1     -10.272  10.942  65.732  1.00  0.00    -0.259 C  
HETATM   10  N   UNL     1      -9.370  11.780  66.443  1.00  0.00    -0.215 N  
HETATM   11  C   UNL     1      -8.463  10.765  66.774  1.00  0.00    -0.134 C  
HETATM   12  H   UNL     1      -9.196   9.471  65.212  1.00  0.00     0.000 HD 
HETATM   13  C   UNL     1      -9.266   9.673  67.537  1.00  0.00    -0.133 C  
HETATM   14  O   UNL     1      -7.295  10.771  66.432  1.00  0.00    -0.130 OA 
HETATM   15  O   UNL     1      -9.674  10.136  64.730  1.00  0.00    -0.294 OA 
HETATM   16  O   UNL     1     -10.616  10.090  66.869  1.00  0.00    -0.236 OA 
HETATM   17  C   UNL     1      -7.216  10.120  69.314  1.00  0.00    -0.085 C  
HETATM   18  C   UNL     1      -9.485   9.841  70.328  1.00  0.00    -0.250 C  
HETATM   19  C   UNL     1      -8.754  10.165  69.023  1.00  0.00    -0.161 C  
ENDROOT
BRANCH   8  20
HETATM   20  C   UNL     1      -9.566  13.478  68.501  1.00  0.00    -0.151 C  
BRANCH  20  21
HETATM   21  C   UNL     1      -8.329  14.158  67.871  1.00  0.00    -0.162 A  
HETATM   22  C   UNL     1      -7.546  16.210  66.852  1.00  0.00    -0.275 A  
HETATM   23  C   UNL     1      -6.005  14.846  68.072  1.00  0.00    -0.158 A  
HETATM   24  C   UNL     1      -7.002  13.899  68.284  1.00  0.00    -0.108 A  
HETATM   25  C   UNL     1      -6.275  16.020  67.399  1.00  0.00    -0.191 A  
HETATM   26  C   UNL     1      -8.564  15.289  67.081  1.00  0.00    -0.236 A  
ENDBRANCH  20  21
ENDBRANCH   8  20
BRANCH  13  27
HETATM   27  N   UNL     1      -8.982   8.260  67.175  1.00  0.00    -0.136 NA 
HETATM   28  H   UNL     1      -8.381   7.994  66.396  1.00  0.00     0.000 HD 
BRANCH  27  29
HETATM   29  C   UNL     1      -9.568   7.399  67.940  1.00  0.00    -0.141 C  
HETATM   30  H   UNL     1     -11.241   6.333  68.223  1.00  0.00     0.000 HD 
HETATM   31  O   UNL     1     -10.810   6.966  67.661  1.00  0.00    -0.250 OA 
BRANCH  29  32
HETATM   32  C   UNL     1      -9.063   6.763  69.236  1.00  0.00    -0.139 C  
HETATM   33  C   UNL     1      -9.775   5.490  69.688  1.00  0.00    -0.172 C  
HETATM   34  N   UNL     1      -9.005   4.858  70.777  1.00  0.00    -0.127 NA 
HETATM   35  C   UNL     1      -7.651   4.343  70.382  1.00  0.00    -0.049 C  
HETATM   36  C   UNL     1      -9.803   3.958  71.589  1.00  0.00    -0.177 C  
HETATM   37  C   UNL     1      -7.518   2.787  70.177  1.00  0.00    -0.043 C  
HETATM   38  C   UNL     1      -8.271   2.431  68.952  1.00  0.00    -0.071 A  
HETATM   39  C   UNL     1      -9.263   1.524  68.673  1.00  0.00    -0.155 A  
HETATM   40  N   UNL     1      -9.786   1.856  67.437  1.00  0.00    -0.374 NA 
HETATM   41  C   UNL     1      -9.121   2.947  66.909  1.00  0.00    -0.159 A  
HETATM   42  H   UNL     1     -10.554   1.366  66.979  1.00  0.00     0.000 HD 
HETATM   43  C   UNL     1      -9.348   3.736  65.782  1.00  0.00    -0.164 A  
HETATM   44  C   UNL     1      -8.515   4.857  65.611  1.00  0.00    -0.124 A  
HETATM   45  C   UNL     1      -7.591   5.249  66.589  1.00  0.00    -0.088 A  
HETATM   46  C   UNL     1      -7.521   4.546  67.796  1.00  0.00    -0.073 A  
HETATM   47  C   UNL     1      -7.055   5.137  69.127  1.00  0.00    -0.056 C  
HETATM   48  C   UNL     1      -8.176   3.304  67.848  1.00  0.00    -0.087 A  
HETATM   49  C   UNL     1      -7.510   6.603  69.301  1.00  0.00    -0.095 C  
ENDBRANCH  29  32
ENDBRANCH  27  29
ENDBRANCH  13  27
TORSDOF 5
ENDMDL
MODEL       19
REMARK 921   NORMALIZED FREE ENERGY PREDICTED BY IDOCK:   -6.67 KCAL/MOL
REMARK 922        TOTAL FREE ENERGY PREDICTED BY IDOCK:  -10.46 KCAL/MOL
REMARK 923 INTER-LIGAND FREE ENERGY PREDICTED BY IDOCK:   -8.68 KCAL/MOL
REMARK 924 INTRA-LIGAND FREE ENERGY PREDICTED BY IDOCK:   -1.78 KCAL/MOL
REMARK 927      BINDING AFFINITY PREDICTED BY RF-SCORE:    0.00 PKD
ROOT
HETATM    1  C   UNL     1      -7.133   6.354  66.801  1.00  0.00    -0.073 C  
HETATM    2  C   UNL     1      -6.382   6.245  65.478  1.00  0.00    -0.038 C  
HETATM    3  C   UNL     1      -5.211   5.282  65.825  1.00  0.00    -0.012 C  
HETATM    4  C   UNL     1      -5.157   5.208  67.345  1.00  0.00    -0.004 C  
HETATM    5  N   UNL     1      -6.127   6.178  67.795  1.00  0.00    -0.017 N  
HETATM    6  C   UNL     1      -6.532   6.057  69.100  1.00  0.00    -0.043 C  
HETATM    7  O   UNL     1      -5.692   5.779  69.949  1.00  0.00    -0.014 OA 
HETATM    8  C   UNL     1      -8.045   6.402  69.377  1.00  0.00    -0.118 C  
HETATM    9  C   UNL     1      -8.390   7.235  67.176  1.00  0.00    -0.118 C  
HETATM   10  N   UNL     1      -8.996   6.371  68.128  1.00  0.00    -0.117 N  
HETATM   11  C   UNL     1     -10.257   6.979  68.092  1.00  0.00    -0.181 C  
HETATM   12  H   UNL     1      -9.860   7.905  66.185  1.00  0.00     0.000 HD 
HETATM   13  C   UNL     1     -10.043   8.480  68.440  1.00  0.00    -0.194 C  
HETATM   14  O   UNL     1     -11.276   6.397  67.770  1.00  0.00    -0.323 OA 
HETATM   15  O   UNL     1      -9.104   7.375  65.959  1.00  0.00    -0.159 OA 
HETATM   16  O   UNL     1      -8.557   8.460  67.956  1.00  0.00    -0.133 OA 
HETATM   17  C   UNL     1     -11.996   7.819  70.259  1.00  0.00     0.208 C  
HETATM   18  C   UNL     1     -10.167   9.291  71.122  1.00  0.00    -0.387 C  
HETATM   19  C   UNL     1     -10.531   8.311  70.003  1.00  0.00    -0.231 C  
ENDROOT
BRANCH   8  20
HETATM   20  C   UNL     1      -8.459   5.627  70.641  1.00  0.00    -0.126 C  
BRANCH  20  21
HETATM   21  C   UNL     1      -8.489   6.552  71.879  1.00  0.00    -0.119 A  
HETATM   22  C   UNL     1      -9.337   6.752  74.138  1.00  0.00    -0.251 A  
HETATM   23  C   UNL     1      -7.269   7.811  73.565  1.00  0.00    -0.131 A  
HETATM   24  C   UNL     1      -7.418   7.400  72.244  1.00  0.00    -0.078 A  
HETATM   25  C   UNL     1      -8.195   7.457  74.525  1.00  0.00    -0.233 A  
HETATM   26  C   UNL     1      -9.487   6.306  72.828  1.00  0.00    -0.147 A  
ENDBRANCH  20  21
ENDBRANCH   8  20
BRANCH  13  27
HETATM   27  N   UNL     1     -10.789   9.469  67.618  1.00  0.00    -0.444 NA 
HETATM   28  H   UNL     1     -11.690   9.269  67.187  1.00  0.00     0.000 HD 
BRANCH  27  29
HETATM   29  C   UNL     1     -10.188  10.607  67.501  1.00  0.00    -0.199 C  
HETATM   30  H   UNL     1      -8.973  11.705  66.346  1.00  0.00     0.000 HD 
HETATM   31  O   UNL     1      -9.415  10.869  66.432  1.00  0.00    -0.179 OA 
BRANCH  29  32
HETATM   32  C   UNL     1     -10.175  11.793  68.468  1.00  0.00    -0.215 C  
HETATM   33  C   UNL     1      -9.290  12.975  68.077  1.00  0.00    -0.213 C  
HETATM   34  N   UNL     1      -9.598  14.125  68.948  1.00  0.00    -0.114 NA 
HETATM   35  C   UNL     1     -10.979  14.694  68.786  1.00  0.00    -0.258 C  
HETATM   36  C   UNL     1      -8.524  15.100  69.003  1.00  0.00    -0.214 C  
HETATM   37  C   UNL     1     -11.101  16.032  67.964  1.00  0.00    -0.334 C  
HETATM   38  C   UNL     1     -10.809  15.715  66.546  1.00  0.00    -0.260 A  
HETATM   39  C   UNL     1      -9.936  16.223  65.616  1.00  0.00    -0.274 A  
HETATM   40  N   UNL     1      -9.897  15.330  64.563  1.00  0.00    -0.195 NA 
HETATM   41  C   UNL     1     -10.755  14.272  64.793  1.00  0.00    -0.416 A  
HETATM   42  H   UNL     1      -9.316  15.437  63.731  1.00  0.00     0.000 HD 
HETATM   43  C   UNL     1     -10.976  13.070  64.120  1.00  0.00    -0.438 A  
HETATM   44  C   UNL     1     -11.868  12.160  64.716  1.00  0.00    -0.385 A  
HETATM   45  C   UNL     1     -12.408  12.380  65.991  1.00  0.00     0.041 A  
HETATM   46  C   UNL     1     -12.016  13.505  66.723  1.00  0.00    -0.453 A  
HETATM   47  C   UNL     1     -12.014  13.598  68.249  1.00  0.00    -0.385 C  
HETATM   48  C   UNL     1     -11.327  14.511  66.025  1.00  0.00    -0.341 A  
HETATM   49  C   UNL     1     -11.597  12.265  68.910  1.00  0.00    -0.367 C  
ENDBRANCH  29  32
ENDBRANCH  27  29
ENDBRANCH  13  27
TORSDOF 5
ENDMDL
MODEL       20
REMARK 921   NORMALIZED FREE ENERGY PREDICTED BY IDOCK:   -6.66 KCAL/MOL
REMARK 922        TOTAL FREE ENERGY PREDICTED BY IDOCK:  -10.44 KCAL/MOL
REMARK 923 INTER-LIGAND FREE ENERGY PREDICTED BY IDOCK:   -9.53 KCAL/MOL
REMARK 924 INTRA-LIGAND FREE ENERGY PREDICTED BY IDOCK:   -0.92 KCAL/MOL
REMARK 927      BINDING AFFINITY PREDICTED BY RF-SCORE:    0.00 PKD
ROOT
HETATM    1  C   UNL     1     -11.079  12.004  65.012  1.00  0.00    -0.316 C  
HETATM    2  C   UNL     1     -11.427  11.920  63.530  1.00  0.00    -0.523 C  
HETATM    3  C   UNL     1     -12.132  13.281  63.264  1.00  0.00    -0.407 C  
HETATM    4  C   UNL     1     -12.459  13.865  64.632  1.00  0.00    -0.325 C  
HETATM    5  N   UNL     1     -12.098  12.828  65.571  1.00  0.00    -0.448 N  
HETATM    6  C   UNL     1     -11.956  13.226  66.875  1.00  0.00    -0.375 C  
HETATM    7  O   UNL     1     -12.756  14.036  67.330  1.00  0.00     0.053 OA 
HETATM    8  C   UNL     1     -10.817  12.499  67.687  1.00  0.00    -0.225 C  
HETATM    9  C   UNL     1     -10.411  10.924  65.953  1.00  0.00    -0.250 C  
HETATM   10  N   UNL     1      -9.707  11.792  66.831  1.00  0.00    -0.195 N  
HETATM   11  C   UNL     1      -8.838  10.815  67.333  1.00  0.00    -0.129 C  
HETATM   12  H   UNL     1      -9.187   9.507  65.654  1.00  0.00     0.000 HD 
HETATM   13  C   UNL     1      -9.726   9.680  67.918  1.00  0.00    -0.146 C  
HETATM   14  O   UNL     1      -7.627  10.876  67.230  1.00  0.00    -0.097 OA 
HETATM   15  O   UNL     1      -9.589  10.156  65.088  1.00  0.00    -0.245 OA 
HETATM   16  O   UNL     1     -10.934  10.044  66.996  1.00  0.00    -0.181 OA 
HETATM   17  C   UNL     1      -8.092  10.196  70.069  1.00  0.00    -0.082 C  
HETATM   18  C   UNL     1     -10.502   9.806  70.611  1.00  0.00    -0.358 C  
HETATM   19  C   UNL     1      -9.542  10.177  69.478  1.00  0.00    -0.243 C  
ENDROOT
BRANCH   8  20
HETATM   20  C   UNL     1     -10.384  13.456  68.812  1.00  0.00    -0.164 C  
BRANCH  20  21
HETATM   21  C   UNL     1     -11.540  13.709  69.807  1.00  0.00    -0.322 A  
HETATM   22  C   UNL     1     -12.888  12.666  71.527  1.00  0.00    -0.368 A  
HETATM   23  C   UNL     1     -12.460  15.017  71.638  1.00  0.00    -0.405 A  
HETATM   24  C   UNL     1     -11.774  14.956  70.430  1.00  0.00    -0.347 A  
HETATM   25  C   UNL     1     -12.980  13.877  72.216  1.00  0.00    -0.450 A  
HETATM   26  C   UNL     1     -12.178  12.580  70.333  1.00  0.00    -0.368 A  
ENDBRANCH  20  21
ENDBRANCH   8  20
BRANCH  13  27
HETATM   27  N   UNL     1      -9.312   8.285  67.617  1.00  0.00    -0.136 NA 
HETATM   28  H   UNL     1      -8.613   8.051  66.913  1.00  0.00     0.000 HD 
BRANCH  27  29
HETATM   29  C   UNL     1      -9.919   7.396  68.331  1.00  0.00    -0.164 C  
HETATM   30  H   UNL     1     -11.619   6.358  68.554  1.00  0.00     0.000 HD 
HETATM   31  O   UNL     1     -11.172   7.011  68.029  1.00  0.00    -0.078 OA 
BRANCH  29  32
HETATM   32  C   UNL     1      -9.431   6.672  69.587  1.00  0.00    -0.144 C  
HETATM   33  C   UNL     1     -10.083   5.324  69.888  1.00  0.00    -0.263 C  
HETATM   34  N   UNL     1      -9.321   4.639  70.951  1.00  0.00    -0.140 NA 
HETATM   35  C   UNL     1      -7.923   4.240  70.575  1.00  0.00    -0.059 C  
HETATM   36  C   UNL     1     -10.096   3.623  71.640  1.00  0.00    -0.062 C  
HETATM   37  C   UNL     1      -7.687   2.720  70.238  1.00  0.00    -0.044 C  
HETATM   38  C   UNL     1      -8.365   2.437  68.951  1.00  0.00    -0.080 A  
HETATM   39  C   UNL     1      -9.288   1.504  68.545  1.00  0.00    -0.179 A  
HETATM   40  N   UNL     1      -9.777   1.920  67.321  1.00  0.00    -0.360 NA 
HETATM   41  C   UNL     1      -9.159   3.091  66.925  1.00  0.00    -0.167 A  
HETATM   42  H   UNL     1     -10.494   1.431  66.785  1.00  0.00     0.000 HD 
HETATM   43  C   UNL     1      -9.386   3.967  65.864  1.00  0.00    -0.166 A  
HETATM   44  C   UNL     1      -8.617   5.145  65.835  1.00  0.00    -0.128 A  
HETATM   45  C   UNL     1      -7.761   5.496  66.887  1.00  0.00    -0.100 A  
HETATM   46  C   UNL     1      -7.698   4.690  68.028  1.00  0.00    -0.081 A  
HETATM   47  C   UNL     1      -7.325   5.180  69.427  1.00  0.00    -0.057 C  
HETATM   48  C   UNL     1      -8.278   3.413  67.936  1.00  0.00    -0.086 A  
HETATM   49  C   UNL     1      -7.875   6.595  69.710  1.00  0.00    -0.115 C  
ENDBRANCH  29  32
ENDBRANCH  27  29
ENDBRANCH  13  27
TORSDOF 5
ENDMDL
MODEL       21
REMARK 921   NORMALIZED FREE ENERGY PREDICTED BY IDOCK:   -6.63 KCAL/MOL
REMARK 922        TOTAL FREE ENERGY PREDICTED BY IDOCK:  -10.41 KCAL/MOL
REMARK 923 INTER-LIGAND FREE ENERGY PREDICTED BY IDOCK:   -8.39 KCAL/MOL
REMARK 924 INTRA-LIGAND FREE ENERGY PREDICTED BY IDOCK:   -2.01 KCAL/MOL
REMARK 927      BINDING AFFINITY PREDICTED BY RF-SCORE:    0.00 PKD
ROOT
HETATM    1  C   UNL     1      -8.577  10.860  65.007  1.00  0.00    -0.053 C  
HETATM    2  C   UNL     1      -7.399  10.296  64.221  1.00  0.00    -0.066 C  
HETATM    3  C   UNL     1      -7.821  10.541  62.743  1.00  0.00    -0.135 C  
HETATM    4  C   UNL     1      -9.307  10.871  62.775  1.00  0.00    -0.342 C  
HETATM    5  N   UNL     1      -9.700  10.669  64.150  1.00  0.00    -0.293 N  
HETATM    6  C   UNL     1     -10.891  11.238  64.521  1.00  0.00    -0.284 C  
HETATM    7  O   UNL     1     -11.831  11.190  63.735  1.00  0.00     0.125 OA 
HETATM    8  C   UNL     1     -10.946  11.805  65.990  1.00  0.00    -0.306 C  
HETATM    9  C   UNL     1      -8.837  10.869  66.565  1.00  0.00    -0.163 C  
HETATM   10  N   UNL     1      -9.558  12.090  66.668  1.00  0.00    -0.211 N  
HETATM   11  C   UNL     1      -9.381  12.246  68.049  1.00  0.00    -0.195 C  
HETATM   12  H   UNL     1      -7.697  10.898  68.080  1.00  0.00     0.000 HD 
HETATM   13  C   UNL     1      -9.941  10.960  68.722  1.00  0.00    -0.195 C  
HETATM   14  O   UNL     1      -8.821  13.202  68.551  1.00  0.00    -0.145 OA 
HETATM   15  O   UNL     1      -7.541  10.893  67.143  1.00  0.00    -0.100 OA 
HETATM   16  O   UNL     1      -9.719  10.098  67.438  1.00  0.00    -0.154 OA 
HETATM   17  C   UNL     1     -11.304  12.893  70.124  1.00  0.00     0.166 C  
HETATM   18  C   UNL     1     -12.640  10.880  69.478  1.00  0.00     0.017 C  
HETATM   19  C   UNL     1     -11.365  11.663  69.156  1.00  0.00    -0.345 C  
ENDROOT
BRANCH   8  20
HETATM   20  C   UNL     1     -12.016  12.912  66.007  1.00  0.00    -0.505 C  
BRANCH  20  21
HETATM   21  C   UNL     1     -11.372  14.310  66.150  1.00  0.00    -0.342 A  
HETATM   22  C   UNL     1     -10.796  16.032  67.751  1.00  0.00    -0.324 A  
HETATM   23  C   UNL     1      -9.458  15.765  65.787  1.00  0.00    -0.334 A  
HETATM   24  C   UNL     1     -10.314  14.768  65.331  1.00  0.00    -0.410 A  
HETATM   25  C   UNL     1      -9.663  16.371  67.010  1.00  0.00    -0.253 A  
HETATM   26  C   UNL     1     -11.646  15.015  67.327  1.00  0.00    -0.285 A  
ENDBRANCH  20  21
ENDBRANCH   8  20
BRANCH  13  27
HETATM   27  N   UNL     1      -9.130  10.376  69.823  1.00  0.00    -0.404 NA 
HETATM   28  H   UNL     1      -8.804  10.917  70.623  1.00  0.00     0.000 HD 
BRANCH  27  29
HETATM   29  C   UNL     1      -8.876   9.118  69.671  1.00  0.00    -0.151 C  
HETATM   30  H   UNL     1      -7.434   7.768  69.334  1.00  0.00     0.000 HD 
HETATM   31  O   UNL     1      -7.621   8.693  69.445  1.00  0.00    -0.088 OA 
BRANCH  29  32
HETATM   32  C   UNL     1      -9.845   7.934  69.668  1.00  0.00    -0.179 C  
HETATM   33  C   UNL     1      -9.218   6.546  69.558  1.00  0.00    -0.142 C  
HETATM   34  N   UNL     1     -10.241   5.523  69.847  1.00  0.00    -0.243 NA 
HETATM   35  C   UNL     1     -10.764   5.525  71.255  1.00  0.00    -0.218 C  
HETATM   36  C   UNL     1      -9.906   4.217  69.308  1.00  0.00    -0.110 C  
HETATM   37  C   UNL     1     -10.214   4.405  72.216  1.00  0.00    -0.255 C  
HETATM   38  C   UNL     1      -8.791   4.711  72.493  1.00  0.00    -0.126 A  
HETATM   39  C   UNL     1      -7.623   3.997  72.384  1.00  0.00    -0.072 A  
HETATM   40  N   UNL     1      -6.582   4.898  72.491  1.00  0.00    -0.046 NA 
HETATM   41  C   UNL     1      -7.067   6.176  72.697  1.00  0.00    -0.080 A  
HETATM   42  H   UNL     1      -5.593   4.655  72.428  1.00  0.00     0.000 HD 
HETATM   43  C   UNL     1      -6.450   7.427  72.733  1.00  0.00    -0.059 A  
HETATM   44  C   UNL     1      -7.290   8.548  72.857  1.00  0.00    -0.053 A  
HETATM   45  C   UNL     1      -8.686   8.436  72.810  1.00  0.00    -0.256 A  
HETATM   46  C   UNL     1      -9.273   7.187  72.580  1.00  0.00    -0.162 A  
HETATM   47  C   UNL     1     -10.640   6.969  71.932  1.00  0.00    -0.239 C  
HETATM   48  C   UNL     1      -8.441   6.062  72.702  1.00  0.00    -0.118 A  
HETATM   49  C   UNL     1     -10.916   7.989  70.805  1.00  0.00    -0.259 C  
ENDBRANCH  29  32
ENDBRANCH  27  29
ENDBRANCH  13  27
TORSDOF 5
ENDMDL
MODEL       22
REMARK 921   NORMALIZED FREE ENERGY PREDICTED BY IDOCK:   -6.59 KCAL/MOL
REMARK 922        TOTAL FREE ENERGY PREDICTED BY IDOCK:  -10.36 KCAL/MOL
REMARK 923 INTER-LIGAND FREE ENERGY PREDICTED BY IDOCK:   -8.24 KCAL/MOL
REMARK 924 INTRA-LIGAND FREE ENERGY PREDICTED BY IDOCK:   -2.12 KCAL/MOL
REMARK 927      BINDING AFFINITY PREDICTED BY RF-SCORE:    0.00 PKD
ROOT
HETATM    1  C   UNL     1     -11.683  11.572  70.020  1.00  0.00    -0.332 C  
HETATM    2  C   UNL     1     -12.693  11.562  71.162  1.00  0.00    -0.458 C  
HETATM    3  C   UNL     1     -13.283  13.001  71.113  1.00  0.00    -0.084 C  
HETATM    4  C   UNL     1     -12.346  13.815  70.231  1.00  0.00    -0.337 C  
HETATM    5  N   UNL     1     -11.244  12.925  69.946  1.00  0.00     0.051 N  
HETATM    6  C   UNL     1     -10.446  13.282  68.889  1.00  0.00    -0.100 C  
HETATM    7  O   UNL     1     -10.166  14.467  68.743  1.00  0.00    -0.235 OA 
HETATM    8  C   UNL     1      -9.883  12.087  68.029  1.00  0.00    -0.199 C  
HETATM    9  C   UNL     1     -10.674  10.447  69.558  1.00  0.00    -0.251 C  
HETATM   10  N   UNL     1     -10.649  10.723  68.163  1.00  0.00    -0.189 N  
HETATM   11  C   UNL     1     -10.115   9.486  67.781  1.00  0.00    -0.198 C  
HETATM   12  H   UNL     1     -10.704   8.553  69.634  1.00  0.00     0.000 HD 
HETATM   13  C   UNL     1      -8.778   9.314  68.558  1.00  0.00    -0.128 C  
HETATM   14  O   UNL     1     -10.681   8.712  67.033  1.00  0.00    -0.271 OA 
HETATM   15  O   UNL     1     -11.310   9.230  69.913  1.00  0.00    -0.184 OA 
HETATM   16  O   UNL     1      -9.231  10.275  69.704  1.00  0.00    -0.199 OA 
HETATM   17  C   UNL     1      -7.923   8.867  65.982  1.00  0.00    -0.106 C  
HETATM   18  C   UNL     1      -6.400  10.252  67.403  1.00  0.00    -0.059 C  
HETATM   19  C   UNL     1      -7.839   9.747  67.275  1.00  0.00    -0.098 C  
ENDROOT
BRANCH   8  20
HETATM   20  C   UNL     1      -9.602  12.640  66.619  1.00  0.00    -0.249 C  
BRANCH  20  21
HETATM   21  C   UNL     1     -10.637  12.116  65.598  1.00  0.00    -0.297 A  
HETATM   22  C   UNL     1     -12.769  12.609  64.561  1.00  0.00    -0.439 A  
HETATM   23  C   UNL     1     -11.133  11.363  63.339  1.00  0.00    -0.308 A  
HETATM   24  C   UNL     1     -10.288  11.376  64.444  1.00  0.00    -0.375 A  
HETATM   25  C   UNL     1     -12.351  12.011  63.371  1.00  0.00    -0.635 A  
HETATM   26  C   UNL     1     -11.924  12.660  65.666  1.00  0.00    -0.507 A  
ENDBRANCH  20  21
ENDBRANCH   8  20
BRANCH  13  27
HETATM   27  N   UNL     1      -8.515   7.975  69.146  1.00  0.00    -0.135 NA 
HETATM   28  H   UNL     1      -8.709   7.103  68.656  1.00  0.00     0.000 HD 
BRANCH  27  29
HETATM   29  C   UNL     1      -8.017   8.019  70.337  1.00  0.00    -0.103 C  
HETATM   30  H   UNL     1      -6.444   8.604  71.433  1.00  0.00     0.000 HD 
HETATM   31  O   UNL     1      -6.810   8.571  70.557  1.00  0.00    -0.036 OA 
BRANCH  29  32
HETATM   32  C   UNL     1      -8.596   7.475  71.644  1.00  0.00    -0.125 C  
HETATM   33  C   UNL     1      -9.732   6.462  71.511  1.00  0.00    -0.168 C  
HETATM   34  N   UNL     1      -9.985   5.836  72.823  1.00  0.00    -0.174 NA 
HETATM   35  C   UNL     1      -8.863   4.988  73.350  1.00  0.00    -0.113 C  
HETATM   36  C   UNL     1     -11.310   5.252  72.928  1.00  0.00    -0.301 C  
HETATM   37  C   UNL     1      -9.037   3.428  73.228  1.00  0.00    -0.107 C  
HETATM   38  C   UNL     1      -8.942   3.077  71.790  1.00  0.00    -0.142 A  
HETATM   39  C   UNL     1      -9.746   2.378  70.925  1.00  0.00    -0.058 A  
HETATM   40  N   UNL     1      -9.295   2.642  69.645  1.00  0.00    -0.132 NA 
HETATM   41  C   UNL     1      -8.194   3.478  69.683  1.00  0.00    -0.052 A  
HETATM   42  H   UNL     1      -9.715   2.272  68.792  1.00  0.00     0.000 HD 
HETATM   43  C   UNL     1      -7.471   4.133  68.687  1.00  0.00    -0.055 A  
HETATM   44  C   UNL     1      -6.456   5.011  69.109  1.00  0.00    -0.035 A  
HETATM   45  C   UNL     1      -6.264   5.324  70.462  1.00  0.00    -0.023 A  
HETATM   46  C   UNL     1      -7.131   4.797  71.424  1.00  0.00    -0.051 A  
HETATM   47  C   UNL     1      -7.445   5.451  72.770  1.00  0.00    -0.097 C  
HETATM   48  C   UNL     1      -7.971   3.747  71.017  1.00  0.00    -0.062 A  
HETATM   49  C   UNL     1      -7.516   6.990  72.663  1.00  0.00    -0.084 C  
ENDBRANCH  29  32
ENDBRANCH  27  29
ENDBRANCH  13  27
TORSDOF 5
ENDMDL
MODEL       23
REMARK 921   NORMALIZED FREE ENERGY PREDICTED BY IDOCK:   -6.55 KCAL/MOL
REMARK 922        TOTAL FREE ENERGY PREDICTED BY IDOCK:  -10.31 KCAL/MOL
REMARK 923 INTER-LIGAND FREE ENERGY PREDICTED BY IDOCK:   -8.75 KCAL/MOL
REMARK 924 INTRA-LIGAND FREE ENERGY PREDICTED BY IDOCK:   -1.56 KCAL/MOL
REMARK 927      BINDING AFFINITY PREDICTED BY RF-SCORE:    0.00 PKD
ROOT
HETATM    1  C   UNL     1      -8.680  10.845  64.922  1.00  0.00    -0.067 C  
HETATM    2  C   UNL     1      -7.529  10.241  64.126  1.00  0.00    -0.069 C  
HETATM    3  C   UNL     1      -7.929  10.546  62.654  1.00  0.00    -0.170 C  
HETATM    4  C   UNL     1      -9.397  10.951  62.688  1.00  0.00    -0.314 C  
HETATM    5  N   UNL     1      -9.807  10.734  64.056  1.00  0.00    -0.304 N  
HETATM    6  C   UNL     1     -10.969  11.354  64.436  1.00  0.00    -0.302 C  
HETATM    7  O   UNL     1     -11.906  11.376  63.645  1.00  0.00    -0.254 OA 
HETATM    8  C   UNL     1     -11.002  11.885  65.920  1.00  0.00    -0.307 C  
HETATM    9  C   UNL     1      -8.948  10.827  66.479  1.00  0.00    -0.156 C  
HETATM   10  N   UNL     1      -9.606  12.080  66.611  1.00  0.00    -0.211 N  
HETATM   11  C   UNL     1      -9.429  12.190  67.996  1.00  0.00    -0.201 C  
HETATM   12  H   UNL     1      -7.817  10.757  67.999  1.00  0.00     0.000 HD 
HETATM   13  C   UNL     1     -10.058  10.918  68.633  1.00  0.00    -0.191 C  
HETATM   14  O   UNL     1      -8.823  13.103  68.526  1.00  0.00    -0.145 OA 
HETATM   15  O   UNL     1      -7.656  10.767  67.062  1.00  0.00    -0.104 OA 
HETATM   16  O   UNL     1      -9.874  10.079  67.328  1.00  0.00    -0.168 OA 
HETATM   17  C   UNL     1     -11.328  12.882  70.079  1.00  0.00     0.052 C  
HETATM   18  C   UNL     1     -12.762  10.958  69.375  1.00  0.00     0.321 C  
HETATM   19  C   UNL     1     -11.447  11.682  69.079  1.00  0.00    -0.356 C  
ENDROOT
BRANCH   8  20
HETATM   20  C   UNL     1     -12.014  13.045  65.961  1.00  0.00    -0.498 C  
BRANCH  20  21
HETATM   21  C   UNL     1     -11.301  14.402  66.158  1.00  0.00    -0.350 A  
HETATM   22  C   UNL     1     -10.627  16.022  67.826  1.00  0.00    -0.309 A  
HETATM   23  C   UNL     1      -9.320  15.776  65.838  1.00  0.00    -0.356 A  
HETATM   24  C   UNL     1     -10.228  14.843  65.348  1.00  0.00    -0.409 A  
HETATM   25  C   UNL     1      -9.485  16.337  67.088  1.00  0.00    -0.231 A  
HETATM   26  C   UNL     1     -11.530  15.067  67.367  1.00  0.00    -0.326 A  
ENDBRANCH  20  21
ENDBRANCH   8  20
BRANCH  13  27
HETATM   27  N   UNL     1      -9.284  10.264  69.722  1.00  0.00    -0.400 NA 
HETATM   28  H   UNL     1      -8.430  10.659  70.113  1.00  0.00     0.000 HD 
BRANCH  27  29
HETATM   29  C   UNL     1      -9.797   9.149  70.125  1.00  0.00    -0.198 C  
HETATM   30  H   UNL     1     -10.968   7.605  69.613  1.00  0.00     0.000 HD 
HETATM   31  O   UNL     1     -10.592   8.426  69.317  1.00  0.00    -0.223 OA 
BRANCH  29  32
HETATM   32  C   UNL     1      -9.672   8.471  71.491  1.00  0.00    -0.303 C  
HETATM   33  C   UNL     1     -10.414   7.146  71.659  1.00  0.00    -0.198 C  
HETATM   34  N   UNL     1      -9.975   6.495  72.909  1.00  0.00    -0.171 NA 
HETATM   35  C   UNL     1      -8.537   6.060  72.927  1.00  0.00    -0.123 C  
HETATM   36  C   UNL     1     -10.929   5.521  73.407  1.00  0.00    -0.275 C  
HETATM   37  C   UNL     1      -8.261   4.523  72.719  1.00  0.00    -0.099 C  
HETATM   38  C   UNL     1      -8.587   4.197  71.310  1.00  0.00    -0.122 A  
HETATM   39  C   UNL     1      -9.395   3.262  70.711  1.00  0.00    -0.153 A  
HETATM   40  N   UNL     1      -9.537   3.634  69.388  1.00  0.00    -0.174 NA 
HETATM   41  C   UNL     1      -8.807   4.777  69.126  1.00  0.00    -0.092 A  
HETATM   42  H   UNL     1     -10.101   3.134  68.701  1.00  0.00     0.000 HD 
HETATM   43  C   UNL     1      -8.726   5.612  68.011  1.00  0.00    -0.099 A  
HETATM   44  C   UNL     1      -7.946   6.776  68.141  1.00  0.00    -0.114 A  
HETATM   45  C   UNL     1      -7.385   7.158  69.367  1.00  0.00    -0.090 A  
HETATM   46  C   UNL     1      -7.644   6.398  70.513  1.00  0.00    -0.096 A  
HETATM   47  C   UNL     1      -7.636   6.941  71.942  1.00  0.00    -0.093 C  
HETATM   48  C   UNL     1      -8.212   5.128  70.319  1.00  0.00    -0.090 A  
HETATM   49  C   UNL     1      -8.205   8.375  72.020  1.00  0.00    -0.212 C  
ENDBRANCH  29  32
ENDBRANCH  27  29
ENDBRANCH  13  27
TORSDOF 5
ENDMDL
MODEL       24
REMARK 921   NORMALIZED FREE ENERGY PREDICTED BY IDOCK:   -6.50 KCAL/MOL
REMARK 922        TOTAL FREE ENERGY PREDICTED BY IDOCK:  -10.24 KCAL/MOL
REMARK 923 INTER-LIGAND FREE ENERGY PREDICTED BY IDOCK:   -9.59 KCAL/MOL
REMARK 924 INTRA-LIGAND FREE ENERGY PREDICTED BY IDOCK:   -0.64 KCAL/MOL
REMARK 927      BINDING AFFINITY PREDICTED BY RF-SCORE:    0.00 PKD
ROOT
HETATM    1  C   UNL     1     -10.996   8.295  70.796  1.00  0.00    -0.243 C  
HETATM    2  C   UNL     1     -12.297   8.702  71.479  1.00  0.00    -0.370 C  
HETATM    3  C   UNL     1     -13.051   7.348  71.618  1.00  0.00    -0.412 C  
HETATM    4  C   UNL     1     -12.328   6.364  70.710  1.00  0.00     0.145 C  
HETATM    5  N   UNL     1     -11.348   7.160  70.010  1.00  0.00    -0.241 N  
HETATM    6  C   UNL     1     -10.334   6.463  69.404  1.00  0.00    -0.209 C  
HETATM    7  O   UNL     1     -10.607   5.414  68.831  1.00  0.00    -0.202 OA 
HETATM    8  C   UNL     1      -8.922   7.162  69.424  1.00  0.00    -0.136 C  
HETATM    9  C   UNL     1      -9.799   9.195  70.292  1.00  0.00    -0.207 C  
HETATM   10  N   UNL     1      -8.727   8.286  70.504  1.00  0.00    -0.136 N  
HETATM   11  C   UNL     1      -7.710   9.249  70.454  1.00  0.00    -0.143 C  
HETATM   12  H   UNL     1      -9.087  10.860  70.854  1.00  0.00     0.000 HD 
HETATM   13  C   UNL     1      -7.846   9.976  69.086  1.00  0.00    -0.112 C  
HETATM   14  O   UNL     1      -6.947   9.467  71.376  1.00  0.00    -0.316 OA 
HETATM   15  O   UNL     1      -9.808  10.319  71.157  1.00  0.00     0.712 OA 
HETATM   16  O   UNL     1      -9.365   9.634  68.967  1.00  0.00    -0.148 OA 
HETATM   17  C   UNL     1      -5.196   9.246  69.005  1.00  0.00    -0.037 C  
HETATM   18  C   UNL     1      -6.459   8.972  66.864  1.00  0.00    -0.064 C  
HETATM   19  C   UNL     1      -6.626   9.126  68.378  1.00  0.00    -0.059 C  
ENDROOT
BRANCH   8  20
HETATM   20  C   UNL     1      -7.865   6.047  69.321  1.00  0.00    -0.103 C  
BRANCH  20  21
HETATM   21  C   UNL     1      -7.487   5.770  67.848  1.00  0.00    -0.078 A  
HETATM   22  C   UNL     1      -6.378   4.188  66.389  1.00  0.00    -0.036 A  
HETATM   23  C   UNL     1      -8.190   5.497  65.537  1.00  0.00    -0.130 A  
HETATM   24  C   UNL     1      -8.285   6.168  66.751  1.00  0.00    -0.109 A  
HETATM   25  C   UNL     1      -7.275   4.479  65.359  1.00  0.00    -0.068 A  
HETATM   26  C   UNL     1      -6.478   4.828  67.621  1.00  0.00    -0.045 A  
ENDBRANCH  20  21
ENDBRANCH   8  20
BRANCH  13  27
HETATM   27  N   UNL     1      -7.698  11.455  69.099  1.00  0.00    -0.323 NA 
HETATM   28  H   UNL     1      -7.217  11.961  69.842  1.00  0.00     0.000 HD 
BRANCH  27  29
HETATM   29  C   UNL     1      -8.238  12.040  68.081  1.00  0.00    -0.163 C  
HETATM   30  H   UNL     1      -8.298  12.116  66.079  1.00  0.00     0.000 HD 
HETATM   31  O   UNL     1      -7.902  11.686  66.828  1.00  0.00    -0.160 OA 
BRANCH  29  32
HETATM   32  C   UNL     1      -9.251  13.186  68.054  1.00  0.00    -0.211 C  
HETATM   33  C   UNL     1      -9.408  13.919  66.724  1.00  0.00    -0.275 C  
HETATM   34  N   UNL     1     -10.597  14.792  66.784  1.00  0.00    -0.296 NA 
HETATM   35  C   UNL     1     -11.909  14.071  66.907  1.00  0.00    -0.430 C  
HETATM   36  C   UNL     1     -10.564  15.865  65.807  1.00  0.00    -0.355 C  
HETATM   37  C   UNL     1     -12.781  13.960  65.600  1.00  0.00    -0.534 C  
HETATM   38  C   UNL     1     -12.087  13.030  64.677  1.00  0.00    -0.463 A  
HETATM   39  C   UNL     1     -11.674  13.116  63.370  1.00  0.00    -0.350 A  
HETATM   40  N   UNL     1     -10.815  12.058  63.143  1.00  0.00    -0.683 NA 
HETATM   41  C   UNL     1     -10.697  11.279  64.278  1.00  0.00    -0.349 A  
HETATM   42  H   UNL     1     -10.336  11.876  62.261  1.00  0.00     0.000 HD 
HETATM   43  C   UNL     1      -9.870  10.203  64.605  1.00  0.00    -0.361 A  
HETATM   44  C   UNL     1      -9.950   9.716  65.922  1.00  0.00    -0.351 A  
HETATM   45  C   UNL     1     -10.715  10.358  66.905  1.00  0.00    -0.272 A  
HETATM   46  C   UNL     1     -11.383  11.547  66.594  1.00  0.00    -0.285 A  
HETATM   47  C   UNL     1     -11.738  12.640  67.602  1.00  0.00    -0.420 C  
HETATM   48  C   UNL     1     -11.490  11.879  65.233  1.00  0.00    -0.313 A  
HETATM   49  C   UNL     1     -10.639  12.820  68.672  1.00  0.00    -0.256 C  
ENDBRANCH  29  32
ENDBRANCH  27  29
ENDBRANCH  13  27
TORSDOF 5
ENDMDL
MODEL       25
REMARK 921   NORMALIZED FREE ENERGY PREDICTED BY IDOCK:   -6.47 KCAL/MOL
REMARK 922        TOTAL FREE ENERGY PREDICTED BY IDOCK:  -10.21 KCAL/MOL
REMARK 923 INTER-LIGAND FREE ENERGY PREDICTED BY IDOCK:   -9.36 KCAL/MOL
REMARK 924 INTRA-LIGAND FREE ENERGY PREDICTED BY IDOCK:   -0.85 KCAL/MOL
REMARK 927      BINDING AFFINITY PREDICTED BY RF-SCORE:    0.00 PKD
ROOT
HETATM    1  C   UNL     1     -10.047   7.145  71.978  1.00  0.00    -0.177 C  
HETATM    2  C   UNL     1     -10.609   7.202  73.394  1.00  0.00    -0.424 C  
HETATM    3  C   UNL     1     -10.656   5.702  73.806  1.00  0.00    -0.303 C  
HETATM    4  C   UNL     1     -10.481   4.903  72.522  1.00  0.00    -0.205 C  
HETATM    5  N   UNL     1     -10.493   5.891  71.469  1.00  0.00    -0.225 N  
HETATM    6  C   UNL     1      -9.997   5.479  70.258  1.00  0.00    -0.216 C  
HETATM    7  O   UNL     1     -10.271   4.350  69.868  1.00  0.00    -0.163 OA 
HETATM    8  C   UNL     1      -9.204   6.570  69.443  1.00  0.00    -0.144 C  
HETATM    9  C   UNL     1      -9.808   8.314  70.942  1.00  0.00    -0.182 C  
HETATM   10  N   UNL     1      -8.669   7.793  70.270  1.00  0.00    -0.142 N  
HETATM   11  C   UNL     1      -8.270   9.008  69.699  1.00  0.00    -0.116 C  
HETATM   12  H   UNL     1      -9.411  10.159  71.121  1.00  0.00     0.000 HD 
HETATM   13  C   UNL     1      -9.478   9.535  68.873  1.00  0.00    -0.155 C  
HETATM   14  O   UNL     1      -7.190   9.528  69.912  1.00  0.00    -0.069 OA 
HETATM   15  O   UNL     1      -9.556   9.456  71.744  1.00  0.00    -0.239 OA 
HETATM   16  O   UNL     1     -10.512   8.742  69.735  1.00  0.00    -0.211 OA 
HETATM   17  C   UNL     1      -7.491   9.631  66.973  1.00  0.00    -0.091 C  
HETATM   18  C   UNL     1      -9.711   8.799  66.176  1.00  0.00    -0.320 C  
HETATM   19  C   UNL     1      -8.864   9.030  67.430  1.00  0.00    -0.125 C  
ENDROOT
BRANCH   8  20
HETATM   20  C   UNL     1      -8.226   5.819  68.519  1.00  0.00    -0.108 C  
BRANCH  20  21
HETATM   21  C   UNL     1      -8.844   5.589  67.121  1.00  0.00    -0.106 A  
HETATM   22  C   UNL     1      -8.389   4.699  64.916  1.00  0.00    -0.129 A  
HETATM   23  C   UNL     1     -10.625   4.639  65.765  1.00  0.00    -0.264 A  
HETATM   24  C   UNL     1     -10.215   5.312  66.911  1.00  0.00    -0.279 A  
HETATM   25  C   UNL     1      -9.717   4.289  64.786  1.00  0.00    -0.170 A  
HETATM   26  C   UNL     1      -7.955   5.346  66.070  1.00  0.00    -0.105 A  
ENDBRANCH  20  21
ENDBRANCH   8  20
BRANCH  13  27
HETATM   27  N   UNL     1      -9.784  10.985  68.990  1.00  0.00    -0.342 NA 
HETATM   28  H   UNL     1      -9.137  11.661  69.393  1.00  0.00     0.000 HD 
BRANCH  27  29
HETATM   29  C   UNL     1     -10.949  11.308  68.532  1.00  0.00    -0.220 C  
HETATM   30  H   UNL     1     -12.475  10.716  67.376  1.00  0.00     0.000 HD 
HETATM   31  O   UNL     1     -11.619  10.479  67.712  1.00  0.00    -0.462 OA 
BRANCH  29  32
HETATM   32  C   UNL     1     -11.746  12.595  68.752  1.00  0.00    -0.364 C  
HETATM   33  C   UNL     1     -11.115  13.632  69.679  1.00  0.00    -0.008 C  
HETATM   34  N   UNL     1     -11.857  14.903  69.567  1.00  0.00    -0.308 NA 
HETATM   35  C   UNL     1     -11.766  15.576  68.227  1.00  0.00    -0.274 C  
HETATM   36  C   UNL     1     -11.673  15.771  70.715  1.00  0.00    -0.399 C  
HETATM   37  C   UNL     1     -10.795  16.811  68.120  1.00  0.00    -0.353 C  
HETATM   38  C   UNL     1      -9.408  16.300  68.220  1.00  0.00    -0.204 A  
HETATM   39  C   UNL     1      -8.334  16.607  69.019  1.00  0.00    -0.182 A  
HETATM   40  N   UNL     1      -7.407  15.594  68.865  1.00  0.00    -0.141 NA 
HETATM   41  C   UNL     1      -7.861  14.658  67.955  1.00  0.00    -0.133 A  
HETATM   42  H   UNL     1      -6.513  15.545  69.353  1.00  0.00     0.000 HD 
HETATM   43  C   UNL     1      -7.376  13.410  67.562  1.00  0.00    -0.165 A  
HETATM   44  C   UNL     1      -8.175  12.667  66.674  1.00  0.00     0.129 A  
HETATM   45  C   UNL     1      -9.459  13.089  66.304  1.00  0.00    -0.199 A  
HETATM   46  C   UNL     1      -9.995  14.252  66.867  1.00  0.00    -0.263 A  
HETATM   47  C   UNL     1     -11.487  14.527  67.052  1.00  0.00    -0.383 C  
HETATM   48  C   UNL     1      -9.104  15.096  67.550  1.00  0.00    -0.187 A  
HETATM   49  C   UNL     1     -12.268  13.250  67.433  1.00  0.00    -0.236 C  
ENDBRANCH  29  32
ENDBRANCH  27  29
ENDBRANCH  13  27
TORSDOF 5
ENDMDL
MODEL       26
REMARK 921   NORMALIZED FREE ENERGY PREDICTED BY IDOCK:   -6.47 KCAL/MOL
REMARK 922        TOTAL FREE ENERGY PREDICTED BY IDOCK:  -10.21 KCAL/MOL
REMARK 923 INTER-LIGAND FREE ENERGY PREDICTED BY IDOCK:   -9.43 KCAL/MOL
REMARK 924 INTRA-LIGAND FREE ENERGY PREDICTED BY IDOCK:   -0.78 KCAL/MOL
REMARK 927      BINDING AFFINITY PREDICTED BY RF-SCORE:    0.00 PKD
ROOT
HETATM    1  C   UNL     1     -11.031   8.322  70.802  1.00  0.00    -0.243 C  
HETATM    2  C   UNL     1     -12.336   8.746  71.466  1.00  0.00    -0.380 C  
HETATM    3  C   UNL     1     -13.102   7.400  71.612  1.00  0.00    -0.412 C  
HETATM    4  C   UNL     1     -12.376   6.400  70.722  1.00  0.00     0.145 C  
HETATM    5  N   UNL     1     -11.382   7.181  70.024  1.00  0.00    -0.241 N  
HETATM    6  C   UNL     1     -10.368   6.470  69.437  1.00  0.00    -0.205 C  
HETATM    7  O   UNL     1     -10.643   5.417  68.873  1.00  0.00    -0.202 OA 
HETATM    8  C   UNL     1      -8.950   7.158  69.466  1.00  0.00    -0.140 C  
HETATM    9  C   UNL     1      -9.821   9.207  70.301  1.00  0.00    -0.207 C  
HETATM   10  N   UNL     1      -8.758   8.292  70.535  1.00  0.00    -0.136 N  
HETATM   11  C   UNL     1      -7.734   9.247  70.486  1.00  0.00    -0.148 C  
HETATM   12  H   UNL     1      -9.103  10.873  70.853  1.00  0.00     0.000 HD 
HETATM   13  C   UNL     1      -7.849   9.960  69.109  1.00  0.00    -0.105 C  
HETATM   14  O   UNL     1      -6.979   9.470  71.414  1.00  0.00    -0.316 OA 
HETATM   15  O   UNL     1      -9.831  10.340  71.154  1.00  0.00     0.712 OA 
HETATM   16  O   UNL     1      -9.370   9.628  68.976  1.00  0.00    -0.148 OA 
HETATM   17  C   UNL     1      -5.204   9.209  69.065  1.00  0.00    -0.037 C  
HETATM   18  C   UNL     1      -6.445   8.921  66.914  1.00  0.00    -0.060 C  
HETATM   19  C   UNL     1      -6.628   9.093  68.423  1.00  0.00    -0.059 C  
ENDROOT
BRANCH   8  20
HETATM   20  C   UNL     1      -7.901   6.034  69.386  1.00  0.00    -0.099 C  
BRANCH  20  21
HETATM   21  C   UNL     1      -7.533   5.514  70.795  1.00  0.00    -0.088 A  
HETATM   22  C   UNL     1      -7.654   3.580  72.247  1.00  0.00    -0.058 A  
HETATM   23  C   UNL     1      -5.831   5.111  72.484  1.00  0.00    -0.025 A  
HETATM   24  C   UNL     1      -6.381   5.928  71.502  1.00  0.00    -0.048 A  
HETATM   25  C   UNL     1      -6.432   3.918  72.831  1.00  0.00    -0.032 A  
HETATM   26  C   UNL     1      -8.203   4.369  71.240  1.00  0.00    -0.084 A  
ENDBRANCH  20  21
ENDBRANCH   8  20
BRANCH  13  27
HETATM   27  N   UNL     1      -7.691  11.438  69.107  1.00  0.00    -0.323 NA 
HETATM   28  H   UNL     1      -7.188  11.946  69.835  1.00  0.00     0.000 HD 
BRANCH  27  29
HETATM   29  C   UNL     1      -8.249  12.020  68.098  1.00  0.00    -0.163 C  
HETATM   30  H   UNL     1      -8.354  12.082  66.097  1.00  0.00     0.000 HD 
HETATM   31  O   UNL     1      -7.944  11.655  66.840  1.00  0.00    -0.158 OA 
BRANCH  29  32
HETATM   32  C   UNL     1      -9.255  13.172  68.086  1.00  0.00    -0.215 C  
HETATM   33  C   UNL     1      -9.409  13.923  66.765  1.00  0.00    -0.275 C  
HETATM   34  N   UNL     1     -10.593  14.801  66.836  1.00  0.00    -0.289 NA 
HETATM   35  C   UNL     1     -11.909  14.087  66.952  1.00  0.00    -0.430 C  
HETATM   36  C   UNL     1     -10.554  15.886  65.873  1.00  0.00    -0.337 C  
HETATM   37  C   UNL     1     -12.783  13.997  65.645  1.00  0.00    -0.515 C  
HETATM   38  C   UNL     1     -12.096  13.074  64.710  1.00  0.00    -0.465 A  
HETATM   39  C   UNL     1     -11.683  13.174  63.404  1.00  0.00    -0.350 A  
HETATM   40  N   UNL     1     -10.831  12.113  63.163  1.00  0.00    -0.658 NA 
HETATM   41  C   UNL     1     -10.717  11.320  64.289  1.00  0.00    -0.349 A  
HETATM   42  H   UNL     1     -10.354  11.940  62.278  1.00  0.00     0.000 HD 
HETATM   43  C   UNL     1      -9.897  10.235  64.601  1.00  0.00    -0.396 A  
HETATM   44  C   UNL     1      -9.977   9.732  65.913  1.00  0.00    -0.345 A  
HETATM   45  C   UNL     1     -10.738  10.367  66.904  1.00  0.00    -0.272 A  
HETATM   46  C   UNL     1     -11.399  11.564  66.608  1.00  0.00    -0.285 A  
HETATM   47  C   UNL     1     -11.746  12.647  67.630  1.00  0.00    -0.420 C  
HETATM   48  C   UNL     1     -11.505  11.914  65.251  1.00  0.00    -0.313 A  
HETATM   49  C   UNL     1     -10.644  12.807  68.701  1.00  0.00    -0.256 C  
ENDBRANCH  29  32
ENDBRANCH  27  29
ENDBRANCH  13  27
TORSDOF 5
ENDMDL
MODEL       27
REMARK 921   NORMALIZED FREE ENERGY PREDICTED BY IDOCK:   -6.44 KCAL/MOL
REMARK 922        TOTAL FREE ENERGY PREDICTED BY IDOCK:  -10.17 KCAL/MOL
REMARK 923 INTER-LIGAND FREE ENERGY PREDICTED BY IDOCK:   -9.39 KCAL/MOL
REMARK 924 INTRA-LIGAND FREE ENERGY PREDICTED BY IDOCK:   -0.78 KCAL/MOL
REMARK 927      BINDING AFFINITY PREDICTED BY RF-SCORE:    0.00 PKD
ROOT
HETATM    1  C   UNL     1     -10.669  11.690  64.965  1.00  0.00    -0.296 C  
HETATM    2  C   UNL     1     -10.880  11.708  63.455  1.00  0.00    -0.497 C  
HETATM    3  C   UNL     1     -11.733  12.992  63.242  1.00  0.00    -0.349 C  
HETATM    4  C   UNL     1     -12.245  13.395  64.618  1.00  0.00    -0.407 C  
HETATM    5  N   UNL     1     -11.830  12.325  65.494  1.00  0.00    -0.394 N  
HETATM    6  C   UNL     1     -11.848  12.608  66.835  1.00  0.00    -0.355 C  
HETATM    7  O   UNL     1     -12.782  13.266  67.281  1.00  0.00     0.103 OA 
HETATM    8  C   UNL     1     -10.695  11.951  67.685  1.00  0.00    -0.215 C  
HETATM    9  C   UNL     1      -9.945  10.613  65.868  1.00  0.00    -0.255 C  
HETATM   10  N   UNL     1      -9.436  11.472  66.880  1.00  0.00    -0.179 N  
HETATM   11  C   UNL     1      -8.490  10.564  67.375  1.00  0.00    -0.122 C  
HETATM   12  H   UNL     1      -8.527   9.393  65.564  1.00  0.00     0.000 HD 
HETATM   13  C   UNL     1      -9.268   9.278  67.775  1.00  0.00    -0.129 C  
HETATM   14  O   UNL     1      -7.293  10.783  67.392  1.00  0.00    -0.090 OA 
HETATM   15  O   UNL     1      -8.962  10.040  65.021  1.00  0.00    -0.169 OA 
HETATM   16  O   UNL     1     -10.433   9.579  66.778  1.00  0.00    -0.239 OA 
HETATM   17  C   UNL     1      -7.898   9.779  70.106  1.00  0.00    -0.196 C  
HETATM   18  C   UNL     1     -10.273   9.046  70.383  1.00  0.00    -0.250 C  
HETATM   19  C   UNL     1      -9.280   9.640  69.381  1.00  0.00    -0.196 C  
ENDROOT
BRANCH   8  20
HETATM   20  C   UNL     1     -10.485  12.840  68.924  1.00  0.00    -0.106 C  
BRANCH  20  21
HETATM   21  C   UNL     1     -11.738  12.843  69.829  1.00  0.00    -0.351 A  
HETATM   22  C   UNL     1     -13.002  11.509  71.406  1.00  0.00    -0.450 A  
HETATM   23  C   UNL     1     -13.012  13.892  71.615  1.00  0.00    -0.433 A  
HETATM   24  C   UNL     1     -12.238  14.003  70.464  1.00  0.00    -0.435 A  
HETATM   25  C   UNL     1     -13.361  12.655  72.118  1.00  0.00    -0.570 A  
HETATM   26  C   UNL     1     -12.202  11.599  70.271  1.00  0.00    -0.401 A  
ENDBRANCH  20  21
ENDBRANCH   8  20
BRANCH  13  27
HETATM   27  N   UNL     1      -8.651   7.980  67.395  1.00  0.00    -0.125 NA 
HETATM   28  H   UNL     1      -7.650   7.799  67.458  1.00  0.00     0.000 HD 
BRANCH  27  29
HETATM   29  C   UNL     1      -9.502   7.102  66.977  1.00  0.00    -0.155 C  
HETATM   30  H   UNL     1     -11.418   6.518  67.046  1.00  0.00     0.000 HD 
HETATM   31  O   UNL     1     -10.792   7.163  67.353  1.00  0.00    -0.282 OA 
BRANCH  29  32
HETATM   32  C   UNL     1      -9.268   5.884  66.081  1.00  0.00    -0.164 C  
HETATM   33  C   UNL     1      -7.831   5.377  65.991  1.00  0.00    -0.103 C  
HETATM   34  N   UNL     1      -7.818   4.057  65.329  1.00  0.00    -0.088 NA 
HETATM   35  C   UNL     1      -8.497   2.957  66.092  1.00  0.00    -0.105 C  
HETATM   36  C   UNL     1      -6.526   3.719  64.762  1.00  0.00    -0.035 C  
HETATM   37  C   UNL     1      -7.562   1.935  66.843  1.00  0.00    -0.065 C  
HETATM   38  C   UNL     1      -6.933   2.654  67.977  1.00  0.00    -0.048 A  
HETATM   39  C   UNL     1      -5.636   2.834  68.388  1.00  0.00    -0.018 A  
HETATM   40  N   UNL     1      -5.643   3.846  69.329  1.00  0.00    -0.016 NA 
HETATM   41  C   UNL     1      -6.932   4.295  69.546  1.00  0.00    -0.046 A  
HETATM   42  H   UNL     1      -4.814   4.211  69.798  1.00  0.00     0.000 HD 
HETATM   43  C   UNL     1      -7.449   5.365  70.277  1.00  0.00    -0.072 A  
HETATM   44  C   UNL     1      -8.835   5.592  70.181  1.00  0.00    -0.147 A  
HETATM   45  C   UNL     1      -9.642   4.871  69.291  1.00  0.00    -0.241 A  
HETATM   46  C   UNL     1      -9.060   3.934  68.431  1.00  0.00    -0.189 A  
HETATM   47  C   UNL     1      -9.628   3.522  67.073  1.00  0.00    -0.155 C  
HETATM   48  C   UNL     1      -7.737   3.553  68.709  1.00  0.00    -0.052 A  
HETATM   49  C   UNL     1     -10.273   4.713  66.330  1.00  0.00    -0.306 C  
ENDBRANCH  29  32
ENDBRANCH  27  29
ENDBRANCH  13  27
TORSDOF 5
ENDMDL
MODEL       28
REMARK 921   NORMALIZED FREE ENERGY PREDICTED BY IDOCK:   -6.37 KCAL/MOL
REMARK 922        TOTAL FREE ENERGY PREDICTED BY IDOCK:  -10.08 KCAL/MOL
REMARK 923 INTER-LIGAND FREE ENERGY PREDICTED BY IDOCK:  -10.25 KCAL/MOL
REMARK 924 INTRA-LIGAND FREE ENERGY PREDICTED BY IDOCK:    0.17 KCAL/MOL
REMARK 927      BINDING AFFINITY PREDICTED BY RF-SCORE:    0.00 PKD
ROOT
HETATM    1  C   UNL     1      -6.694   9.792  68.031  1.00  0.00    -0.061 C  
HETATM    2  C   UNL     1      -5.242   9.361  67.861  1.00  0.00    -0.037 C  
HETATM    3  C   UNL     1      -5.224   7.947  68.510  1.00  0.00    -0.027 C  
HETATM    4  C   UNL     1      -6.516   7.829  69.306  1.00  0.00    -0.036 C  
HETATM    5  N   UNL     1      -7.122   9.137  69.222  1.00  0.00    -0.057 N  
HETATM    6  C   UNL     1      -8.453   9.201  69.544  1.00  0.00    -0.128 C  
HETATM    7  O   UNL     1      -8.857   8.538  70.494  1.00  0.00    -0.139 OA 
HETATM    8  C   UNL     1      -9.307  10.225  68.704  1.00  0.00    -0.162 C  
HETATM    9  C   UNL     1      -7.389  11.161  67.657  1.00  0.00    -0.095 C  
HETATM   10  N   UNL     1      -8.686  10.677  67.335  1.00  0.00    -0.126 N  
HETATM   11  C   UNL     1      -9.094  11.817  66.630  1.00  0.00    -0.194 C  
HETATM   12  H   UNL     1      -7.062  12.473  66.327  1.00  0.00     0.000 HD 
HETATM   13  C   UNL     1      -8.940  13.024  67.599  1.00  0.00    -0.192 C  
HETATM   14  O   UNL     1      -9.426  11.800  65.459  1.00  0.00    -0.227 OA 
HETATM   15  O   UNL     1      -6.644  11.649  66.553  1.00  0.00    -0.087 OA 
HETATM   16  O   UNL     1      -7.846  12.302  68.448  1.00  0.00    -0.143 OA 
HETATM   17  C   UNL     1     -11.553  13.348  66.806  1.00  0.00    -0.404 C  
HETATM   18  C   UNL     1     -11.102  13.745  69.234  1.00  0.00    -0.253 C  
HETATM   19  C   UNL     1     -10.543  13.081  67.973  1.00  0.00    -0.246 C  
ENDROOT
BRANCH   8  20
HETATM   20  C   UNL     1     -10.762   9.721  68.723  1.00  0.00    -0.243 C  
BRANCH  20  21
HETATM   21  C   UNL     1     -11.379   9.850  70.135  1.00  0.00    -0.335 A  
HETATM   22  C   UNL     1     -12.914  11.158  71.475  1.00  0.00    -0.542 A  
HETATM   23  C   UNL     1     -12.619   8.835  71.964  1.00  0.00    -0.447 A  
HETATM   24  C   UNL     1     -11.648   8.743  70.972  1.00  0.00    -0.337 A  
HETATM   25  C   UNL     1     -13.287  10.021  72.193  1.00  0.00    -0.469 A  
HETATM   26  C   UNL     1     -11.967  11.078  70.457  1.00  0.00    -0.474 A  
ENDBRANCH  20  21
ENDBRANCH   8  20
BRANCH  13  27
HETATM   27  N   UNL     1      -8.350  14.264  67.032  1.00  0.00    -0.351 NA 
HETATM   28  H   UNL     1      -8.462  14.540  66.057  1.00  0.00     0.000 HD 
BRANCH  27  29
HETATM   29  C   UNL     1      -7.681  14.961  67.890  1.00  0.00    -0.141 C  
HETATM   30  H   UNL     1      -7.303  15.233  69.839  1.00  0.00     0.000 HD 
HETATM   31  O   UNL     1      -7.795  14.721  69.208  1.00  0.00    -0.161 OA 
BRANCH  29  32
HETATM   32  C   UNL     1      -6.728  16.133  67.645  1.00  0.00    -0.177 C  
HETATM   33  C   UNL     1      -7.010  16.988  66.411  1.00  0.00    -0.232 C  
HETATM   34  N   UNL     1      -6.194  18.216  66.471  1.00  0.00    -0.167 NA 
HETATM   35  C   UNL     1      -6.536  19.154  67.593  1.00  0.00    -0.212 C  
HETATM   36  C   UNL     1      -6.009  18.838  65.172  1.00  0.00    -0.269 C  
HETATM   37  C   UNL     1      -7.375  20.432  67.217  1.00  0.00    -0.353 C  
HETATM   38  C   UNL     1      -8.742  19.982  66.862  1.00  0.00    -0.417 A  
HETATM   39  C   UNL     1      -9.556  20.172  65.773  1.00  0.00    -0.094 A  
HETATM   40  N   UNL     1     -10.589  19.261  65.871  1.00  0.00    -0.480 NA 
HETATM   41  C   UNL     1     -10.464  18.509  67.024  1.00  0.00    -0.402 A  
HETATM   42  H   UNL     1     -11.341  19.157  65.188  1.00  0.00     0.000 HD 
HETATM   43  C   UNL     1     -11.152  17.395  67.506  1.00  0.00     0.052 A  
HETATM   44  C   UNL     1     -10.668  16.811  68.691  1.00  0.00    -0.352 A  
HETATM   45  C   UNL     1      -9.475  17.234  69.291  1.00  0.00     0.056 A  
HETATM   46  C   UNL     1      -8.706  18.228  68.678  1.00  0.00    -0.290 A  
HETATM   47  C   UNL     1      -7.193  18.384  68.832  1.00  0.00    -0.286 C  
HETATM   48  C   UNL     1      -9.317  18.958  67.644  1.00  0.00    -0.331 A  
HETATM   49  C   UNL     1      -6.476  17.018  68.908  1.00  0.00    -0.189 C  
ENDBRANCH  29  32
ENDBRANCH  27  29
ENDBRANCH  13  27
TORSDOF 5
ENDMDL
MODEL       29
REMARK 921   NORMALIZED FREE ENERGY PREDICTED BY IDOCK:   -6.32 KCAL/MOL
REMARK 922        TOTAL FREE ENERGY PREDICTED BY IDOCK:  -10.01 KCAL/MOL
REMARK 923 INTER-LIGAND FREE ENERGY PREDICTED BY IDOCK:   -8.16 KCAL/MOL
REMARK 924 INTRA-LIGAND FREE ENERGY PREDICTED BY IDOCK:   -1.84 KCAL/MOL
REMARK 927      BINDING AFFINITY PREDICTED BY RF-SCORE:    0.00 PKD
ROOT
HETATM    1  C   UNL     1     -10.939  12.004  64.782  1.00  0.00    -0.311 C  
HETATM    2  C   UNL     1     -11.599  11.931  63.410  1.00  0.00    -0.477 C  
HETATM    3  C   UNL     1     -12.346  13.292  63.313  1.00  0.00    -0.317 C  
HETATM    4  C   UNL     1     -12.371  13.864  64.725  1.00  0.00    -0.400 C  
HETATM    5  N   UNL     1     -11.814  12.821  65.554  1.00  0.00    -0.398 N  
HETATM    6  C   UNL     1     -11.394  13.209  66.800  1.00  0.00    -0.316 C  
HETATM    7  O   UNL     1     -12.079  14.013  67.424  1.00  0.00    -0.402 OA 
HETATM    8  C   UNL     1     -10.106  12.478  67.342  1.00  0.00    -0.210 C  
HETATM    9  C   UNL     1     -10.082  10.918  65.547  1.00  0.00    -0.267 C  
HETATM   10  N   UNL     1      -9.206  11.782  66.260  1.00  0.00    -0.220 N  
HETATM   11  C   UNL     1      -8.248  10.803  66.554  1.00  0.00    -0.148 C  
HETATM   12  H   UNL     1      -8.950   9.508  64.979  1.00  0.00     0.000 HD 
HETATM   13  C   UNL     1      -8.988   9.661  67.308  1.00  0.00    -0.134 C  
HETATM   14  O   UNL     1      -7.088  10.869  66.193  1.00  0.00    -0.135 OA 
HETATM   15  O   UNL     1      -9.465  10.161  64.519  1.00  0.00    -0.261 OA 
HETATM   16  O   UNL     1     -10.366  10.029  66.671  1.00  0.00    -0.234 OA 
HETATM   17  C   UNL     1      -6.929  10.165  69.059  1.00  0.00    -0.058 C  
HETATM   18  C   UNL     1      -9.165   9.764  70.105  1.00  0.00    -0.253 C  
HETATM   19  C   UNL     1      -8.472  10.146  68.795  1.00  0.00    -0.131 C  
ENDROOT
BRANCH   8  20
HETATM   20  C   UNL     1      -9.442  13.428  68.355  1.00  0.00    -0.176 C  
BRANCH  20  21
HETATM   21  C   UNL     1      -8.310  14.247  67.693  1.00  0.00    -0.187 A  
HETATM   22  C   UNL     1      -7.798  16.376  66.661  1.00  0.00    -0.316 A  
HETATM   23  C   UNL     1      -6.076  15.197  67.830  1.00  0.00    -0.170 A  
HETATM   24  C   UNL     1      -6.950  14.142  68.067  1.00  0.00    -0.149 A  
HETATM   25  C   UNL     1      -6.499  16.334  67.170  1.00  0.00    -0.214 A  
HETATM   26  C   UNL     1      -8.696  15.344  66.915  1.00  0.00    -0.285 A  
ENDBRANCH  20  21
ENDBRANCH   8  20
BRANCH  13  27
HETATM   27  N   UNL     1      -8.646   8.269  66.912  1.00  0.00    -0.117 NA 
HETATM   28  H   UNL     1      -7.710   7.985  66.626  1.00  0.00     0.000 HD 
BRANCH  27  29
HETATM   29  C   UNL     1      -9.647   7.454  66.965  1.00  0.00    -0.172 C  
HETATM   30  H   UNL     1     -11.425   7.097  67.818  1.00  0.00     0.000 HD 
HETATM   31  O   UNL     1     -10.689   7.697  67.780  1.00  0.00    -0.214 OA 
BRANCH  29  32
HETATM   32  C   UNL     1      -9.850   6.131  66.224  1.00  0.00    -0.081 C  
HETATM   33  C   UNL     1      -8.616   5.535  65.551  1.00  0.00    -0.150 C  
HETATM   34  N   UNL     1      -8.909   4.151  65.129  1.00  0.00    -0.125 NA 
HETATM   35  C   UNL     1      -9.158   3.184  66.251  1.00  0.00    -0.151 C  
HETATM   36  C   UNL     1      -8.023   3.677  64.081  1.00  0.00    -0.086 C  
HETATM   37  C   UNL     1      -7.981   2.202  66.613  1.00  0.00    -0.076 C  
HETATM   38  C   UNL     1      -6.901   3.006  67.232  1.00  0.00    -0.045 A  
HETATM   39  C   UNL     1      -5.560   3.158  66.978  1.00  0.00    -0.021 A  
HETATM   40  N   UNL     1      -5.134   4.268  67.681  1.00  0.00    -0.007 NA 
HETATM   41  C   UNL     1      -6.178   4.812  68.405  1.00  0.00    -0.032 A  
HETATM   42  H   UNL     1      -4.182   4.635  67.668  1.00  0.00     0.000 HD 
HETATM   43  C   UNL     1      -6.302   5.985  69.150  1.00  0.00    -0.041 A  
HETATM   44  C   UNL     1      -7.576   6.278  69.670  1.00  0.00    -0.094 A  
HETATM   45  C   UNL     1      -8.702   5.510  69.348  1.00  0.00    -0.107 A  
HETATM   46  C   UNL     1      -8.580   4.450  68.443  1.00  0.00    -0.106 A  
HETATM   47  C   UNL     1      -9.710   3.920  67.559  1.00  0.00    -0.164 C  
HETATM   48  C   UNL     1      -7.277   4.027  68.130  1.00  0.00    -0.059 A  
HETATM   49  C   UNL     1     -10.626   5.055  67.050  1.00  0.00    -0.146 C  
ENDBRANCH  29  32
ENDBRANCH  27  29
ENDBRANCH  13  27
TORSDOF 5
ENDMDL
MODEL       30
REMARK 921   NORMALIZED FREE ENERGY PREDICTED BY IDOCK:   -6.31 KCAL/MOL
REMARK 922        TOTAL FREE ENERGY PREDICTED BY IDOCK:  -10.00 KCAL/MOL
REMARK 923 INTER-LIGAND FREE ENERGY PREDICTED BY IDOCK:   -8.18 KCAL/MOL
REMARK 924 INTRA-LIGAND FREE ENERGY PREDICTED BY IDOCK:   -1.82 KCAL/MOL
REMARK 927      BINDING AFFINITY PREDICTED BY RF-SCORE:    0.00 PKD
ROOT
HETATM    1  C   UNL     1      -7.769   9.454  69.768  1.00  0.00    -0.110 C  
HETATM    2  C   UNL     1      -6.784   9.389  70.930  1.00  0.00    -0.097 C  
HETATM    3  C   UNL     1      -7.248   8.122  71.705  1.00  0.00    -0.089 C  
HETATM    4  C   UNL     1      -8.632   7.781  71.171  1.00  0.00    -0.131 C  
HETATM    5  N   UNL     1      -8.963   8.869  70.282  1.00  0.00    -0.168 N  
HETATM    6  C   UNL     1      -9.988   8.632  69.403  1.00  0.00    -0.197 C  
HETATM    7  O   UNL     1     -10.970   8.016  69.802  1.00  0.00    -0.227 OA 
HETATM    8  C   UNL     1      -9.827   9.287  67.978  1.00  0.00    -0.163 C  
HETATM    9  C   UNL     1      -7.914  10.540  68.630  1.00  0.00    -0.124 C  
HETATM   10  N   UNL     1      -8.368   9.703  67.574  1.00  0.00    -0.117 N  
HETATM   11  C   UNL     1      -8.070  10.601  66.541  1.00  0.00    -0.140 C  
HETATM   12  H   UNL     1      -6.692  11.710  67.775  1.00  0.00     0.000 HD 
HETATM   13  C   UNL     1      -8.828  11.921  66.859  1.00  0.00    -0.197 C  
HETATM   14  O   UNL     1      -7.297  10.350  65.635  1.00  0.00    -0.143 OA 
HETATM   15  O   UNL     1      -6.604  11.057  68.460  1.00  0.00    -0.056 OA 
HETATM   16  O   UNL     1      -8.872  11.618  68.391  1.00  0.00    -0.162 OA 
HETATM   17  C   UNL     1      -9.679  11.463  64.284  1.00  0.00    -0.263 C  
HETATM   18  C   UNL     1     -11.431  12.270  65.875  1.00  0.00    -0.428 C  
HETATM   19  C   UNL     1     -10.050  11.615  65.798  1.00  0.00    -0.278 C  
ENDROOT
BRANCH   8  20
HETATM   20  C   UNL     1     -10.651   8.435  66.994  1.00  0.00    -0.316 C  
BRANCH  20  21
HETATM   21  C   UNL     1      -9.943   7.095  66.688  1.00  0.00    -0.234 A  
HETATM   22  C   UNL     1     -10.332   4.744  66.261  1.00  0.00    -0.329 A  
HETATM   23  C   UNL     1      -8.432   5.815  65.277  1.00  0.00    -0.148 A  
HETATM   24  C   UNL     1      -8.749   6.998  65.938  1.00  0.00    -0.140 A  
HETATM   25  C   UNL     1      -9.237   4.700  65.395  1.00  0.00    -0.155 A  
HETATM   26  C   UNL     1     -10.682   5.927  66.905  1.00  0.00    -0.395 A  
ENDBRANCH  20  21
ENDBRANCH   8  20
BRANCH  13  27
HETATM   27  N   UNL     1      -8.078  13.188  66.654  1.00  0.00    -0.355 NA 
HETATM   28  H   UNL     1      -7.451  13.344  65.865  1.00  0.00     0.000 HD 
BRANCH  27  29
HETATM   29  C   UNL     1      -8.294  14.074  67.569  1.00  0.00    -0.192 C  
HETATM   30  H   UNL     1      -7.490  15.051  69.124  1.00  0.00     0.000 HD 
HETATM   31  O   UNL     1      -7.332  14.400  68.451  1.00  0.00    -0.101 OA 
BRANCH  29  32
HETATM   32  C   UNL     1      -9.575  14.855  67.870  1.00  0.00    -0.205 C  
HETATM   33  C   UNL     1      -9.541  15.764  69.097  1.00  0.00    -0.255 C  
HETATM   34  N   UNL     1     -10.728  16.641  69.088  1.00  0.00    -0.336 NA 
HETATM   35  C   UNL     1     -10.778  17.631  67.960  1.00  0.00    -0.328 C  
HETATM   36  C   UNL     1     -11.050  17.173  70.400  1.00  0.00     0.796 C  
HETATM   37  C   UNL     1     -10.406  19.121  68.309  1.00  0.00    -0.448 C  
HETATM   38  C   UNL     1      -8.951  19.164  68.593  1.00  0.00    -0.411 A  
HETATM   39  C   UNL     1      -8.200  19.627  69.645  1.00  0.00     0.435 A  
HETATM   40  N   UNL     1      -6.924  19.120  69.489  1.00  0.00    -0.231 NA 
HETATM   41  C   UNL     1      -6.842  18.362  68.336  1.00  0.00    -0.241 A  
HETATM   42  H   UNL     1      -6.150  19.282  70.134  1.00  0.00     0.000 HD 
HETATM   43  C   UNL     1      -5.841  17.545  67.812  1.00  0.00    -0.150 A  
HETATM   44  C   UNL     1      -6.154  16.823  66.645  1.00  0.00    -0.104 A  
HETATM   45  C   UNL     1      -7.447  16.812  66.106  1.00  0.00    -0.119 A  
HETATM   46  C   UNL     1      -8.477  17.490  66.765  1.00  0.00    -0.275 A  
HETATM   47  C   UNL     1      -9.959  17.121  66.684  1.00  0.00    -0.298 C  
HETATM   48  C   UNL     1      -8.101  18.391  67.775  1.00  0.00    -0.264 A  
HETATM   49  C   UNL     1     -10.173  15.593  66.629  1.00  0.00    -0.283 C  
ENDBRANCH  29  32
ENDBRANCH  27  29
ENDBRANCH  13  27
TORSDOF 5
ENDMDL
MODEL       31
REMARK 921   NORMALIZED FREE ENERGY PREDICTED BY IDOCK:   -6.24 KCAL/MOL
REMARK 922        TOTAL FREE ENERGY PREDICTED BY IDOCK:   -9.91 KCAL/MOL
REMARK 923 INTER-LIGAND FREE ENERGY PREDICTED BY IDOCK:   -8.17 KCAL/MOL
REMARK 924 INTRA-LIGAND FREE ENERGY PREDICTED BY IDOCK:   -1.74 KCAL/MOL
REMARK 927      BINDING AFFINITY PREDICTED BY RF-SCORE:    0.00 PKD
ROOT
HETATM    1  C   UNL     1     -10.813  12.249  64.844  1.00  0.00    -0.302 C  
HETATM    2  C   UNL     1     -11.310  12.231  63.403  1.00  0.00    -0.508 C  
HETATM    3  C   UNL     1     -12.260  13.462  63.350  1.00  0.00    -0.419 C  
HETATM    4  C   UNL     1     -12.522  13.859  64.797  1.00  0.00    -0.354 C  
HETATM    5  N   UNL     1     -11.886  12.827  65.582  1.00  0.00    -0.402 N  
HETATM    6  C   UNL     1     -11.665  13.132  66.901  1.00  0.00    -0.387 C  
HETATM    7  O   UNL     1     -12.533  13.744  67.513  1.00  0.00    -0.178 OA 
HETATM    8  C   UNL     1     -10.334  12.553  67.518  1.00  0.00    -0.220 C  
HETATM    9  C   UNL     1      -9.870  11.230  65.598  1.00  0.00    -0.234 C  
HETATM   10  N   UNL     1      -9.226  12.132  66.489  1.00  0.00    -0.216 N  
HETATM   11  C   UNL     1      -8.153  11.286  66.798  1.00  0.00    -0.159 C  
HETATM   12  H   UNL     1      -8.467  10.085  65.035  1.00  0.00     0.000 HD 
HETATM   13  C   UNL     1      -8.764   9.965  67.347  1.00  0.00    -0.128 C  
HETATM   14  O   UNL     1      -6.990  11.572  66.585  1.00  0.00    -0.131 OA 
HETATM   15  O   UNL     1      -9.035  10.698  64.582  1.00  0.00    -0.191 OA 
HETATM   16  O   UNL     1     -10.113  10.185  66.590  1.00  0.00    -0.205 OA 
HETATM   17  C   UNL     1      -7.006  10.581  69.369  1.00  0.00    -0.099 C  
HETATM   18  C   UNL     1      -9.237   9.721  70.101  1.00  0.00    -0.253 C  
HETATM   19  C   UNL     1      -8.490  10.353  68.924  1.00  0.00    -0.144 C  
ENDROOT
BRANCH   8  20
HETATM   20  C   UNL     1      -9.943  13.473  68.689  1.00  0.00    -0.149 C  
BRANCH  20  21
HETATM   21  C   UNL     1      -9.158  14.708  68.190  1.00  0.00    -0.187 A  
HETATM   22  C   UNL     1      -6.977  15.459  67.454  1.00  0.00    -0.222 A  
HETATM   23  C   UNL     1      -8.937  16.525  66.589  1.00  0.00    -0.285 A  
HETATM   24  C   UNL     1      -9.736  15.736  67.410  1.00  0.00    -0.223 A  
HETATM   25  C   UNL     1      -7.566  16.365  66.570  1.00  0.00    -0.258 A  
HETATM   26  C   UNL     1      -7.762  14.640  68.260  1.00  0.00    -0.123 A  
ENDBRANCH  20  21
ENDBRANCH   8  20
BRANCH  13  27
HETATM   27  N   UNL     1      -8.158   8.698  66.863  1.00  0.00    -0.098 NA 
HETATM   28  H   UNL     1      -7.338   8.667  66.257  1.00  0.00     0.000 HD 
BRANCH  27  29
HETATM   29  C   UNL     1      -8.766   7.637  67.281  1.00  0.00    -0.124 C  
HETATM   30  H   UNL     1     -10.351   6.443  67.005  1.00  0.00     0.000 HD 
HETATM   31  O   UNL     1      -9.904   7.223  66.698  1.00  0.00    -0.208 OA 
BRANCH  29  32
HETATM   32  C   UNL     1      -8.402   6.716  68.447  1.00  0.00    -0.122 C  
HETATM   33  C   UNL     1      -9.229   5.439  68.584  1.00  0.00    -0.117 C  
HETATM   34  N   UNL     1      -8.585   4.542  69.564  1.00  0.00    -0.080 NA 
HETATM   35  C   UNL     1      -7.242   4.010  69.152  1.00  0.00    -0.054 C  
HETATM   36  C   UNL     1      -9.499   3.564  70.125  1.00  0.00    -0.182 C  
HETATM   37  C   UNL     1      -7.198   2.521  68.640  1.00  0.00    -0.047 C  
HETATM   38  C   UNL     1      -7.881   2.479  67.325  1.00  0.00    -0.069 A  
HETATM   39  C   UNL     1      -8.907   1.729  66.808  1.00  0.00    -0.120 A  
HETATM   40  N   UNL     1      -9.313   2.343  65.639  1.00  0.00    -0.340 NA 
HETATM   41  C   UNL     1      -8.541   3.461  65.386  1.00  0.00    -0.111 A  
HETATM   42  H   UNL     1     -10.076   2.018  65.045  1.00  0.00     0.000 HD 
HETATM   43  C   UNL     1      -8.630   4.476  64.433  1.00  0.00    -0.138 A  
HETATM   44  C   UNL     1      -7.714   5.538  64.546  1.00  0.00    -0.090 A  
HETATM   45  C   UNL     1      -6.842   5.651  65.637  1.00  0.00    -0.056 A  
HETATM   46  C   UNL     1      -6.908   4.716  66.676  1.00  0.00    -0.052 A  
HETATM   47  C   UNL     1      -6.504   4.989  68.125  1.00  0.00    -0.041 C  
HETATM   48  C   UNL     1      -7.646   3.546  66.432  1.00  0.00    -0.077 A  
HETATM   49  C   UNL     1      -6.872   6.422  68.569  1.00  0.00    -0.071 C  
ENDBRANCH  29  32
ENDBRANCH  27  29
ENDBRANCH  13  27
TORSDOF 5
ENDMDL
MODEL       32
REMARK 921   NORMALIZED FREE ENERGY PREDICTED BY IDOCK:   -6.23 KCAL/MOL
REMARK 922        TOTAL FREE ENERGY PREDICTED BY IDOCK:   -9.89 KCAL/MOL
REMARK 923 INTER-LIGAND FREE ENERGY PREDICTED BY IDOCK:   -8.29 KCAL/MOL
REMARK 924 INTRA-LIGAND FREE ENERGY PREDICTED BY IDOCK:   -1.60 KCAL/MOL
REMARK 927      BINDING AFFINITY PREDICTED BY RF-SCORE:    0.00 PKD
ROOT
HETATM    1  C   UNL     1      -7.224   7.575  65.259  1.00  0.00    -0.065 C  
HETATM    2  C   UNL     1      -6.766   7.792  63.821  1.00  0.00    -0.062 C  
HETATM    3  C   UNL     1      -5.544   6.837  63.700  1.00  0.00    -0.031 C  
HETATM    4  C   UNL     1      -5.174   6.438  65.123  1.00  0.00    -0.014 C  
HETATM    5  N   UNL     1      -6.032   7.238  65.964  1.00  0.00    -0.036 N  
HETATM    6  C   UNL     1      -6.155   6.818  67.264  1.00  0.00    -0.029 C  
HETATM    7  O   UNL     1      -5.156   6.405  67.841  1.00  0.00    -0.004 OA 
HETATM    8  C   UNL     1      -7.578   7.018  67.911  1.00  0.00    -0.111 C  
HETATM    9  C   UNL     1      -8.379   8.289  66.068  1.00  0.00    -0.128 C  
HETATM   10  N   UNL     1      -8.770   7.210  66.907  1.00  0.00    -0.122 N  
HETATM   11  C   UNL     1     -10.013   7.748  67.263  1.00  0.00    -0.212 C  
HETATM   12  H   UNL     1     -10.026   9.083  65.569  1.00  0.00     0.000 HD 
HETATM   13  C   UNL     1      -9.736   9.147  67.884  1.00  0.00    -0.154 C  
HETATM   14  O   UNL     1     -11.074   7.198  67.033  1.00  0.00    -0.345 OA 
HETATM   15  O   UNL     1      -9.332   8.654  65.082  1.00  0.00    -0.011 OA 
HETATM   16  O   UNL     1      -8.385   9.306  67.117  1.00  0.00    -0.122 OA 
HETATM   17  C   UNL     1     -11.264   8.011  69.868  1.00  0.00    -0.040 C  
HETATM   18  C   UNL     1      -9.301   9.351  70.647  1.00  0.00    -0.314 C  
HETATM   19  C   UNL     1      -9.887   8.620  69.437  1.00  0.00    -0.184 C  
ENDROOT
BRANCH   8  20
HETATM   20  C   UNL     1      -7.717   5.968  69.029  1.00  0.00    -0.092 C  
BRANCH  20  21
HETATM   21  C   UNL     1      -7.954   4.557  68.443  1.00  0.00    -0.079 A  
HETATM   22  C   UNL     1      -7.470   2.208  68.773  1.00  0.00    -0.043 A  
HETATM   23  C   UNL     1      -9.517   2.845  67.710  1.00  0.00    -0.187 A  
HETATM   24  C   UNL     1      -9.139   4.182  67.769  1.00  0.00    -0.164 A  
HETATM   25  C   UNL     1      -8.714   1.858  68.247  1.00  0.00    -0.118 A  
HETATM   26  C   UNL     1      -7.089   3.544  68.869  1.00  0.00    -0.050 A  
ENDBRANCH  20  21
ENDBRANCH   8  20
BRANCH  13  27
HETATM   27  N   UNL     1     -10.642  10.252  67.471  1.00  0.00    -0.248 NA 
HETATM   28  H   UNL     1     -11.634  10.118  67.281  1.00  0.00     0.000 HD 
BRANCH  27  29
HETATM   29  C   UNL     1     -10.053  11.398  67.375  1.00  0.00    -0.184 C  
HETATM   30  H   UNL     1      -9.019  12.610  66.160  1.00  0.00     0.000 HD 
HETATM   31  O   UNL     1      -9.452  11.768  66.231  1.00  0.00    -0.214 OA 
BRANCH  29  32
HETATM   32  C   UNL     1      -9.877  12.481  68.441  1.00  0.00    -0.202 C  
HETATM   33  C   UNL     1      -9.087  13.720  68.022  1.00  0.00    -0.191 C  
HETATM   34  N   UNL     1      -9.244  14.770  69.048  1.00  0.00    -0.178 NA 
HETATM   35  C   UNL     1     -10.636  15.314  69.193  1.00  0.00    -0.250 C  
HETATM   36  C   UNL     1      -8.186  15.763  69.010  1.00  0.00    -0.234 C  
HETATM   37  C   UNL     1     -10.915  16.723  68.548  1.00  0.00    -0.312 C  
HETATM   38  C   UNL     1     -10.881  16.557  67.075  1.00  0.00    -0.113 A  
HETATM   39  C   UNL     1     -10.193  17.178  66.062  1.00  0.00    -0.321 A  
HETATM   40  N   UNL     1     -10.336  16.395  64.932  1.00  0.00    -0.529 NA 
HETATM   41  C   UNL     1     -11.130  15.297  65.202  1.00  0.00    -0.404 A  
HETATM   42  H   UNL     1      -9.915  16.600  64.026  1.00  0.00     0.000 HD 
HETATM   43  C   UNL     1     -11.458  14.163  64.459  1.00  0.00    -0.380 A  
HETATM   44  C   UNL     1     -12.220  13.174  65.109  1.00  0.00    -0.497 A  
HETATM   45  C   UNL     1     -12.524  13.251  66.474  1.00  0.00    -0.184 A  
HETATM   46  C   UNL     1     -12.017  14.308  67.237  1.00  0.00    -0.439 A  
HETATM   47  C   UNL     1     -11.741  14.249  68.740  1.00  0.00    -0.378 C  
HETATM   48  C   UNL     1     -11.473  15.397  66.534  1.00  0.00    -0.015 A  
HETATM   49  C   UNL     1     -11.200  12.869  69.175  1.00  0.00    -0.293 C  
ENDBRANCH  29  32
ENDBRANCH  27  29
ENDBRANCH  13  27
TORSDOF 5
ENDMDL
MODEL       33
REMARK 921   NORMALIZED FREE ENERGY PREDICTED BY IDOCK:   -6.16 KCAL/MOL
REMARK 922        TOTAL FREE ENERGY PREDICTED BY IDOCK:   -9.81 KCAL/MOL
REMARK 923 INTER-LIGAND FREE ENERGY PREDICTED BY IDOCK:   -9.37 KCAL/MOL
REMARK 924 INTRA-LIGAND FREE ENERGY PREDICTED BY IDOCK:   -0.44 KCAL/MOL
REMARK 927      BINDING AFFINITY PREDICTED BY RF-SCORE:    0.00 PKD
ROOT
HETATM    1  C   UNL     1     -11.487  12.390  65.398  1.00  0.00    -0.358 C  
HETATM    2  C   UNL     1     -12.858  12.859  64.926  1.00  0.00    -0.370 C  
HETATM    3  C   UNL     1     -13.012  12.148  63.551  1.00  0.00    -0.315 C  
HETATM    4  C   UNL     1     -11.624  11.645  63.175  1.00  0.00    -0.008 C  
HETATM    5  N   UNL     1     -10.752  12.176  64.196  1.00  0.00    -0.327 N  
HETATM    6  C   UNL     1      -9.520  11.583  64.296  1.00  0.00    -0.085 C  
HETATM    7  O   UNL     1      -8.932  11.278  63.264  1.00  0.00    -0.169 OA 
HETATM    8  C   UNL     1      -8.943  11.456  65.758  1.00  0.00    -0.151 C  
HETATM    9  C   UNL     1     -10.675  12.791  66.693  1.00  0.00    -0.261 C  
HETATM   10  N   UNL     1      -9.992  11.565  66.921  1.00  0.00    -0.203 N  
HETATM   11  C   UNL     1      -9.655  11.835  68.254  1.00  0.00    -0.199 C  
HETATM   12  H   UNL     1     -11.181  13.348  68.433  1.00  0.00     0.000 HD 
HETATM   13  C   UNL     1      -8.860  13.172  68.255  1.00  0.00    -0.175 C  
HETATM   14  O   UNL     1     -10.012  11.145  69.190  1.00  0.00    -0.179 OA 
HETATM   15  O   UNL     1     -11.669  13.107  67.654  1.00  0.00    -0.331 OA 
HETATM   16  O   UNL     1      -9.518  13.653  66.922  1.00  0.00    -0.244 OA 
HETATM   17  C   UNL     1      -7.119  11.554  69.639  1.00  0.00     0.080 C  
HETATM   18  C   UNL     1      -6.070  13.102  67.978  1.00  0.00    -0.118 C  
HETATM   19  C   UNL     1      -7.391  12.438  68.374  1.00  0.00    -0.113 C  
ENDROOT
BRANCH   8  20
HETATM   20  C   UNL     1      -7.965  10.267  65.755  1.00  0.00    -0.144 C  
BRANCH  20  21
HETATM   21  C   UNL     1      -8.565   9.048  66.493  1.00  0.00    -0.129 A  
HETATM   22  C   UNL     1      -8.614   7.894  68.621  1.00  0.00    -0.128 A  
HETATM   23  C   UNL     1     -10.532   7.803  67.195  1.00  0.00    -0.413 A  
HETATM   24  C   UNL     1      -9.852   8.529  66.223  1.00  0.00    -0.285 A  
HETATM   25  C   UNL     1      -9.942   7.519  68.410  1.00  0.00    -0.185 A  
HETATM   26  C   UNL     1      -7.928   8.648  67.673  1.00  0.00    -0.107 A  
ENDBRANCH  20  21
ENDBRANCH   8  20
BRANCH  13  27
HETATM   27  N   UNL     1      -9.199  14.149  69.323  1.00  0.00    -0.362 NA 
HETATM   28  H   UNL     1      -9.588  13.876  70.225  1.00  0.00     0.000 HD 
BRANCH  27  29
HETATM   29  C   UNL     1      -8.954  15.376  69.002  1.00  0.00    -0.230 C  
HETATM   30  H   UNL     1      -7.519  16.762  68.808  1.00  0.00     0.000 HD 
HETATM   31  O   UNL     1      -7.699  15.860  69.044  1.00  0.00    -0.180 OA 
BRANCH  29  32
HETATM   32  C   UNL     1      -9.931  16.475  68.582  1.00  0.00    -0.248 C  
HETATM   33  C   UNL     1      -9.567  17.899  68.996  1.00  0.00    -0.137 C  
HETATM   34  N   UNL     1     -10.444  18.853  68.288  1.00  0.00    -0.319 NA 
HETATM   35  C   UNL     1     -10.263  18.898  66.798  1.00  0.00    -0.394 C  
HETATM   36  C   UNL     1     -10.526  20.144  68.947  1.00  0.00     0.062 C  
HETATM   37  C   UNL     1      -9.452  20.119  66.220  1.00  0.00    -0.450 C  
HETATM   38  C   UNL     1      -8.036  19.947  66.624  1.00  0.00    -0.351 A  
HETATM   39  C   UNL     1      -7.127  20.745  67.273  1.00  0.00    -0.362 A  
HETATM   40  N   UNL     1      -6.065  19.940  67.639  1.00  0.00    -0.189 NA 
HETATM   41  C   UNL     1      -6.271  18.643  67.208  1.00  0.00    -0.178 A  
HETATM   42  H   UNL     1      -5.245  20.258  68.156  1.00  0.00     0.000 HD 
HETATM   43  C   UNL     1      -5.582  17.451  67.436  1.00  0.00    -0.159 A  
HETATM   44  C   UNL     1      -6.155  16.275  66.916  1.00  0.00     0.040 A  
HETATM   45  C   UNL     1      -7.422  16.271  66.318  1.00  0.00     0.118 A  
HETATM   46  C   UNL     1      -8.171  17.451  66.276  1.00  0.00    -0.288 A  
HETATM   47  C   UNL     1      -9.698  17.515  66.225  1.00  0.00    -0.271 C  
HETATM   48  C   UNL     1      -7.494  18.645  66.573  1.00  0.00    -0.267 A  
HETATM   49  C   UNL     1     -10.353  16.407  67.079  1.00  0.00    -0.293 C  
ENDBRANCH  29  32
ENDBRANCH  27  29
ENDBRANCH  13  27
TORSDOF 5
ENDMDL
MODEL       34
REMARK 921   NORMALIZED FREE ENERGY PREDICTED BY IDOCK:   -6.07 KCAL/MOL
REMARK 922        TOTAL FREE ENERGY PREDICTED BY IDOCK:   -9.69 KCAL/MOL
REMARK 923 INTER-LIGAND FREE ENERGY PREDICTED BY IDOCK:   -8.29 KCAL/MOL
REMARK 924 INTRA-LIGAND FREE ENERGY PREDICTED BY IDOCK:   -1.40 KCAL/MOL
REMARK 927      BINDING AFFINITY PREDICTED BY RF-SCORE:    0.00 PKD
ROOT
HETATM    1  C   UNL     1      -9.592   7.332  72.047  1.00  0.00    -0.150 C  
HETATM    2  C   UNL     1     -10.093   7.560  73.468  1.00  0.00    -0.378 C  
HETATM    3  C   UNL     1     -10.331   6.113  73.986  1.00  0.00    -0.311 C  
HETATM    4  C   UNL     1     -10.311   5.213  72.758  1.00  0.00    -0.197 C  
HETATM    5  N   UNL     1     -10.222   6.121  71.638  1.00  0.00    -0.194 N  
HETATM    6  C   UNL     1      -9.829   5.565  70.448  1.00  0.00    -0.197 C  
HETATM    7  O   UNL     1     -10.268   4.461  70.145  1.00  0.00    -0.180 OA 
HETATM    8  C   UNL     1      -8.921   6.478  69.539  1.00  0.00    -0.137 C  
HETATM    9  C   UNL     1      -9.230   8.385  70.925  1.00  0.00    -0.160 C  
HETATM   10  N   UNL     1      -8.196   7.667  70.265  1.00  0.00    -0.121 N  
HETATM   11  C   UNL     1      -7.654   8.774  69.600  1.00  0.00    -0.076 C  
HETATM   12  H   UNL     1      -8.579  10.165  70.964  1.00  0.00     0.000 HD 
HETATM   13  C   UNL     1      -8.805   9.408  68.768  1.00  0.00    -0.132 C  
HETATM   14  O   UNL     1      -6.507   9.152  69.749  1.00  0.00    -0.038 OA 
HETATM   15  O   UNL     1      -8.797   9.532  71.639  1.00  0.00    -0.118 OA 
HETATM   16  O   UNL     1      -9.909   8.826  69.708  1.00  0.00    -0.180 OA 
HETATM   17  C   UNL     1      -6.890   9.100  66.819  1.00  0.00    -0.080 C  
HETATM   18  C   UNL     1      -9.228   8.533  66.136  1.00  0.00    -0.269 C  
HETATM   19  C   UNL     1      -8.315   8.728  67.350  1.00  0.00    -0.109 C  
ENDROOT
BRANCH   8  20
HETATM   20  C   UNL     1      -8.087   5.539  68.647  1.00  0.00    -0.102 C  
BRANCH  20  21
HETATM   21  C   UNL     1      -8.697   5.426  67.231  1.00  0.00    -0.107 A  
HETATM   22  C   UNL     1      -8.244   4.683  64.972  1.00  0.00    -0.115 A  
HETATM   23  C   UNL     1     -10.489   4.625  65.796  1.00  0.00    -0.290 A  
HETATM   24  C   UNL     1     -10.073   5.203  66.991  1.00  0.00    -0.252 A  
HETATM   25  C   UNL     1      -9.582   4.321  64.802  1.00  0.00    -0.169 A  
HETATM   26  C   UNL     1      -7.804   5.234  66.172  1.00  0.00    -0.103 A  
ENDBRANCH  20  21
ENDBRANCH   8  20
BRANCH  13  27
HETATM   27  N   UNL     1      -8.906  10.890  68.789  1.00  0.00    -0.165 NA 
HETATM   28  H   UNL     1      -8.119  11.500  69.007  1.00  0.00     0.000 HD 
BRANCH  27  29
HETATM   29  C   UNL     1     -10.086  11.335  68.505  1.00  0.00    -0.204 C  
HETATM   30  H   UNL     1     -11.880  11.813  69.260  1.00  0.00     0.000 HD 
HETATM   31  O   UNL     1     -11.013  11.486  69.468  1.00  0.00    -0.211 OA 
BRANCH  29  32
HETATM   32  C   UNL     1     -10.669  11.717  67.144  1.00  0.00    -0.288 C  
HETATM   33  C   UNL     1     -11.662  12.877  67.134  1.00  0.00    -0.377 C  
HETATM   34  N   UNL     1     -11.912  13.295  65.740  1.00  0.00    -0.394 NA 
HETATM   35  C   UNL     1     -10.726  13.885  65.032  1.00  0.00    -0.386 C  
HETATM   36  C   UNL     1     -13.159  14.020  65.580  1.00  0.00    -0.178 C  
HETATM   37  C   UNL     1     -10.701  15.452  64.879  1.00  0.00    -0.416 C  
HETATM   38  C   UNL     1     -10.480  16.030  66.227  1.00  0.00    -0.326 A  
HETATM   39  C   UNL     1     -11.141  16.967  66.982  1.00  0.00     0.195 A  
HETATM   40  N   UNL     1     -10.653  16.871  68.271  1.00  0.00    -0.347 NA 
HETATM   41  C   UNL     1      -9.667  15.905  68.344  1.00  0.00    -0.214 A  
HETATM   42  H   UNL     1     -10.974  17.435  69.058  1.00  0.00     0.000 HD 
HETATM   43  C   UNL     1      -8.973  15.342  69.415  1.00  0.00    -0.258 A  
HETATM   44  C   UNL     1      -8.100  14.279  69.120  1.00  0.00     0.074 A  
HETATM   45  C   UNL     1      -8.026  13.715  67.840  1.00  0.00    -0.161 A  
HETATM   46  C   UNL     1      -8.876  14.177  66.830  1.00  0.00    -0.223 A  
HETATM   47  C   UNL     1      -9.345  13.348  65.634  1.00  0.00     0.231 C  
HETATM   48  C   UNL     1      -9.556  15.383  67.073  1.00  0.00    -0.227 A  
HETATM   49  C   UNL     1      -9.597  11.873  66.017  1.00  0.00    -0.251 C  
ENDBRANCH  29  32
ENDBRANCH  27  29
ENDBRANCH  13  27
TORSDOF 5
ENDMDL
MODEL       35
REMARK 921   NORMALIZED FREE ENERGY PREDICTED BY IDOCK:   -6.05 KCAL/MOL
REMARK 922        TOTAL FREE ENERGY PREDICTED BY IDOCK:   -9.67 KCAL/MOL
REMARK 923 INTER-LIGAND FREE ENERGY PREDICTED BY IDOCK:   -8.86 KCAL/MOL
REMARK 924 INTRA-LIGAND FREE ENERGY PREDICTED BY IDOCK:   -0.81 KCAL/MOL
REMARK 927      BINDING AFFINITY PREDICTED BY RF-SCORE:    0.00 PKD
ROOT
HETATM    1  C   UNL     1     -10.117   6.531  72.091  1.00  0.00    -0.179 C  
HETATM    2  C   UNL     1     -10.870   6.609  73.414  1.00  0.00    -0.264 C  
HETATM    3  C   UNL     1     -10.892   5.126  73.886  1.00  0.00    -0.307 C  
HETATM    4  C   UNL     1     -10.499   4.290  72.676  1.00  0.00    -0.171 C  
HETATM    5  N   UNL     1     -10.419   5.233  71.586  1.00  0.00    -0.222 N  
HETATM    6  C   UNL     1      -9.740   4.806  70.474  1.00  0.00    -0.211 C  
HETATM    7  O   UNL     1      -9.895   3.647  70.103  1.00  0.00    -0.170 OA 
HETATM    8  C   UNL     1      -8.902   5.909  69.723  1.00  0.00    -0.128 C  
HETATM    9  C   UNL     1      -9.801   7.671  71.042  1.00  0.00    -0.174 C  
HETATM   10  N   UNL     1      -8.554   7.193  70.556  1.00  0.00    -0.142 N  
HETATM   11  C   UNL     1      -8.147   8.407  69.988  1.00  0.00    -0.115 C  
HETATM   12  H   UNL     1      -9.534   9.542  71.187  1.00  0.00     0.000 HD 
HETATM   13  C   UNL     1      -9.256   8.828  68.982  1.00  0.00    -0.141 C  
HETATM   14  O   UNL     1      -7.137   9.000  70.320  1.00  0.00    -0.043 OA 
HETATM   15  O   UNL     1      -9.725   8.857  71.817  1.00  0.00    -0.288 OA 
HETATM   16  O   UNL     1     -10.355   8.008  69.733  1.00  0.00    -0.209 OA 
HETATM   17  C   UNL     1      -7.036   8.970  67.366  1.00  0.00    -0.078 C  
HETATM   18  C   UNL     1      -9.076   7.974  66.316  1.00  0.00    -0.232 C  
HETATM   19  C   UNL     1      -8.423   8.305  67.661  1.00  0.00    -0.130 C  
ENDROOT
BRANCH   8  20
HETATM   20  C   UNL     1      -7.767   5.184  68.976  1.00  0.00    -0.081 C  
BRANCH  20  21
HETATM   21  C   UNL     1      -8.120   4.982  67.485  1.00  0.00    -0.099 A  
HETATM   22  C   UNL     1      -7.241   4.209  65.365  1.00  0.00    -0.071 A  
HETATM   23  C   UNL     1      -9.583   4.002  65.807  1.00  0.00    -0.191 A  
HETATM   24  C   UNL     1      -9.416   4.646  67.029  1.00  0.00    -0.175 A  
HETATM   25  C   UNL     1      -8.501   3.739  64.991  1.00  0.00    -0.108 A  
HETATM   26  C   UNL     1      -7.049   4.828  66.598  1.00  0.00    -0.072 A  
ENDBRANCH  20  21
ENDBRANCH   8  20
BRANCH  13  27
HETATM   27  N   UNL     1      -9.655  10.260  68.988  1.00  0.00    -0.192 NA 
HETATM   28  H   UNL     1      -9.150  10.977  69.508  1.00  0.00     0.000 HD 
BRANCH  27  29
HETATM   29  C   UNL     1     -10.701  10.511  68.273  1.00  0.00    -0.229 C  
HETATM   30  H   UNL     1     -11.850   9.857  66.767  1.00  0.00     0.000 HD 
HETATM   31  O   UNL     1     -11.080   9.673  67.292  1.00  0.00    -0.151 OA 
BRANCH  29  32
HETATM   32  C   UNL     1     -11.641  11.716  68.333  1.00  0.00    -0.376 C  
HETATM   33  C   UNL     1     -11.332  12.764  69.400  1.00  0.00    -0.202 C  
HETATM   34  N   UNL     1     -12.142  13.972  69.149  1.00  0.00    -0.355 NA 
HETATM   35  C   UNL     1     -11.813  14.705  67.880  1.00  0.00    -0.320 C  
HETATM   36  C   UNL     1     -12.300  14.805  70.327  1.00  0.00    -0.345 C  
HETATM   37  C   UNL     1     -10.959  16.020  68.023  1.00  0.00    -0.341 C  
HETATM   38  C   UNL     1      -9.589  15.623  68.426  1.00  0.00    -0.199 A  
HETATM   39  C   UNL     1      -8.755  15.985  69.455  1.00  0.00    -0.153 A  
HETATM   40  N   UNL     1      -7.729  15.061  69.494  1.00  0.00    -0.298 NA 
HETATM   41  C   UNL     1      -7.880  14.128  68.486  1.00  0.00    -0.140 A  
HETATM   42  H   UNL     1      -6.967  15.066  70.173  1.00  0.00     0.000 HD 
HETATM   43  C   UNL     1      -7.208  12.942  68.187  1.00  0.00    -0.114 A  
HETATM   44  C   UNL     1      -7.716  12.172  67.125  1.00  0.00    -0.151 A  
HETATM   45  C   UNL     1      -8.916  12.500  66.481  1.00  0.00    -0.133 A  
HETATM   46  C   UNL     1      -9.668  13.590  66.932  1.00  0.00    -0.261 A  
HETATM   47  C   UNL     1     -11.183  13.732  66.778  1.00  0.00    -0.327 C  
HETATM   48  C   UNL     1      -9.034  14.477  67.818  1.00  0.00    -0.190 A  
HETATM   49  C   UNL     1     -11.910  12.379  66.943  1.00  0.00    -0.377 C  
ENDBRANCH  29  32
ENDBRANCH  27  29
ENDBRANCH  13  27
TORSDOF 5
ENDMDL
MODEL       36
REMARK 921   NORMALIZED FREE ENERGY PREDICTED BY IDOCK:   -6.03 KCAL/MOL
REMARK 922        TOTAL FREE ENERGY PREDICTED BY IDOCK:   -9.64 KCAL/MOL
REMARK 923 INTER-LIGAND FREE ENERGY PREDICTED BY IDOCK:  -10.99 KCAL/MOL
REMARK 924 INTRA-LIGAND FREE ENERGY PREDICTED BY IDOCK:    1.36 KCAL/MOL
REMARK 927      BINDING AFFINITY PREDICTED BY RF-SCORE:    0.00 PKD
ROOT
HETATM    1  C   UNL     1      -7.130  15.442  68.151  1.00  0.00    -0.121 C  
HETATM    2  C   UNL     1      -5.926  15.472  69.085  1.00  0.00    -0.108 C  
HETATM    3  C   UNL     1      -5.444  16.948  68.979  1.00  0.00    -0.136 C  
HETATM    4  C   UNL     1      -6.143  17.536  67.760  1.00  0.00    -0.153 C  
HETATM    5  N   UNL     1      -6.834  16.420  67.158  1.00  0.00    -0.186 N  
HETATM    6  C   UNL     1      -7.822  16.742  66.263  1.00  0.00    -0.299 C  
HETATM    7  O   UNL     1      -7.626  17.669  65.485  1.00  0.00    -0.440 OA 
HETATM    8  C   UNL     1      -9.079  15.791  66.267  1.00  0.00    -0.338 C  
HETATM    9  C   UNL     1      -8.050  14.227  67.733  1.00  0.00    -0.170 C  
HETATM   10  N   UNL     1      -9.278  14.921  67.559  1.00  0.00    -0.189 N  
HETATM   11  C   UNL     1     -10.095  13.785  67.618  1.00  0.00    -0.242 C  
HETATM   12  H   UNL     1      -8.567  12.620  68.597  1.00  0.00     0.000 HD 
HETATM   13  C   UNL     1      -9.595  12.814  66.510  1.00  0.00    -0.257 C  
HETATM   14  O   UNL     1     -10.967  13.626  68.452  1.00  0.00    -0.244 OA 
HETATM   15  O   UNL     1      -8.013  13.351  68.848  1.00  0.00    -0.033 OA 
HETATM   16  O   UNL     1      -8.157  13.424  66.517  1.00  0.00     0.309 OA 
HETATM   17  C   UNL     1     -12.270  12.950  65.887  1.00  0.00    -0.469 C  
HETATM   18  C   UNL     1     -10.702  12.991  63.939  1.00  0.00    -0.316 C  
HETATM   19  C   UNL     1     -10.790  13.217  65.451  1.00  0.00    -0.299 C  
ENDROOT
BRANCH   8  20
HETATM   20  C   UNL     1     -10.269  16.615  65.742  1.00  0.00    -0.328 C  
BRANCH  20  21
HETATM   21  C   UNL     1     -10.460  17.909  66.566  1.00  0.00    -0.315 A  
HETATM   22  C   UNL     1     -10.009  18.931  68.714  1.00  0.00    -0.466 A  
HETATM   23  C   UNL     1     -10.150  20.313  66.766  1.00  0.00    -0.556 A  
HETATM   24  C   UNL     1     -10.475  19.202  65.994  1.00  0.00    -0.546 A  
HETATM   25  C   UNL     1      -9.872  20.183  68.112  1.00  0.00    -0.460 A  
HETATM   26  C   UNL     1     -10.303  17.804  67.952  1.00  0.00    -0.388 A  
ENDBRANCH  20  21
ENDBRANCH   8  20
BRANCH  13  27
HETATM   27  N   UNL     1      -9.496  11.377  66.878  1.00  0.00    -0.177 NA 
HETATM   28  H   UNL     1      -8.820  10.740  66.458  1.00  0.00     0.000 HD 
BRANCH  27  29
HETATM   29  C   UNL     1     -10.345  11.011  67.780  1.00  0.00    -0.188 C  
HETATM   30  H   UNL     1     -12.261  10.539  68.128  1.00  0.00     0.000 HD 
HETATM   31  O   UNL     1     -11.637  10.808  67.465  1.00  0.00    -0.510 OA 
BRANCH  29  32
HETATM   32  C   UNL     1     -10.123  10.786  69.277  1.00  0.00    -0.200 C  
HETATM   33  C   UNL     1     -11.022   9.748  69.946  1.00  0.00    -0.264 C  
HETATM   34  N   UNL     1     -10.505   9.451  71.296  1.00  0.00    -0.331 NA 
HETATM   35  C   UNL     1      -9.162   8.778  71.329  1.00  0.00    -0.241 C  
HETATM   36  C   UNL     1     -11.509   8.883  72.177  1.00  0.00    -0.317 C  
HETATM   37  C   UNL     1      -9.153   7.231  71.623  1.00  0.00    -0.143 C  
HETATM   38  C   UNL     1      -9.730   6.547  70.441  1.00  0.00    -0.186 A  
HETATM   39  C   UNL     1     -10.749   5.644  70.266  1.00  0.00    -0.294 A  
HETATM   40  N   UNL     1     -11.028   5.601  68.914  1.00  0.00    -0.172 NA 
HETATM   41  C   UNL     1     -10.182   6.443  68.218  1.00  0.00    -0.171 A  
HETATM   42  H   UNL     1     -11.757   5.027  68.488  1.00  0.00     0.000 HD 
HETATM   43  C   UNL     1     -10.143   6.854  66.885  1.00  0.00    -0.286 A  
HETATM   44  C   UNL     1      -9.187   7.829  66.547  1.00  0.00    -0.229 A  
HETATM   45  C   UNL     1      -8.400   8.462  67.518  1.00  0.00    -0.129 A  
HETATM   46  C   UNL     1      -8.596   8.165  68.870  1.00  0.00    -0.130 A  
HETATM   47  C   UNL     1      -8.295   9.117  70.028  1.00  0.00    -0.156 C  
HETATM   48  C   UNL     1      -9.371   7.030  69.165  1.00  0.00    -0.140 A  
HETATM   49  C   UNL     1      -8.625  10.583  69.672  1.00  0.00     0.022 C  
ENDBRANCH  29  32
ENDBRANCH  27  29
ENDBRANCH  13  27
TORSDOF 5
ENDMDL
MODEL       37
REMARK 921   NORMALIZED FREE ENERGY PREDICTED BY IDOCK:   -6.02 KCAL/MOL
REMARK 922        TOTAL FREE ENERGY PREDICTED BY IDOCK:   -9.62 KCAL/MOL
REMARK 923 INTER-LIGAND FREE ENERGY PREDICTED BY IDOCK:   -8.75 KCAL/MOL
REMARK 924 INTRA-LIGAND FREE ENERGY PREDICTED BY IDOCK:   -0.87 KCAL/MOL
REMARK 927      BINDING AFFINITY PREDICTED BY RF-SCORE:    0.00 PKD
ROOT
HETATM    1  C   UNL     1     -12.159   9.596  70.490  1.00  0.00    -0.129 C  
HETATM    2  C   UNL     1     -12.203   8.134  70.919  1.00  0.00    -0.108 C  
HETATM    3  C   UNL     1     -13.311   8.128  72.011  1.00  0.00    -0.309 C  
HETATM    4  C   UNL     1     -13.550   9.586  72.382  1.00  0.00    -0.382 C  
HETATM    5  N   UNL     1     -12.540  10.320  71.657  1.00  0.00    -0.421 N  
HETATM    6  C   UNL     1     -12.756  11.668  71.531  1.00  0.00    -0.318 C  
HETATM    7  O   UNL     1     -13.206  12.281  72.494  1.00  0.00    -0.322 OA 
HETATM    8  C   UNL     1     -12.292  12.307  70.167  1.00  0.00    -0.138 C  
HETATM    9  C   UNL     1     -11.201  10.316  69.460  1.00  0.00    -0.261 C  
HETATM   10  N   UNL     1     -12.095  11.307  68.972  1.00  0.00    -0.320 N  
HETATM   11  C   UNL     1     -11.362  11.606  67.816  1.00  0.00    -0.288 C  
HETATM   12  H   UNL     1     -10.285   9.739  67.904  1.00  0.00     0.000 HD 
HETATM   13  C   UNL     1      -9.935  12.016  68.282  1.00  0.00    -0.203 C  
HETATM   14  O   UNL     1     -11.802  11.477  66.689  1.00  0.00    -0.470 OA 
HETATM   15  O   UNL     1     -10.861   9.306  68.523  1.00  0.00    -0.175 OA 
HETATM   16  O   UNL     1     -10.054  11.209  69.615  1.00  0.00     0.023 OA 
HETATM   17  C   UNL     1     -10.584  14.170  66.701  1.00  0.00    -0.278 C  
HETATM   18  C   UNL     1      -9.404  14.713  68.838  1.00  0.00    -0.160 C  
HETATM   19  C   UNL     1     -10.218  13.631  68.125  1.00  0.00    -0.247 C  
ENDROOT
BRANCH   8  20
HETATM   20  C   UNL     1     -13.150  13.565  69.942  1.00  0.00     0.780 C  
BRANCH  20  21
HETATM   21  C   UNL     1     -12.850  14.643  71.009  1.00  0.00    -0.414 A  
HETATM   22  C   UNL     1     -13.779  15.795  72.925  1.00  0.00    -0.631 A  
HETATM   23  C   UNL     1     -11.414  15.463  72.791  1.00  0.00    -0.348 A  
HETATM   24  C   UNL     1     -11.560  14.879  71.537  1.00  0.00    -0.361 A  
HETATM   25  C   UNL     1     -12.515  15.882  73.511  1.00  0.00    -0.683 A  
HETATM   26  C   UNL     1     -13.948  15.185  71.685  1.00  0.00    -0.618 A  
ENDBRANCH  20  21
ENDBRANCH   8  20
BRANCH  13  27
HETATM   27  N   UNL     1      -8.795  11.466  67.503  1.00  0.00    -0.144 NA 
HETATM   28  H   UNL     1      -8.871  11.186  66.526  1.00  0.00     0.000 HD 
BRANCH  27  29
HETATM   29  C   UNL     1      -7.698  11.377  68.179  1.00  0.00    -0.118 C  
HETATM   30  H   UNL     1      -6.106  12.389  68.857  1.00  0.00     0.000 HD 
HETATM   31  O   UNL     1      -6.913  12.454  68.360  1.00  0.00    -0.077 OA 
BRANCH  29  32
HETATM   32  C   UNL     1      -7.068  10.147  68.835  1.00  0.00    -0.069 C  
HETATM   33  C   UNL     1      -7.875   8.852  68.759  1.00  0.00    -0.101 C  
HETATM   34  N   UNL     1      -7.025   7.721  69.179  1.00  0.00    -0.063 NA 
HETATM   35  C   UNL     1      -5.864   7.427  68.273  1.00  0.00    -0.027 C  
HETATM   36  C   UNL     1      -7.790   6.565  69.609  1.00  0.00    -0.111 C  
HETATM   37  C   UNL     1      -6.015   6.192  67.308  1.00  0.00    -0.017 C  
HETATM   38  C   UNL     1      -7.028   6.545  66.284  1.00  0.00    -0.066 A  
HETATM   39  C   UNL     1      -8.183   5.950  65.842  1.00  0.00    -0.127 A  
HETATM   40  N   UNL     1      -8.866   6.890  65.094  1.00  0.00    -0.360 NA 
HETATM   41  C   UNL     1      -8.148   8.069  65.027  1.00  0.00    -0.145 A  
HETATM   42  H   UNL     1      -9.772   6.735  64.652  1.00  0.00     0.000 HD 
HETATM   43  C   UNL     1      -8.453   9.333  64.522  1.00  0.00    -0.195 A  
HETATM   44  C   UNL     1      -7.501  10.349  64.730  1.00  0.00    -0.049 A  
HETATM   45  C   UNL     1      -6.364  10.146  65.523  1.00  0.00    -0.102 A  
HETATM   46  C   UNL     1      -6.183   8.921  66.174  1.00  0.00    -0.063 A  
HETATM   47  C   UNL     1      -5.393   8.727  67.468  1.00  0.00    -0.035 C  
HETATM   48  C   UNL     1      -7.003   7.856  65.764  1.00  0.00    -0.056 A  
HETATM   49  C   UNL     1      -5.574   9.913  68.441  1.00  0.00    -0.042 C  
ENDBRANCH  29  32
ENDBRANCH  27  29
ENDBRANCH  13  27
TORSDOF 5
ENDMDL
MODEL       38
REMARK 921   NORMALIZED FREE ENERGY PREDICTED BY IDOCK:   -5.99 KCAL/MOL
REMARK 922        TOTAL FREE ENERGY PREDICTED BY IDOCK:   -9.58 KCAL/MOL
REMARK 923 INTER-LIGAND FREE ENERGY PREDICTED BY IDOCK:   -8.50 KCAL/MOL
REMARK 924 INTRA-LIGAND FREE ENERGY PREDICTED BY IDOCK:   -1.08 KCAL/MOL
REMARK 927      BINDING AFFINITY PREDICTED BY RF-SCORE:    0.00 PKD
ROOT
HETATM    1  C   UNL     1      -7.251   6.701  66.754  1.00  0.00    -0.077 C  
HETATM    2  C   UNL     1      -6.610   6.639  65.372  1.00  0.00    -0.050 C  
HETATM    3  C   UNL     1      -5.336   5.782  65.622  1.00  0.00    -0.010 C  
HETATM    4  C   UNL     1      -5.146   5.733  67.132  1.00  0.00    -0.005 C  
HETATM    5  N   UNL     1      -6.153   6.624  67.659  1.00  0.00    -0.029 N  
HETATM    6  C   UNL     1      -6.433   6.486  68.994  1.00  0.00    -0.043 C  
HETATM    7  O   UNL     1      -5.504   6.291  69.769  1.00  0.00    -0.012 OA 
HETATM    8  C   UNL     1      -7.941   6.706  69.399  1.00  0.00    -0.115 C  
HETATM    9  C   UNL     1      -8.542   7.478  67.232  1.00  0.00    -0.118 C  
HETATM   10  N   UNL     1      -8.990   6.578  68.237  1.00  0.00    -0.122 N  
HETATM   11  C   UNL     1     -10.297   7.078  68.306  1.00  0.00    -0.194 C  
HETATM   12  H   UNL     1     -10.144   8.009  66.367  1.00  0.00     0.000 HD 
HETATM   13  C   UNL     1     -10.182   8.596  68.626  1.00  0.00    -0.194 C  
HETATM   14  O   UNL     1     -11.285   6.407  68.077  1.00  0.00    -0.311 OA 
HETATM   15  O   UNL     1      -9.367   7.542  66.079  1.00  0.00    -0.118 OA 
HETATM   16  O   UNL     1      -8.747   8.694  68.016  1.00  0.00    -0.139 OA 
HETATM   17  C   UNL     1     -11.909   7.796  70.610  1.00  0.00    -0.142 C  
HETATM   18  C   UNL     1     -10.145   9.428  71.304  1.00  0.00    -0.309 C  
HETATM   19  C   UNL     1     -10.519   8.407  70.227  1.00  0.00    -0.225 C  
ENDROOT
BRANCH   8  20
HETATM   20  C   UNL     1      -8.179   5.915  70.698  1.00  0.00    -0.120 C  
BRANCH  20  21
HETATM   21  C   UNL     1      -8.784   4.524  70.403  1.00  0.00    -0.116 A  
HETATM   22  C   UNL     1      -8.306   2.364  69.419  1.00  0.00    -0.077 A  
HETATM   23  C   UNL     1      -9.866   2.508  71.227  1.00  0.00    -0.131 A  
HETATM   24  C   UNL     1      -9.733   3.893  71.240  1.00  0.00    -0.247 A  
HETATM   25  C   UNL     1      -9.128   1.733  70.355  1.00  0.00    -0.150 A  
HETATM   26  C   UNL     1      -8.136   3.745  69.437  1.00  0.00    -0.062 A  
ENDBRANCH  20  21
ENDBRANCH   8  20
BRANCH  13  27
HETATM   27  N   UNL     1     -11.077   9.507  67.865  1.00  0.00    -0.515 NA 
HETATM   28  H   UNL     1     -12.002   9.234  67.537  1.00  0.00     0.000 HD 
BRANCH  27  29
HETATM   29  C   UNL     1     -10.572  10.679  67.660  1.00  0.00    -0.246 C  
HETATM   30  H   UNL     1      -9.667  11.859  66.317  1.00  0.00     0.000 HD 
HETATM   31  O   UNL     1     -10.038  10.997  66.468  1.00  0.00    -0.211 OA 
BRANCH  29  32
HETATM   32  C   UNL     1     -10.435  11.852  68.633  1.00  0.00    -0.231 C  
HETATM   33  C   UNL     1      -9.432  12.937  68.247  1.00  0.00    -0.206 C  
HETATM   34  N   UNL     1      -9.619  14.110  69.124  1.00  0.00     0.048 NA 
HETATM   35  C   UNL     1     -10.933  14.819  68.967  1.00  0.00    -0.248 C  
HETATM   36  C   UNL     1      -8.449  14.967  69.182  1.00  0.00    -0.192 C  
HETATM   37  C   UNL     1     -10.916  16.167  68.153  1.00  0.00    -0.341 C  
HETATM   38  C   UNL     1     -10.660  15.829  66.732  1.00  0.00    -0.309 A  
HETATM   39  C   UNL     1      -9.740  16.248  65.804  1.00  0.00    -0.264 A  
HETATM   40  N   UNL     1      -9.795  15.361  64.745  1.00  0.00    -0.282 NA 
HETATM   41  C   UNL     1     -10.759  14.397  64.972  1.00  0.00    -0.423 A  
HETATM   42  H   UNL     1      -9.207  15.411  63.913  1.00  0.00     0.000 HD 
HETATM   43  C   UNL     1     -11.104  13.228  64.293  1.00  0.00    -0.414 A  
HETATM   44  C   UNL     1     -12.085  12.413  64.886  1.00  0.00    -0.470 A  
HETATM   45  C   UNL     1     -12.597  12.681  66.163  1.00  0.00     0.388 A  
HETATM   46  C   UNL     1     -12.090  13.756  66.900  1.00  0.00    -0.454 A  
HETATM   47  C   UNL     1     -12.077  13.840  68.427  1.00  0.00    -0.324 C  
HETATM   48  C   UNL     1     -11.301  14.688  66.205  1.00  0.00    -0.347 A  
HETATM   49  C   UNL     1     -11.800  12.468  69.080  1.00  0.00    -0.344 C  
ENDBRANCH  29  32
ENDBRANCH  27  29
ENDBRANCH  13  27
TORSDOF 5
ENDMDL
MODEL       39
REMARK 921   NORMALIZED FREE ENERGY PREDICTED BY IDOCK:   -5.98 KCAL/MOL
REMARK 922        TOTAL FREE ENERGY PREDICTED BY IDOCK:   -9.57 KCAL/MOL
REMARK 923 INTER-LIGAND FREE ENERGY PREDICTED BY IDOCK:   -8.11 KCAL/MOL
REMARK 924 INTRA-LIGAND FREE ENERGY PREDICTED BY IDOCK:   -1.45 KCAL/MOL
REMARK 927      BINDING AFFINITY PREDICTED BY RF-SCORE:    0.00 PKD
ROOT
HETATM    1  C   UNL     1     -11.862  10.491  70.311  1.00  0.00    -0.331 C  
HETATM    2  C   UNL     1     -12.451  10.158  71.676  1.00  0.00    -0.506 C  
HETATM    3  C   UNL     1     -13.482  11.302  71.895  1.00  0.00    -0.278 C  
HETATM    4  C   UNL     1     -13.157  12.371  70.860  1.00  0.00     0.156 C  
HETATM    5  N   UNL     1     -11.944  11.911  70.225  1.00  0.00    -0.352 N  
HETATM    6  C   UNL     1     -11.639  12.498  69.024  1.00  0.00    -0.314 C  
HETATM    7  O   UNL     1     -11.827  13.703  68.898  1.00  0.00    -0.324 OA 
HETATM    8  C   UNL     1     -10.966  11.553  67.957  1.00  0.00    -0.231 C  
HETATM    9  C   UNL     1     -10.702   9.774  69.512  1.00  0.00    -0.233 C  
HETATM   10  N   UNL     1     -11.158  10.012  68.187  1.00  0.00    -0.233 N  
HETATM   11  C   UNL     1     -10.364   9.028  67.583  1.00  0.00    -0.257 C  
HETATM   12  H   UNL     1     -10.067   7.989  69.449  1.00  0.00     0.000 HD 
HETATM   13  C   UNL     1      -8.889   9.346  67.959  1.00  0.00    -0.124 C  
HETATM   14  O   UNL     1     -10.819   8.089  66.956  1.00  0.00    -0.283 OA 
HETATM   15  O   UNL     1     -10.764   8.420  69.930  1.00  0.00    -0.232 OA 
HETATM   16  O   UNL     1      -9.304  10.115  69.254  1.00  0.00    -0.192 OA 
HETATM   17  C   UNL     1      -8.680   9.166  65.223  1.00  0.00    -0.219 C  
HETATM   18  C   UNL     1      -7.385  11.022  66.287  1.00  0.00    -0.097 C  
HETATM   19  C   UNL     1      -8.545  10.048  66.510  1.00  0.00    -0.131 C  
ENDROOT
BRANCH   8  20
HETATM   20  C   UNL     1     -11.290  12.138  66.570  1.00  0.00    -0.405 C  
BRANCH  20  21
HETATM   21  C   UNL     1     -10.367  13.333  66.239  1.00  0.00    -0.290 A  
HETATM   22  C   UNL     1     -10.323  15.540  65.243  1.00  0.00    -0.416 A  
HETATM   23  C   UNL     1      -8.791  15.019  67.005  1.00  0.00    -0.257 A  
HETATM   24  C   UNL     1      -9.264  13.712  67.039  1.00  0.00    -0.254 A  
HETATM   25  C   UNL     1      -9.340  15.950  66.146  1.00  0.00    -0.385 A  
HETATM   26  C   UNL     1     -10.830  14.244  65.284  1.00  0.00    -0.363 A  
ENDBRANCH  20  21
ENDBRANCH   8  20
BRANCH  13  27
HETATM   27  N   UNL     1      -8.037   8.193  68.353  1.00  0.00    -0.126 NA 
HETATM   28  H   UNL     1      -8.265   7.227  68.121  1.00  0.00     0.000 HD 
BRANCH  27  29
HETATM   29  C   UNL     1      -6.981   8.529  69.016  1.00  0.00    -0.064 C  
HETATM   30  H   UNL     1      -5.082   9.151  68.865  1.00  0.00     0.000 HD 
HETATM   31  O   UNL     1      -5.858   8.903  68.377  1.00  0.00    -0.041 OA 
BRANCH  29  32
HETATM   32  C   UNL     1      -6.759   8.543  70.530  1.00  0.00    -0.038 C  
HETATM   33  C   UNL     1      -7.908   8.018  71.388  1.00  0.00    -0.094 C  
HETATM   34  N   UNL     1      -7.440   7.838  72.776  1.00  0.00    -0.095 NA 
HETATM   35  C   UNL     1      -6.394   6.776  72.961  1.00  0.00    -0.062 C  
HETATM   36  C   UNL     1      -8.522   7.824  73.743  1.00  0.00    -0.236 C  
HETATM   37  C   UNL     1      -6.877   5.405  73.567  1.00  0.00    -0.083 C  
HETATM   38  C   UNL     1      -7.714   4.734  72.545  1.00  0.00    -0.092 A  
HETATM   39  C   UNL     1      -8.982   4.207  72.548  1.00  0.00    -0.110 A  
HETATM   40  N   UNL     1      -9.338   3.994  71.230  1.00  0.00    -0.132 NA 
HETATM   41  C   UNL     1      -8.304   4.350  70.385  1.00  0.00    -0.073 A  
HETATM   42  H   UNL     1     -10.238   3.624  70.923  1.00  0.00     0.000 HD 
HETATM   43  C   UNL     1      -8.210   4.453  68.997  1.00  0.00    -0.083 A  
HETATM   44  C   UNL     1      -7.007   4.966  68.476  1.00  0.00    -0.056 A  
HETATM   45  C   UNL     1      -6.001   5.478  69.305  1.00  0.00    -0.024 A  
HETATM   46  C   UNL     1      -6.205   5.537  70.687  1.00  0.00    -0.026 A  
HETATM   47  C   UNL     1      -5.541   6.542  71.628  1.00  0.00    -0.032 C  
HETATM   48  C   UNL     1      -7.291   4.808  71.201  1.00  0.00    -0.064 A  
HETATM   49  C   UNL     1      -5.390   7.934  70.975  1.00  0.00    -0.030 C  
ENDBRANCH  29  32
ENDBRANCH  27  29
ENDBRANCH  13  27
TORSDOF 5
ENDMDL
MODEL       40
REMARK 921   NORMALIZED FREE ENERGY PREDICTED BY IDOCK:   -5.96 KCAL/MOL
REMARK 922        TOTAL FREE ENERGY PREDICTED BY IDOCK:   -9.54 KCAL/MOL
REMARK 923 INTER-LIGAND FREE ENERGY PREDICTED BY IDOCK:   -7.89 KCAL/MOL
REMARK 924 INTRA-LIGAND FREE ENERGY PREDICTED BY IDOCK:   -1.65 KCAL/MOL
REMARK 927      BINDING AFFINITY PREDICTED BY RF-SCORE:    0.00 PKD
ROOT
HETATM    1  C   UNL     1     -12.029  10.748  70.057  1.00  0.00    -0.347 C  
HETATM    2  C   UNL     1     -12.339   9.449  70.793  1.00  0.00    -0.185 C  
HETATM    3  C   UNL     1     -13.347   9.904  71.887  1.00  0.00    -0.524 C  
HETATM    4  C   UNL     1     -13.260  11.423  71.939  1.00  0.00    -0.380 C  
HETATM    5  N   UNL     1     -12.174  11.761  71.049  1.00  0.00    -0.281 N  
HETATM    6  C   UNL     1     -12.122  13.068  70.639  1.00  0.00    -0.248 C  
HETATM    7  O   UNL     1     -12.371  13.947  71.457  1.00  0.00    -0.323 OA 
HETATM    8  C   UNL     1     -11.632  13.298  69.159  1.00  0.00    -0.319 C  
HETATM    9  C   UNL     1     -11.018  11.019  68.873  1.00  0.00    -0.227 C  
HETATM   10  N   UNL     1     -11.725  12.055  68.204  1.00  0.00    -0.336 N  
HETATM   11  C   UNL     1     -11.028  11.946  66.994  1.00  0.00    -0.278 C  
HETATM   12  H   UNL     1     -10.348   9.953  67.456  1.00  0.00     0.000 HD 
HETATM   13  C   UNL     1      -9.519  12.131  67.325  1.00  0.00    -0.184 C  
HETATM   14  O   UNL     1     -11.561  11.684  65.932  1.00  0.00    -0.326 OA 
HETATM   15  O   UNL     1     -10.956   9.789  68.169  1.00  0.00    -0.239 OA 
HETATM   16  O   UNL     1      -9.707  11.660  68.803  1.00  0.00    -0.181 OA 
HETATM   17  C   UNL     1      -9.826  14.000  65.332  1.00  0.00    -0.216 C  
HETATM   18  C   UNL     1      -8.416  14.709  67.272  1.00  0.00    -0.234 C  
HETATM   19  C   UNL     1      -9.480  13.701  66.830  1.00  0.00    -0.275 C  
ENDROOT
BRANCH   8  20
HETATM   20  C   UNL     1     -12.232  14.636  68.688  1.00  0.00    -0.138 C  
BRANCH  20  21
HETATM   21  C   UNL     1     -11.155  15.744  68.639  1.00  0.00    -0.327 A  
HETATM   22  C   UNL     1     -10.572  17.845  67.587  1.00  0.00    -0.398 A  
HETATM   23  C   UNL     1      -9.823  17.404  69.816  1.00  0.00     0.513 A  
HETATM   24  C   UNL     1     -10.385  16.133  69.760  1.00  0.00    -0.244 A  
HETATM   25  C   UNL     1      -9.948  18.281  68.757  1.00  0.00    -0.391 A  
HETATM   26  C   UNL     1     -11.168  16.589  67.524  1.00  0.00     0.021 A  
ENDBRANCH  20  21
ENDBRANCH   8  20
BRANCH  13  27
HETATM   27  N   UNL     1      -8.570  11.203  66.656  1.00  0.00    -0.160 NA 
HETATM   28  H   UNL     1      -8.714  10.842  65.713  1.00  0.00     0.000 HD 
BRANCH  27  29
HETATM   29  C   UNL     1      -7.545  10.896  67.380  1.00  0.00    -0.100 C  
HETATM   30  H   UNL     1      -5.849  11.589  68.193  1.00  0.00     0.000 HD 
HETATM   31  O   UNL     1      -6.603  11.814  67.660  1.00  0.00    -0.069 OA 
BRANCH  29  32
HETATM   32  C   UNL     1      -7.170   9.547  67.995  1.00  0.00    -0.081 C  
HETATM   33  C   UNL     1      -8.032   8.354  67.587  1.00  0.00    -0.110 C  
HETATM   34  N   UNL     1      -7.383   7.106  68.034  1.00  0.00    -0.094 NA 
HETATM   35  C   UNL     1      -6.073   6.796  67.366  1.00  0.00    -0.032 C  
HETATM   36  C   UNL     1      -8.307   5.992  68.142  1.00  0.00    -0.113 C  
HETATM   37  C   UNL     1      -6.095   5.692  66.243  1.00  0.00    -0.033 C  
HETATM   38  C   UNL     1      -6.825   6.250  65.080  1.00  0.00    -0.047 A  
HETATM   39  C   UNL     1      -7.893   5.823  64.331  1.00  0.00    -0.110 A  
HETATM   40  N   UNL     1      -8.320   6.900  63.578  1.00  0.00    -0.339 NA 
HETATM   41  C   UNL     1      -7.522   8.003  63.814  1.00  0.00    -0.121 A  
HETATM   42  H   UNL     1      -9.114   6.884  62.937  1.00  0.00     0.000 HD 
HETATM   43  C   UNL     1      -7.612   9.337  63.419  1.00  0.00    -0.110 A  
HETATM   44  C   UNL     1      -6.659  10.226  63.951  1.00  0.00    -0.075 A  
HETATM   45  C   UNL     1      -5.746   9.828  64.936  1.00  0.00    -0.079 A  
HETATM   46  C   UNL     1      -5.805   8.529  65.452  1.00  0.00    -0.044 A  
HETATM   47  C   UNL     1      -5.341   8.121  66.850  1.00  0.00    -0.032 C  
HETATM   48  C   UNL     1      -6.589   7.600  64.746  1.00  0.00    -0.044 A  
HETATM   49  C   UNL     1      -5.647   9.209  67.902  1.00  0.00    -0.034 C  
ENDBRANCH  29  32
ENDBRANCH  27  29
ENDBRANCH  13  27
TORSDOF 5
ENDMDL
MODEL       41
REMARK 921   NORMALIZED FREE ENERGY PREDICTED BY IDOCK:   -5.94 KCAL/MOL
REMARK 922        TOTAL FREE ENERGY PREDICTED BY IDOCK:   -9.52 KCAL/MOL
REMARK 923 INTER-LIGAND FREE ENERGY PREDICTED BY IDOCK:   -8.09 KCAL/MOL
REMARK 924 INTRA-LIGAND FREE ENERGY PREDICTED BY IDOCK:   -1.43 KCAL/MOL
REMARK 927      BINDING AFFINITY PREDICTED BY RF-SCORE:    0.00 PKD
ROOT
HETATM    1  C   UNL     1     -11.443  15.026  71.403  1.00  0.00    -0.318 C  
HETATM    2  C   UNL     1     -11.327  16.073  72.505  1.00  0.00     0.038 C  
HETATM    3  C   UNL     1     -12.207  15.477  73.642  1.00  0.00    -0.676 C  
HETATM    4  C   UNL     1     -13.030  14.366  73.003  1.00  0.00    -0.472 C  
HETATM    5  N   UNL     1     -12.734  14.453  71.592  1.00  0.00    -0.327 N  
HETATM    6  C   UNL     1     -13.061  13.351  70.844  1.00  0.00    -0.041 C  
HETATM    7  O   UNL     1     -14.115  12.773  71.085  1.00  0.00     1.138 OA 
HETATM    8  C   UNL     1     -12.072  13.013  69.665  1.00  0.00    -0.241 C  
HETATM    9  C   UNL     1     -10.852  15.036  69.938  1.00  0.00    -0.246 C  
HETATM   10  N   UNL     1     -10.636  13.641  69.770  1.00  0.00     0.365 N  
HETATM   11  C   UNL     1      -9.755  13.760  68.689  1.00  0.00    -0.140 C  
HETATM   12  H   UNL     1      -9.315  15.820  69.153  1.00  0.00     0.000 HD 
HETATM   13  C   UNL     1     -10.502  14.563  67.585  1.00  0.00    -0.246 C  
HETATM   14  O   UNL     1      -8.609  13.351  68.707  1.00  0.00    -0.042 OA 
HETATM   15  O   UNL     1      -9.670  15.814  70.035  1.00  0.00    -0.192 OA 
HETATM   16  O   UNL     1     -11.445  15.256  68.620  1.00  0.00    -0.301 OA 
HETATM   17  C   UNL     1      -9.705  12.358  66.148  1.00  0.00    -0.254 C  
HETATM   18  C   UNL     1     -12.023  13.173  65.682  1.00  0.00    -0.462 C  
HETATM   19  C   UNL     1     -10.885  13.225  66.704  1.00  0.00    -0.289 C  
ENDROOT
BRANCH   8  20
HETATM   20  C   UNL     1     -12.198  11.503  69.390  1.00  0.00    -0.273 C  
BRANCH  20  21
HETATM   21  C   UNL     1     -11.265  10.687  70.313  1.00  0.00    -0.365 A  
HETATM   22  C   UNL     1     -11.233   8.968  72.018  1.00  0.00    -0.379 A  
HETATM   23  C   UNL     1      -9.357   9.198  70.551  1.00  0.00    -0.287 A  
HETATM   24  C   UNL     1      -9.953  10.303  69.952  1.00  0.00    -0.183 A  
HETATM   25  C   UNL     1     -10.005   8.499  71.550  1.00  0.00    -0.314 A  
HETATM   26  C   UNL     1     -11.858  10.053  71.410  1.00  0.00    -0.447 A  
ENDBRANCH  20  21
ENDBRANCH   8  20
BRANCH  13  27
HETATM   27  N   UNL     1      -9.724  15.616  66.883  1.00  0.00    -0.225 NA 
HETATM   28  H   UNL     1      -8.706  15.609  66.820  1.00  0.00     0.000 HD 
BRANCH  27  29
HETATM   29  C   UNL     1     -10.457  16.542  66.359  1.00  0.00    -0.274 C  
HETATM   30  H   UNL     1     -11.730  16.976  64.873  1.00  0.00     0.000 HD 
HETATM   31  O   UNL     1     -11.190  16.296  65.259  1.00  0.00    -0.173 OA 
BRANCH  29  32
HETATM   32  C   UNL     1     -10.620  18.001  66.789  1.00  0.00    -0.281 C  
HETATM   33  C   UNL     1     -10.194  18.337  68.217  1.00  0.00    -0.385 C  
HETATM   34  N   UNL     1     -10.149  19.803  68.382  1.00  0.00    -0.442 NA 
HETATM   35  C   UNL     1      -9.102  20.503  67.564  1.00  0.00    -0.284 C  
HETATM   36  C   UNL     1     -10.241  20.221  69.769  1.00  0.00     0.354 C  
HETATM   37  C   UNL     1      -7.803  20.966  68.324  1.00  0.00     0.467 C  
HETATM   38  C   UNL     1      -7.040  19.749  68.690  1.00  0.00    -0.366 A  
HETATM   39  C   UNL     1      -6.527  19.263  69.867  1.00  0.00    -0.173 A  
HETATM   40  N   UNL     1      -6.187  17.942  69.649  1.00  0.00    -0.237 NA 
HETATM   41  C   UNL     1      -6.448  17.584  68.340  1.00  0.00    -0.183 A  
HETATM   42  H   UNL     1      -5.797  17.318  70.356  1.00  0.00     0.000 HD 
HETATM   43  C   UNL     1      -6.411  16.361  67.669  1.00  0.00    -0.177 A  
HETATM   44  C   UNL     1      -6.857  16.353  66.335  1.00  0.00     0.264 A  
HETATM   45  C   UNL     1      -7.441  17.481  65.743  1.00  0.00     0.008 A  
HETATM   46  C   UNL     1      -7.640  18.637  66.504  1.00  0.00    -0.273 A  
HETATM   47  C   UNL     1      -8.729  19.679  66.245  1.00  0.00    -0.401 C  
HETATM   48  C   UNL     1      -6.976  18.707  67.740  1.00  0.00    -0.223 A  
HETATM   49  C   UNL     1     -10.046  19.032  65.764  1.00  0.00    -0.134 C  
ENDBRANCH  29  32
ENDBRANCH  27  29
ENDBRANCH  13  27
TORSDOF 5
ENDMDL
MODEL       42
REMARK 921   NORMALIZED FREE ENERGY PREDICTED BY IDOCK:   -5.92 KCAL/MOL
REMARK 922        TOTAL FREE ENERGY PREDICTED BY IDOCK:   -9.49 KCAL/MOL
REMARK 923 INTER-LIGAND FREE ENERGY PREDICTED BY IDOCK:   -9.28 KCAL/MOL
REMARK 924 INTRA-LIGAND FREE ENERGY PREDICTED BY IDOCK:   -0.22 KCAL/MOL
REMARK 927      BINDING AFFINITY PREDICTED BY RF-SCORE:    0.00 PKD
ROOT
HETATM    1  C   UNL     1     -10.753   6.887  70.975  1.00  0.00    -0.231 C  
HETATM    2  C   UNL     1     -11.927   6.789  71.942  1.00  0.00    -0.374 C  
HETATM    3  C   UNL     1     -11.587   5.517  72.770  1.00  0.00    -0.298 C  
HETATM    4  C   UNL     1     -10.485   4.795  72.005  1.00  0.00    -0.155 C  
HETATM    5  N   UNL     1     -10.344   5.537  70.775  1.00  0.00    -0.236 N  
HETATM    6  C   UNL     1      -9.186   5.317  70.074  1.00  0.00    -0.138 C  
HETATM    7  O   UNL     1      -8.754   4.171  70.003  1.00  0.00    -0.067 OA 
HETATM    8  C   UNL     1      -8.588   6.575  69.335  1.00  0.00    -0.134 C  
HETATM    9  C   UNL     1     -10.498   7.913  69.800  1.00  0.00    -0.233 C  
HETATM   10  N   UNL     1      -9.079   7.973  69.854  1.00  0.00    -0.145 N  
HETATM   11  C   UNL     1      -8.958   9.163  69.125  1.00  0.00    -0.144 C  
HETATM   12  H   UNL     1     -11.008   9.715  69.503  1.00  0.00     0.000 HD 
HETATM   13  C   UNL     1      -9.668   8.930  67.761  1.00  0.00    -0.160 C  
HETATM   14  O   UNL     1      -8.443  10.173  69.568  1.00  0.00    -0.159 OA 
HETATM   15  O   UNL     1     -11.161   9.098  70.210  1.00  0.00    -0.245 OA 
HETATM   16  O   UNL     1     -10.590   7.811  68.345  1.00  0.00    -0.187 OA 
HETATM   17  C   UNL     1      -7.216   9.829  66.901  1.00  0.00    -0.090 C  
HETATM   18  C   UNL     1      -8.184   7.922  65.605  1.00  0.00    -0.137 C  
HETATM   19  C   UNL     1      -8.265   8.667  66.940  1.00  0.00    -0.105 C  
ENDROOT
BRANCH   8  20
HETATM   20  C   UNL     1      -7.075   6.333  69.185  1.00  0.00    -0.077 C  
BRANCH  20  21
HETATM   21  C   UNL     1      -6.272   7.162  70.213  1.00  0.00    -0.030 A  
HETATM   22  C   UNL     1      -5.151   9.281  70.551  1.00  0.00    -0.027 A  
HETATM   23  C   UNL     1      -6.133   8.163  72.425  1.00  0.00    -0.055 A  
HETATM   24  C   UNL     1      -6.488   7.094  71.609  1.00  0.00    -0.047 A  
HETATM   25  C   UNL     1      -5.507   9.277  71.901  1.00  0.00    -0.072 A  
HETATM   26  C   UNL     1      -5.525   8.235  69.713  1.00  0.00    -0.026 A  
ENDBRANCH  20  21
ENDBRANCH   8  20
BRANCH  13  27
HETATM   27  N   UNL     1     -10.530  10.032  67.260  1.00  0.00    -0.241 NA 
HETATM   28  H   UNL     1     -11.498   9.896  66.971  1.00  0.00     0.000 HD 
BRANCH  27  29
HETATM   29  C   UNL     1      -9.938  11.180  67.225  1.00  0.00    -0.184 C  
HETATM   30  H   UNL     1      -8.843  12.423  66.096  1.00  0.00     0.000 HD 
HETATM   31  O   UNL     1      -9.278  11.579  66.123  1.00  0.00    -0.211 OA 
BRANCH  29  32
HETATM   32  C   UNL     1      -9.817  12.235  68.326  1.00  0.00    -0.217 C  
HETATM   33  C   UNL     1      -9.051  13.506  67.964  1.00  0.00    -0.201 C  
HETATM   34  N   UNL     1      -9.262  14.520  69.016  1.00  0.00    -0.117 NA 
HETATM   35  C   UNL     1     -10.672  15.023  69.141  1.00  0.00    -0.249 C  
HETATM   36  C   UNL     1      -8.231  15.542  69.034  1.00  0.00    -0.227 C  
HETATM   37  C   UNL     1     -10.974  16.443  68.532  1.00  0.00    -0.350 C  
HETATM   38  C   UNL     1     -10.898  16.322  67.056  1.00  0.00    -0.173 A  
HETATM   39  C   UNL     1     -10.203  16.991  66.079  1.00  0.00    -0.325 A  
HETATM   40  N   UNL     1     -10.297  16.239  64.924  1.00  0.00    -0.534 NA 
HETATM   41  C   UNL     1     -11.067  15.113  65.141  1.00  0.00    -0.403 A  
HETATM   42  H   UNL     1      -9.860  16.482  64.035  1.00  0.00     0.000 HD 
HETATM   43  C   UNL     1     -11.346  13.993  64.357  1.00  0.00    -0.330 A  
HETATM   44  C   UNL     1     -12.097  12.966  64.957  1.00  0.00    -0.480 A  
HETATM   45  C   UNL     1     -12.435  12.994  66.316  1.00  0.00    -0.112 A  
HETATM   46  C   UNL     1     -11.976  14.040  67.122  1.00  0.00    -0.465 A  
HETATM   47  C   UNL     1     -11.736  13.943  68.629  1.00  0.00    -0.396 C  
HETATM   48  C   UNL     1     -11.445  15.163  66.466  1.00  0.00    -0.171 A  
HETATM   49  C   UNL     1     -11.169  12.566  69.037  1.00  0.00    -0.321 C  
ENDBRANCH  29  32
ENDBRANCH  27  29
ENDBRANCH  13  27
TORSDOF 5
ENDMDL
MODEL       43
REMARK 921   NORMALIZED FREE ENERGY PREDICTED BY IDOCK:   -5.85 KCAL/MOL
REMARK 922        TOTAL FREE ENERGY PREDICTED BY IDOCK:   -9.40 KCAL/MOL
REMARK 923 INTER-LIGAND FREE ENERGY PREDICTED BY IDOCK:   -7.39 KCAL/MOL
REMARK 924 INTRA-LIGAND FREE ENERGY PREDICTED BY IDOCK:   -2.01 KCAL/MOL
REMARK 927      BINDING AFFINITY PREDICTED BY RF-SCORE:    0.00 PKD
ROOT
HETATM    1  C   UNL     1      -6.940  13.272  68.964  1.00  0.00    -0.075 C  
HETATM    2  C   UNL     1      -5.868  12.950  69.999  1.00  0.00    -0.142 C  
HETATM    3  C   UNL     1      -5.198  14.333  70.244  1.00  0.00    -0.098 C  
HETATM    4  C   UNL     1      -5.661  15.236  69.109  1.00  0.00    -0.099 C  
HETATM    5  N   UNL     1      -6.404  14.367  68.226  1.00  0.00    -0.106 N  
HETATM    6  C   UNL     1      -7.224  14.992  67.323  1.00  0.00    -0.140 C  
HETATM    7  O   UNL     1      -6.820  16.012  66.774  1.00  0.00    -0.241 OA 
HETATM    8  C   UNL     1      -8.580  14.251  67.009  1.00  0.00    -0.192 C  
HETATM    9  C   UNL     1      -7.943  12.305  68.218  1.00  0.00    -0.163 C  
HETATM   10  N   UNL     1      -9.044  13.191  68.070  1.00  0.00    -0.200 N  
HETATM   11  C   UNL     1      -9.996  12.195  67.814  1.00  0.00    -0.198 C  
HETATM   12  H   UNL     1      -8.757  10.657  68.679  1.00  0.00     0.000 HD 
HETATM   13  C   UNL     1      -9.484  11.389  66.586  1.00  0.00    -0.189 C  
HETATM   14  O   UNL     1     -10.978  12.010  68.508  1.00  0.00    -0.214 OA 
HETATM   15  O   UNL     1      -8.154  11.238  69.128  1.00  0.00    -0.093 OA 
HETATM   16  O   UNL     1      -7.994  11.771  66.858  1.00  0.00    -0.160 OA 
HETATM   17  C   UNL     1     -12.023  12.028  65.743  1.00  0.00    -0.140 C  
HETATM   18  C   UNL     1     -10.229  12.208  64.009  1.00  0.00    -0.396 C  
HETATM   19  C   UNL     1     -10.478  12.154  65.518  1.00  0.00    -0.300 C  
ENDROOT
BRANCH   8  20
HETATM   20  C   UNL     1      -9.584  15.324  66.548  1.00  0.00    -0.294 C  
BRANCH  20  21
HETATM   21  C   UNL     1     -10.483  15.785  67.718  1.00  0.00    -0.283 A  
HETATM   22  C   UNL     1     -12.405  15.168  69.054  1.00  0.00    -0.050 A  
HETATM   23  C   UNL     1     -10.680  16.506  70.032  1.00  0.00    -0.222 A  
HETATM   24  C   UNL     1     -10.009  16.543  68.813  1.00  0.00    -0.255 A  
HETATM   25  C   UNL     1     -11.850  15.789  70.175  1.00  0.00    -0.369 A  
HETATM   26  C   UNL     1     -11.733  15.167  67.835  1.00  0.00    -0.275 A  
ENDBRANCH  20  21
ENDBRANCH   8  20
BRANCH  13  27
HETATM   27  N   UNL     1      -9.609   9.909  66.660  1.00  0.00    -0.175 NA 
HETATM   28  H   UNL     1     -10.312   9.437  67.226  1.00  0.00     0.000 HD 
BRANCH  27  29
HETATM   29  C   UNL     1      -8.743   9.278  65.939  1.00  0.00    -0.154 C  
HETATM   30  H   UNL     1      -8.321   8.612  64.096  1.00  0.00     0.000 HD 
HETATM   31  O   UNL     1      -8.958   9.076  64.627  1.00  0.00    -0.174 OA 
BRANCH  29  32
HETATM   32  C   UNL     1      -7.420   8.637  66.364  1.00  0.00    -0.087 C  
HETATM   33  C   UNL     1      -7.183   8.508  67.867  1.00  0.00    -0.088 C  
HETATM   34  N   UNL     1      -6.018   7.634  68.105  1.00  0.00    -0.038 NA 
HETATM   35  C   UNL     1      -6.200   6.203  67.688  1.00  0.00    -0.029 C  
HETATM   36  C   UNL     1      -5.417   7.831  69.412  1.00  0.00    -0.023 C  
HETATM   37  C   UNL     1      -6.477   5.161  68.835  1.00  0.00    -0.036 C  
HETATM   38  C   UNL     1      -7.836   5.426  69.364  1.00  0.00    -0.089 A  
HETATM   39  C   UNL     1      -8.341   5.660  70.619  1.00  0.00    -0.118 A  
HETATM   40  N   UNL     1      -9.626   6.144  70.458  1.00  0.00    -0.167 NA 
HETATM   41  C   UNL     1      -9.959   6.196  69.118  1.00  0.00    -0.154 A  
HETATM   42  H   UNL     1     -10.242   6.424  71.221  1.00  0.00     0.000 HD 
HETATM   43  C   UNL     1     -11.056   6.722  68.436  1.00  0.00    -0.214 A  
HETATM   44  C   UNL     1     -11.006   6.694  67.030  1.00  0.00    -0.463 A  
HETATM   45  C   UNL     1      -9.858   6.287  66.338  1.00  0.00    -0.128 A  
HETATM   46  C   UNL     1      -8.705   5.945  67.051  1.00  0.00    -0.109 A  
HETATM   47  C   UNL     1      -7.278   6.058  66.514  1.00  0.00    -0.073 C  
HETATM   48  C   UNL     1      -8.848   5.746  68.435  1.00  0.00    -0.109 A  
HETATM   49  C   UNL     1      -7.095   7.303  65.617  1.00  0.00    -0.065 C  
ENDBRANCH  29  32
ENDBRANCH  27  29
ENDBRANCH  13  27
TORSDOF 5
ENDMDL
MODEL       44
REMARK 921   NORMALIZED FREE ENERGY PREDICTED BY IDOCK:   -5.76 KCAL/MOL
REMARK 922        TOTAL FREE ENERGY PREDICTED BY IDOCK:   -9.29 KCAL/MOL
REMARK 923 INTER-LIGAND FREE ENERGY PREDICTED BY IDOCK:   -8.22 KCAL/MOL
REMARK 924 INTRA-LIGAND FREE ENERGY PREDICTED BY IDOCK:   -1.07 KCAL/MOL
REMARK 927      BINDING AFFINITY PREDICTED BY RF-SCORE:    0.00 PKD
ROOT
HETATM    1  C   UNL     1      -7.249   6.913  66.933  1.00  0.00    -0.077 C  
HETATM    2  C   UNL     1      -6.519   7.127  65.613  1.00  0.00    -0.047 C  
HETATM    3  C   UNL     1      -5.245   6.249  65.777  1.00  0.00    -0.013 C  
HETATM    4  C   UNL     1      -5.153   5.907  67.258  1.00  0.00    -0.005 C  
HETATM    5  N   UNL     1      -6.210   6.670  67.878  1.00  0.00    -0.034 N  
HETATM    6  C   UNL     1      -6.573   6.271  69.139  1.00  0.00    -0.048 C  
HETATM    7  O   UNL     1      -5.692   5.936  69.923  1.00  0.00    -0.015 OA 
HETATM    8  C   UNL     1      -8.108   6.396  69.476  1.00  0.00    -0.118 C  
HETATM    9  C   UNL     1      -8.584   7.571  67.464  1.00  0.00    -0.122 C  
HETATM   10  N   UNL     1      -9.077   6.488  68.243  1.00  0.00    -0.120 N  
HETATM   11  C   UNL     1     -10.396   6.954  68.319  1.00  0.00    -0.193 C  
HETATM   12  H   UNL     1     -10.137   8.247  66.612  1.00  0.00     0.000 HD 
HETATM   13  C   UNL     1     -10.334   8.382  68.934  1.00  0.00    -0.215 C  
HETATM   14  O   UNL     1     -11.353   6.333  67.897  1.00  0.00    -0.257 OA 
HETATM   15  O   UNL     1      -9.334   7.852  66.293  1.00  0.00    -0.188 OA 
HETATM   16  O   UNL     1      -8.865   8.609  68.454  1.00  0.00    -0.140 OA 
HETATM   17  C   UNL     1     -12.169   7.195  70.604  1.00  0.00    -0.245 C  
HETATM   18  C   UNL     1     -10.489   8.675  71.719  1.00  0.00    -0.394 C  
HETATM   19  C   UNL     1     -10.770   7.881  70.441  1.00  0.00    -0.233 C  
ENDROOT
BRANCH   8  20
HETATM   20  C   UNL     1      -8.413   5.364  70.578  1.00  0.00    -0.122 C  
BRANCH  20  21
HETATM   21  C   UNL     1      -8.291   5.996  71.983  1.00  0.00    -0.118 A  
HETATM   22  C   UNL     1      -8.178   5.478  74.345  1.00  0.00    -0.103 A  
HETATM   23  C   UNL     1      -7.068   7.429  73.520  1.00  0.00    -0.083 A  
HETATM   24  C   UNL     1      -7.564   7.180  72.245  1.00  0.00    -0.089 A  
HETATM   25  C   UNL     1      -7.330   6.565  74.564  1.00  0.00    -0.099 A  
HETATM   26  C   UNL     1      -8.658   5.195  73.070  1.00  0.00    -0.114 A  
ENDBRANCH  20  21
ENDBRANCH   8  20
BRANCH  13  27
HETATM   27  N   UNL     1     -11.197   9.417  68.307  1.00  0.00    -0.490 NA 
HETATM   28  H   UNL     1     -11.933   9.197  67.637  1.00  0.00     0.000 HD 
BRANCH  27  29
HETATM   29  C   UNL     1     -10.927  10.620  68.690  1.00  0.00    -0.246 C  
HETATM   30  H   UNL     1      -9.646  11.759  69.730  1.00  0.00     0.000 HD 
HETATM   31  O   UNL     1      -9.845  10.874  69.448  1.00  0.00    -0.154 OA 
BRANCH  29  32
HETATM   32  C   UNL     1     -11.712  11.910  68.440  1.00  0.00    -0.387 C  
HETATM   33  C   UNL     1     -11.198  13.163  69.146  1.00  0.00    -0.247 C  
HETATM   34  N   UNL     1     -11.878  14.350  68.591  1.00  0.00    -0.333 NA 
HETATM   35  C   UNL     1     -11.568  14.646  67.152  1.00  0.00    -0.378 C  
HETATM   36  C   UNL     1     -11.844  15.493  69.485  1.00  0.00    -0.372 C  
HETATM   37  C   UNL     1     -10.557  15.820  66.872  1.00  0.00    -0.317 C  
HETATM   38  C   UNL     1      -9.215  15.371  67.314  1.00  0.00    -0.217 A  
HETATM   39  C   UNL     1      -8.266  15.892  68.158  1.00  0.00    -0.149 A  
HETATM   40  N   UNL     1      -7.355  14.886  68.419  1.00  0.00    -0.108 NA 
HETATM   41  C   UNL     1      -7.694  13.736  67.730  1.00  0.00    -0.168 A  
HETATM   42  H   UNL     1      -6.546  14.978  69.033  1.00  0.00     0.000 HD 
HETATM   43  C   UNL     1      -7.191  12.436  67.757  1.00  0.00    -0.119 A  
HETATM   44  C   UNL     1      -7.869  11.474  66.985  1.00  0.00    -0.161 A  
HETATM   45  C   UNL     1      -9.070  11.767  66.326  1.00  0.00    -0.209 A  
HETATM   46  C   UNL     1      -9.651  13.031  66.474  1.00  0.00    -0.260 A  
HETATM   47  C   UNL     1     -11.146  13.326  66.351  1.00  0.00    -0.313 C  
HETATM   48  C   UNL     1      -8.849  14.037  67.039  1.00  0.00    -0.234 A  
HETATM   49  C   UNL     1     -12.011  12.186  66.931  1.00  0.00    -0.164 C  
ENDBRANCH  29  32
ENDBRANCH  27  29
ENDBRANCH  13  27
TORSDOF 5
ENDMDL
MODEL       45
REMARK 921   NORMALIZED FREE ENERGY PREDICTED BY IDOCK:   -5.75 KCAL/MOL
REMARK 922        TOTAL FREE ENERGY PREDICTED BY IDOCK:   -9.28 KCAL/MOL
REMARK 923 INTER-LIGAND FREE ENERGY PREDICTED BY IDOCK:   -8.47 KCAL/MOL
REMARK 924 INTRA-LIGAND FREE ENERGY PREDICTED BY IDOCK:   -0.81 KCAL/MOL
REMARK 927      BINDING AFFINITY PREDICTED BY RF-SCORE:    0.00 PKD
ROOT
HETATM    1  C   UNL     1      -8.061   9.103  64.035  1.00  0.00    -0.151 C  
HETATM    2  C   UNL     1      -7.162   9.119  62.805  1.00  0.00    -0.097 C  
HETATM    3  C   UNL     1      -7.031   7.609  62.454  1.00  0.00    -0.076 C  
HETATM    4  C   UNL     1      -7.532   6.845  63.672  1.00  0.00    -0.091 C  
HETATM    5  N   UNL     1      -7.773   7.860  64.670  1.00  0.00    -0.113 N  
HETATM    6  C   UNL     1      -8.561   7.483  65.727  1.00  0.00    -0.142 C  
HETATM    7  O   UNL     1      -8.408   6.363  66.201  1.00  0.00    -0.116 OA 
HETATM    8  C   UNL     1      -9.522   8.599  66.290  1.00  0.00    -0.241 C  
HETATM    9  C   UNL     1      -8.539  10.300  64.950  1.00  0.00    -0.182 C  
HETATM   10  N   UNL     1      -9.817   9.803  65.326  1.00  0.00    -0.313 N  
HETATM   11  C   UNL     1     -10.332  11.035  65.749  1.00  0.00    -0.257 C  
HETATM   12  H   UNL     1      -8.856  12.142  64.632  1.00  0.00     0.000 HD 
HETATM   13  C   UNL     1      -9.364  11.576  66.839  1.00  0.00    -0.181 C  
HETATM   14  O   UNL     1     -11.317  11.555  65.259  1.00  0.00    -0.207 OA 
HETATM   15  O   UNL     1      -8.568  11.422  64.082  1.00  0.00     0.277 OA 
HETATM   16  O   UNL     1      -8.156  10.756  66.284  1.00  0.00    -0.149 OA 
HETATM   17  C   UNL     1     -11.762  11.734  68.176  1.00  0.00    -0.377 C  
HETATM   18  C   UNL     1      -9.824  10.910  69.525  1.00  0.00     0.033 C  
HETATM   19  C   UNL     1     -10.326  11.114  68.093  1.00  0.00    -0.207 C  
ENDROOT
BRANCH   8  20
HETATM   20  C   UNL     1     -10.708   7.879  66.956  1.00  0.00    -0.289 C  
BRANCH  20  21
HETATM   21  C   UNL     1     -10.316   7.323  68.345  1.00  0.00    -0.213 A  
HETATM   22  C   UNL     1     -10.469   5.375  69.773  1.00  0.00    -0.378 A  
HETATM   23  C   UNL     1      -8.579   6.827  69.972  1.00  0.00    -0.141 A  
HETATM   24  C   UNL     1      -9.127   7.681  69.020  1.00  0.00    -0.144 A  
HETATM   25  C   UNL     1      -9.217   5.654  70.323  1.00  0.00    -0.178 A  
HETATM   26  C   UNL     1     -11.018   6.200  68.796  1.00  0.00    -0.421 A  
ENDBRANCH  20  21
ENDBRANCH   8  20
BRANCH  13  27
HETATM   27  N   UNL     1      -9.020  13.021  66.768  1.00  0.00    -0.335 NA 
HETATM   28  H   UNL     1      -9.504  13.680  66.159  1.00  0.00     0.000 HD 
BRANCH  27  29
HETATM   29  C   UNL     1      -8.051  13.364  67.551  1.00  0.00    -0.181 C  
HETATM   30  H   UNL     1      -7.035  12.876  69.208  1.00  0.00     0.000 HD 
HETATM   31  O   UNL     1      -7.748  12.624  68.633  1.00  0.00    -0.125 OA 
BRANCH  29  32
HETATM   32  C   UNL     1      -7.136  14.587  67.472  1.00  0.00    -0.199 C  
HETATM   33  C   UNL     1      -7.613  15.732  66.581  1.00  0.00    -0.048 C  
HETATM   34  N   UNL     1      -6.779  16.925  66.828  1.00  0.00    -0.210 NA 
HETATM   35  C   UNL     1      -6.906  17.516  68.203  1.00  0.00    -0.197 C  
HETATM   36  C   UNL     1      -6.810  17.877  65.733  1.00  0.00    -0.216 C  
HETATM   37  C   UNL     1      -7.777  18.822  68.333  1.00  0.00    -0.344 C  
HETATM   38  C   UNL     1      -9.192  18.441  68.110  1.00  0.00    -0.327 A  
HETATM   39  C   UNL     1     -10.178  18.891  67.267  1.00  0.00    -0.390 A  
HETATM   40  N   UNL     1     -11.194  17.955  67.292  1.00  0.00     0.173 NA 
HETATM   41  C   UNL     1     -10.884  16.926  68.161  1.00  0.00    -0.351 A  
HETATM   42  H   UNL     1     -12.053  18.015  66.745  1.00  0.00     0.000 HD 
HETATM   43  C   UNL     1     -11.496  15.703  68.435  1.00  0.00    -0.374 A  
HETATM   44  C   UNL     1     -10.825  14.838  69.319  1.00  0.00    -0.275 A  
HETATM   45  C   UNL     1      -9.539  15.122  69.798  1.00  0.00    -0.066 A  
HETATM   46  C   UNL     1      -8.871  16.267  69.352  1.00  0.00    -0.056 A  
HETATM   47  C   UNL     1      -7.352  16.423  69.282  1.00  0.00    -0.211 C  
HETATM   48  C   UNL     1      -9.640  17.228  68.674  1.00  0.00    -0.284 A  
HETATM   49  C   UNL     1      -6.655  15.109  68.864  1.00  0.00    -0.104 C  
ENDBRANCH  29  32
ENDBRANCH  27  29
ENDBRANCH  13  27
TORSDOF 5
ENDMDL
MODEL       46
REMARK 921   NORMALIZED FREE ENERGY PREDICTED BY IDOCK:   -5.67 KCAL/MOL
REMARK 922        TOTAL FREE ENERGY PREDICTED BY IDOCK:   -9.17 KCAL/MOL
REMARK 923 INTER-LIGAND FREE ENERGY PREDICTED BY IDOCK:   -7.29 KCAL/MOL
REMARK 924 INTRA-LIGAND FREE ENERGY PREDICTED BY IDOCK:   -1.89 KCAL/MOL
REMARK 927      BINDING AFFINITY PREDICTED BY RF-SCORE:    0.00 PKD
ROOT
HETATM    1  C   UNL     1     -10.596   7.573  69.288  1.00  0.00    -0.210 C  
HETATM    2  C   UNL     1     -11.604   6.570  69.836  1.00  0.00    -0.433 C  
HETATM    3  C   UNL     1     -11.808   7.051  71.301  1.00  0.00    -0.371 C  
HETATM    4  C   UNL     1     -10.671   8.023  71.591  1.00  0.00    -0.232 C  
HETATM    5  N   UNL     1      -9.825   7.958  70.423  1.00  0.00    -0.183 N  
HETATM    6  C   UNL     1      -8.935   8.990  70.271  1.00  0.00    -0.198 C  
HETATM    7  O   UNL     1      -8.359   9.416  71.267  1.00  0.00    -0.308 OA 
HETATM    8  C   UNL     1      -8.673   9.450  68.786  1.00  0.00    -0.131 C  
HETATM    9  C   UNL     1      -9.894   7.626  67.872  1.00  0.00    -0.157 C  
HETATM   10  N   UNL     1      -9.764   9.035  67.736  1.00  0.00    -0.150 N  
HETATM   11  C   UNL     1      -9.552   9.026  66.351  1.00  0.00    -0.244 C  
HETATM   12  H   UNL     1     -10.407   7.058  66.138  1.00  0.00     0.000 HD 
HETATM   13  C   UNL     1      -8.323   8.109  66.090  1.00  0.00    -0.126 C  
HETATM   14  O   UNL     1     -10.277   9.596  65.557  1.00  0.00    -0.228 OA 
HETATM   15  O   UNL     1     -10.828   7.026  66.989  1.00  0.00    -0.348 OA 
HETATM   16  O   UNL     1      -8.546   7.304  67.410  1.00  0.00    -0.121 OA 
HETATM   17  C   UNL     1      -7.543  10.383  64.755  1.00  0.00    -0.058 C  
HETATM   18  C   UNL     1      -5.755   9.238  66.077  1.00  0.00    -0.049 C  
HETATM   19  C   UNL     1      -7.272   9.365  65.914  1.00  0.00    -0.092 C  
ENDROOT
BRANCH   8  20
HETATM   20  C   UNL     1      -8.224  10.921  68.842  1.00  0.00    -0.141 C  
BRANCH  20  21
HETATM   21  C   UNL     1      -9.329  11.863  68.312  1.00  0.00    -0.193 A  
HETATM   22  C   UNL     1     -10.102  13.039  66.342  1.00  0.00    -0.279 A  
HETATM   23  C   UNL     1     -11.695  12.308  67.971  1.00  0.00    -0.417 A  
HETATM   24  C   UNL     1     -10.664  11.837  68.777  1.00  0.00    -0.255 A  
HETATM   25  C   UNL     1     -11.430  12.868  66.737  1.00  0.00    -0.391 A  
HETATM   26  C   UNL     1      -9.059  12.545  67.121  1.00  0.00    -0.205 A  
ENDBRANCH  20  21
ENDBRANCH   8  20
BRANCH  13  27
HETATM   27  N   UNL     1      -8.425   7.167  64.944  1.00  0.00    -0.338 NA 
HETATM   28  H   UNL     1      -9.312   6.802  64.601  1.00  0.00     0.000 HD 
BRANCH  27  29
HETATM   29  C   UNL     1      -7.284   6.855  64.425  1.00  0.00    -0.067 C  
HETATM   30  H   UNL     1      -6.111   7.054  62.812  1.00  0.00     0.000 HD 
HETATM   31  O   UNL     1      -6.950   7.282  63.194  1.00  0.00    -0.055 OA 
BRANCH  29  32
HETATM   32  C   UNL     1      -6.169   5.981  65.003  1.00  0.00    -0.033 C  
HETATM   33  C   UNL     1      -6.520   5.176  66.253  1.00  0.00    -0.044 C  
HETATM   34  N   UNL     1      -5.452   4.192  66.516  1.00  0.00    -0.013 NA 
HETATM   35  C   UNL     1      -5.306   3.118  65.476  1.00  0.00    -0.009 C  
HETATM   36  C   UNL     1      -5.429   3.734  67.893  1.00  0.00    -0.016 C  
HETATM   37  C   UNL     1      -5.893   1.702  65.834  1.00  0.00    -0.017 C  
HETATM   38  C   UNL     1      -7.371   1.819  65.845  1.00  0.00    -0.057 A  
HETATM   39  C   UNL     1      -8.344   1.511  66.763  1.00  0.00    -0.084 A  
HETATM   40  N   UNL     1      -9.510   2.124  66.343  1.00  0.00    -0.358 NA 
HETATM   41  C   UNL     1      -9.302   2.795  65.154  1.00  0.00    -0.111 A  
HETATM   42  H   UNL     1     -10.399   2.085  66.841  1.00  0.00     0.000 HD 
HETATM   43  C   UNL     1     -10.099   3.662  64.406  1.00  0.00    -0.203 A  
HETATM   44  C   UNL     1      -9.506   4.260  63.278  1.00  0.00    -0.116 A  
HETATM   45  C   UNL     1      -8.144   4.107  62.990  1.00  0.00    -0.081 A  
HETATM   46  C   UNL     1      -7.327   3.386  63.867  1.00  0.00    -0.055 A  
HETATM   47  C   UNL     1      -5.824   3.605  64.042  1.00  0.00    -0.014 C  
HETATM   48  C   UNL     1      -7.973   2.605  64.840  1.00  0.00    -0.082 A  
HETATM   49  C   UNL     1      -5.441   5.098  63.940  1.00  0.00    -0.013 C  
ENDBRANCH  29  32
ENDBRANCH  27  29
ENDBRANCH  13  27
TORSDOF 5
ENDMDL
MODEL       47
REMARK 921   NORMALIZED FREE ENERGY PREDICTED BY IDOCK:   -5.65 KCAL/MOL
REMARK 922        TOTAL FREE ENERGY PREDICTED BY IDOCK:   -9.15 KCAL/MOL
REMARK 923 INTER-LIGAND FREE ENERGY PREDICTED BY IDOCK:   -9.35 KCAL/MOL
REMARK 924 INTRA-LIGAND FREE ENERGY PREDICTED BY IDOCK:    0.20 KCAL/MOL
REMARK 927      BINDING AFFINITY PREDICTED BY RF-SCORE:    0.00 PKD
ROOT
HETATM    1  C   UNL     1     -10.028   7.493  71.597  1.00  0.00    -0.175 C  
HETATM    2  C   UNL     1     -10.951   7.759  72.781  1.00  0.00    -0.447 C  
HETATM    3  C   UNL     1     -10.568   6.626  73.777  1.00  0.00    -0.302 C  
HETATM    4  C   UNL     1      -9.758   5.614  72.978  1.00  0.00    -0.154 C  
HETATM    5  N   UNL     1      -9.826   6.082  71.614  1.00  0.00    -0.169 N  
HETATM    6  C   UNL     1      -8.892   5.559  70.756  1.00  0.00    -0.134 C  
HETATM    7  O   UNL     1      -8.616   4.368  70.848  1.00  0.00    -0.089 OA 
HETATM    8  C   UNL     1      -8.349   6.550  69.657  1.00  0.00    -0.131 C  
HETATM    9  C   UNL     1      -9.943   8.229  70.201  1.00  0.00    -0.187 C  
HETATM   10  N   UNL     1      -8.551   8.079  69.950  1.00  0.00    -0.133 N  
HETATM   11  C   UNL     1      -8.473   9.079  68.972  1.00  0.00    -0.132 C  
HETATM   12  H   UNL     1     -10.308  10.000  69.633  1.00  0.00     0.000 HD 
HETATM   13  C   UNL     1      -9.501   8.707  67.865  1.00  0.00    -0.139 C  
HETATM   14  O   UNL     1      -7.764  10.062  69.072  1.00  0.00    -0.081 OA 
HETATM   15  O   UNL     1     -10.360   9.557  70.472  1.00  0.00    -0.248 OA 
HETATM   16  O   UNL     1     -10.378   7.872  68.852  1.00  0.00    -0.210 OA 
HETATM   17  C   UNL     1      -7.231   9.042  66.349  1.00  0.00    -0.087 C  
HETATM   18  C   UNL     1      -8.674   7.098  65.722  1.00  0.00    -0.125 C  
HETATM   19  C   UNL     1      -8.363   8.082  66.851  1.00  0.00    -0.116 C  
ENDROOT
BRANCH   8  20
HETATM   20  C   UNL     1      -6.947   6.054  69.257  1.00  0.00    -0.064 C  
BRANCH  20  21
HETATM   21  C   UNL     1      -7.004   5.196  67.973  1.00  0.00    -0.061 A  
HETATM   22  C   UNL     1      -5.644   3.947  66.407  1.00  0.00    -0.018 A  
HETATM   23  C   UNL     1      -7.904   3.267  66.798  1.00  0.00    -0.080 A  
HETATM   24  C   UNL     1      -8.091   4.354  67.646  1.00  0.00    -0.099 A  
HETATM   25  C   UNL     1      -6.678   3.029  66.211  1.00  0.00    -0.047 A  
HETATM   26  C   UNL     1      -5.803   5.023  67.275  1.00  0.00    -0.022 A  
ENDBRANCH  20  21
ENDBRANCH   8  20
BRANCH  13  27
HETATM   27  N   UNL     1     -10.330   9.816  67.324  1.00  0.00    -0.232 NA 
HETATM   28  H   UNL     1     -11.287   9.688  66.998  1.00  0.00     0.000 HD 
BRANCH  27  29
HETATM   29  C   UNL     1      -9.725  10.957  67.307  1.00  0.00    -0.165 C  
HETATM   30  H   UNL     1      -8.470  12.129  66.274  1.00  0.00     0.000 HD 
HETATM   31  O   UNL     1      -8.915  11.289  66.287  1.00  0.00    -0.187 OA 
BRANCH  29  32
HETATM   32  C   UNL     1      -9.745  12.073  68.354  1.00  0.00    -0.199 C  
HETATM   33  C   UNL     1      -9.049  13.376  67.966  1.00  0.00    -0.205 C  
HETATM   34  N   UNL     1      -9.393  14.424  68.947  1.00  0.00    -0.148 NA 
HETATM   35  C   UNL     1     -10.839  14.828  68.965  1.00  0.00    -0.245 C  
HETATM   36  C   UNL     1      -8.439  15.518  68.967  1.00  0.00    -0.229 C  
HETATM   37  C   UNL     1     -11.202  16.190  68.262  1.00  0.00    -0.343 C  
HETATM   38  C   UNL     1     -11.030  16.000  66.802  1.00  0.00    -0.112 A  
HETATM   39  C   UNL     1     -10.326  16.667  65.831  1.00  0.00    -0.340 A  
HETATM   40  N   UNL     1     -10.297  15.853  64.715  1.00  0.00    -0.590 NA 
HETATM   41  C   UNL     1     -10.998  14.686  64.949  1.00  0.00    -0.407 A  
HETATM   42  H   UNL     1      -9.825  16.082  63.840  1.00  0.00     0.000 HD 
HETATM   43  C   UNL     1     -11.150  13.510  64.214  1.00  0.00    -0.371 A  
HETATM   44  C   UNL     1     -11.863  12.463  64.827  1.00  0.00    -0.442 A  
HETATM   45  C   UNL     1     -12.284  12.535  66.161  1.00  0.00    -0.215 A  
HETATM   46  C   UNL     1     -11.948  13.652  66.933  1.00  0.00    -0.454 A  
HETATM   47  C   UNL     1     -11.793  13.650  68.454  1.00  0.00    -0.407 C  
HETATM   48  C   UNL     1     -11.458  14.776  66.246  1.00  0.00    -0.316 A  
HETATM   49  C   UNL     1     -11.157  12.340  68.968  1.00  0.00    -0.289 C  
ENDBRANCH  29  32
ENDBRANCH  27  29
ENDBRANCH  13  27
TORSDOF 5
ENDMDL
MODEL       48
REMARK 921   NORMALIZED FREE ENERGY PREDICTED BY IDOCK:   -5.65 KCAL/MOL
REMARK 922        TOTAL FREE ENERGY PREDICTED BY IDOCK:   -9.14 KCAL/MOL
REMARK 923 INTER-LIGAND FREE ENERGY PREDICTED BY IDOCK:   -9.25 KCAL/MOL
REMARK 924 INTRA-LIGAND FREE ENERGY PREDICTED BY IDOCK:    0.10 KCAL/MOL
REMARK 927      BINDING AFFINITY PREDICTED BY RF-SCORE:    0.00 PKD
ROOT
HETATM    1  C   UNL     1      -6.649   9.915  68.234  1.00  0.00    -0.055 C  
HETATM    2  C   UNL     1      -5.161   9.695  68.482  1.00  0.00    -0.033 C  
HETATM    3  C   UNL     1      -5.129   8.303  69.177  1.00  0.00    -0.027 C  
HETATM    4  C   UNL     1      -6.562   8.006  69.599  1.00  0.00    -0.038 C  
HETATM    5  N   UNL     1      -7.293   9.214  69.295  1.00  0.00    -0.069 N  
HETATM    6  C   UNL     1      -8.657   9.089  69.243  1.00  0.00    -0.136 C  
HETATM    7  O   UNL     1      -9.212   8.382  70.077  1.00  0.00    -0.155 OA 
HETATM    8  C   UNL     1      -9.380   9.973  68.156  1.00  0.00    -0.131 C  
HETATM    9  C   UNL     1      -7.394  11.167  67.624  1.00  0.00    -0.095 C  
HETATM   10  N   UNL     1      -8.475  10.500  66.986  1.00  0.00    -0.127 N  
HETATM   11  C   UNL     1      -8.826  11.564  66.146  1.00  0.00    -0.167 C  
HETATM   12  H   UNL     1      -6.898  12.503  66.373  1.00  0.00     0.000 HD 
HETATM   13  C   UNL     1      -9.109  12.788  67.064  1.00  0.00    -0.220 C  
HETATM   14  O   UNL     1      -8.819  11.492  64.931  1.00  0.00     0.078 OA 
HETATM   15  O   UNL     1      -6.449  11.749  66.740  1.00  0.00    -0.137 OA 
HETATM   16  O   UNL     1      -8.201  12.236  68.209  1.00  0.00    -0.158 OA 
HETATM   17  C   UNL     1     -11.424  12.728  65.581  1.00  0.00    -0.379 C  
HETATM   18  C   UNL     1     -11.713  13.203  68.019  1.00  0.00    -0.394 C  
HETATM   19  C   UNL     1     -10.745  12.617  66.988  1.00  0.00    -0.268 C  
ENDROOT
BRANCH   8  20
HETATM   20  C   UNL     1     -10.702   9.266  67.806  1.00  0.00    -0.270 C  
BRANCH  20  21
HETATM   21  C   UNL     1     -10.451   8.005  66.948  1.00  0.00    -0.387 A  
HETATM   22  C   UNL     1      -8.752   6.798  65.716  1.00  0.00    -0.122 A  
HETATM   23  C   UNL     1     -10.548   5.585  66.728  1.00  0.00    -0.360 A  
HETATM   24  C   UNL     1     -11.126   6.779  67.148  1.00  0.00    -0.404 A  
HETATM   25  C   UNL     1      -9.344   5.580  66.053  1.00  0.00    -0.161 A  
HETATM   26  C   UNL     1      -9.299   8.001  66.154  1.00  0.00    -0.212 A  
ENDBRANCH  20  21
ENDBRANCH   8  20
BRANCH  13  27
HETATM   27  N   UNL     1      -8.560  14.096  66.620  1.00  0.00    -0.441 NA 
HETATM   28  H   UNL     1      -8.664  14.451  65.670  1.00  0.00     0.000 HD 
BRANCH  27  29
HETATM   29  C   UNL     1      -7.938  14.741  67.551  1.00  0.00    -0.188 C  
HETATM   30  H   UNL     1      -7.682  14.915  69.531  1.00  0.00     0.000 HD 
HETATM   31  O   UNL     1      -8.139  14.441  68.846  1.00  0.00    -0.142 OA 
BRANCH  29  32
HETATM   32  C   UNL     1      -6.957  15.908  67.423  1.00  0.00    -0.233 C  
HETATM   33  C   UNL     1      -7.221  16.893  66.285  1.00  0.00    -0.175 C  
HETATM   34  N   UNL     1      -6.374  18.087  66.466  1.00  0.00    -0.187 NA 
HETATM   35  C   UNL     1      -6.688  18.913  67.681  1.00  0.00    -0.208 C  
HETATM   36  C   UNL     1      -6.177  18.835  65.237  1.00  0.00    -0.285 C  
HETATM   37  C   UNL     1      -7.496  20.243  67.442  1.00  0.00    -0.343 C  
HETATM   38  C   UNL     1      -8.875  19.866  67.051  1.00  0.00    -0.413 A  
HETATM   39  C   UNL     1      -9.687  20.187  65.991  1.00  0.00    -0.321 A  
HETATM   40  N   UNL     1     -10.743  19.297  66.001  1.00  0.00    -0.429 NA 
HETATM   41  C   UNL     1     -10.633  18.428  67.070  1.00  0.00    -0.366 A  
HETATM   42  H   UNL     1     -11.499  19.283  65.315  1.00  0.00     0.000 HD 
HETATM   43  C   UNL     1     -11.348  17.287  67.438  1.00  0.00     0.459 A  
HETATM   44  C   UNL     1     -10.876  16.573  68.554  1.00  0.00    -0.349 A  
HETATM   45  C   UNL     1      -9.670  16.902  69.188  1.00  0.00    -0.177 A  
HETATM   46  C   UNL     1      -8.878  17.934  68.676  1.00  0.00    -0.267 A  
HETATM   47  C   UNL     1      -7.361  18.036  68.837  1.00  0.00    -0.249 C  
HETATM   48  C   UNL     1      -9.474  18.782  67.726  1.00  0.00    -0.333 A  
HETATM   49  C   UNL     1      -6.678  16.652  68.769  1.00  0.00    -0.174 C  
ENDBRANCH  29  32
ENDBRANCH  27  29
ENDBRANCH  13  27
TORSDOF 5
ENDMDL
MODEL       49
REMARK 921   NORMALIZED FREE ENERGY PREDICTED BY IDOCK:   -5.64 KCAL/MOL
REMARK 922        TOTAL FREE ENERGY PREDICTED BY IDOCK:   -9.14 KCAL/MOL
REMARK 923 INTER-LIGAND FREE ENERGY PREDICTED BY IDOCK:   -8.39 KCAL/MOL
REMARK 924 INTRA-LIGAND FREE ENERGY PREDICTED BY IDOCK:   -0.75 KCAL/MOL
REMARK 927      BINDING AFFINITY PREDICTED BY RF-SCORE:    0.00 PKD
ROOT
HETATM    1  C   UNL     1      -7.351   7.083  66.690  1.00  0.00    -0.080 C  
HETATM    2  C   UNL     1      -6.745   7.319  65.312  1.00  0.00    -0.048 C  
HETATM    3  C   UNL     1      -5.431   6.487  65.365  1.00  0.00    -0.021 C  
HETATM    4  C   UNL     1      -5.199   6.153  66.833  1.00  0.00    -0.005 C  
HETATM    5  N   UNL     1      -6.226   6.879  67.542  1.00  0.00    -0.035 N  
HETATM    6  C   UNL     1      -6.465   6.471  68.829  1.00  0.00    -0.043 C  
HETATM    7  O   UNL     1      -5.508   6.170  69.534  1.00  0.00    -0.011 OA 
HETATM    8  C   UNL     1      -7.969   6.541  69.297  1.00  0.00    -0.111 C  
HETATM    9  C   UNL     1      -8.658   7.693  67.335  1.00  0.00    -0.125 C  
HETATM   10  N   UNL     1      -9.042   6.596  68.152  1.00  0.00    -0.120 N  
HETATM   11  C   UNL     1     -10.366   7.014  68.342  1.00  0.00    -0.193 C  
HETATM   12  H   UNL     1     -10.302   8.311  66.620  1.00  0.00     0.000 HD 
HETATM   13  C   UNL     1     -10.303   8.445  68.950  1.00  0.00    -0.215 C  
HETATM   14  O   UNL     1     -11.333   6.358  68.004  1.00  0.00    -0.267 OA 
HETATM   15  O   UNL     1      -9.515   7.944  66.232  1.00  0.00    -0.195 OA 
HETATM   16  O   UNL     1      -8.890   8.723  68.345  1.00  0.00    -0.137 OA 
HETATM   17  C   UNL     1     -11.943   7.198  70.771  1.00  0.00    -0.352 C  
HETATM   18  C   UNL     1     -10.228   8.739  71.739  1.00  0.00    -0.408 C  
HETATM   19  C   UNL     1     -10.589   7.932  70.489  1.00  0.00    -0.223 C  
ENDROOT
BRANCH   8  20
HETATM   20  C   UNL     1      -8.140   5.502  70.421  1.00  0.00    -0.103 C  
BRANCH  20  21
HETATM   21  C   UNL     1      -8.344   4.083  69.843  1.00  0.00    -0.081 A  
HETATM   22  C   UNL     1      -9.386   1.940  70.271  1.00  0.00    -0.172 A  
HETATM   23  C   UNL     1      -9.094   2.671  68.011  1.00  0.00    -0.229 A  
HETATM   24  C   UNL     1      -8.435   3.811  68.458  1.00  0.00    -0.105 A  
HETATM   25  C   UNL     1      -9.611   1.755  68.905  1.00  0.00    -0.129 A  
HETATM   26  C   UNL     1      -8.756   3.090  70.738  1.00  0.00    -0.130 A  
ENDBRANCH  20  21
ENDBRANCH   8  20
BRANCH  13  27
HETATM   27  N   UNL     1     -11.253   9.446  68.400  1.00  0.00    -0.478 NA 
HETATM   28  H   UNL     1     -12.065   9.194  67.837  1.00  0.00     0.000 HD 
BRANCH  27  29
HETATM   29  C   UNL     1     -10.955  10.666  68.702  1.00  0.00    -0.246 C  
HETATM   30  H   UNL     1      -9.604  11.848  69.593  1.00  0.00     0.000 HD 
HETATM   31  O   UNL     1      -9.823  10.951  69.371  1.00  0.00    -0.154 OA 
BRANCH  29  32
HETATM   32  C   UNL     1     -11.752  11.946  68.440  1.00  0.00    -0.387 C  
HETATM   33  C   UNL     1     -11.187  13.231  69.042  1.00  0.00    -0.270 C  
HETATM   34  N   UNL     1     -11.900  14.392  68.474  1.00  0.00    -0.338 NA 
HETATM   35  C   UNL     1     -11.691  14.610  67.003  1.00  0.00    -0.362 C  
HETATM   36  C   UNL     1     -11.800  15.579  69.303  1.00  0.00    -0.353 C  
HETATM   37  C   UNL     1     -10.699  15.762  66.593  1.00  0.00    -0.287 C  
HETATM   38  C   UNL     1      -9.331  15.328  66.963  1.00  0.00    -0.238 A  
HETATM   39  C   UNL     1      -8.323  15.886  67.710  1.00  0.00    -0.150 A  
HETATM   40  N   UNL     1      -7.399  14.889  67.959  1.00  0.00    -0.117 NA 
HETATM   41  C   UNL     1      -7.788  13.708  67.356  1.00  0.00    -0.149 A  
HETATM   42  H   UNL     1      -6.549  15.008  68.509  1.00  0.00     0.000 HD 
HETATM   43  C   UNL     1      -7.289  12.407  67.417  1.00  0.00    -0.149 A  
HETATM   44  C   UNL     1      -8.021  11.411  66.745  1.00  0.00    -0.160 A  
HETATM   45  C   UNL     1      -9.265  11.676  66.157  1.00  0.00    -0.228 A  
HETATM   46  C   UNL     1      -9.830  12.950  66.279  1.00  0.00    -0.273 A  
HETATM   47  C   UNL     1     -11.330  13.248  66.245  1.00  0.00    -0.336 C  
HETATM   48  C   UNL     1      -8.988  13.979  66.733  1.00  0.00    -0.217 A  
HETATM   49  C   UNL     1     -12.155  12.145  66.943  1.00  0.00     0.045 C  
ENDBRANCH  29  32
ENDBRANCH  27  29
ENDBRANCH  13  27
TORSDOF 5
ENDMDL
MODEL       50
REMARK 921   NORMALIZED FREE ENERGY PREDICTED BY IDOCK:   -5.46 KCAL/MOL
REMARK 922        TOTAL FREE ENERGY PREDICTED BY IDOCK:   -8.90 KCAL/MOL
REMARK 923 INTER-LIGAND FREE ENERGY PREDICTED BY IDOCK:   -7.31 KCAL/MOL
REMARK 924 INTRA-LIGAND FREE ENERGY PREDICTED BY IDOCK:   -1.59 KCAL/MOL
REMARK 927      BINDING AFFINITY PREDICTED BY RF-SCORE:    0.00 PKD
ROOT
HETATM    1  C   UNL     1      -7.898   8.968  70.110  1.00  0.00    -0.100 C  
HETATM    2  C   UNL     1      -7.048   8.939  71.375  1.00  0.00    -0.096 C  
HETATM    3  C   UNL     1      -7.628   7.723  72.153  1.00  0.00    -0.093 C  
HETATM    4  C   UNL     1      -8.955   7.387  71.487  1.00  0.00    -0.125 C  
HETATM    5  N   UNL     1      -9.157   8.437  70.516  1.00  0.00    -0.146 N  
HETATM    6  C   UNL     1     -10.087   8.179  69.542  1.00  0.00    -0.193 C  
HETATM    7  O   UNL     1     -11.123   7.606  69.860  1.00  0.00    -0.237 OA 
HETATM    8  C   UNL     1      -9.754   8.759  68.114  1.00  0.00    -0.158 C  
HETATM    9  C   UNL     1      -7.889   9.999  68.913  1.00  0.00    -0.095 C  
HETATM   10  N   UNL     1      -8.248   9.121  67.854  1.00  0.00    -0.112 N  
HETATM   11  C   UNL     1      -7.814   9.960  66.819  1.00  0.00    -0.109 C  
HETATM   12  H   UNL     1      -6.548  11.097  68.144  1.00  0.00     0.000 HD 
HETATM   13  C   UNL     1      -8.566  11.311  66.989  1.00  0.00    -0.148 C  
HETATM   14  O   UNL     1      -6.955   9.647  66.017  1.00  0.00    -0.088 OA 
HETATM   15  O   UNL     1      -6.554  10.477  68.864  1.00  0.00    -0.051 OA 
HETATM   16  O   UNL     1      -8.784  11.085  68.519  1.00  0.00    -0.146 OA 
HETATM   17  C   UNL     1      -9.144  10.744  64.361  1.00  0.00    -0.217 C  
HETATM   18  C   UNL     1     -11.036  11.669  65.710  1.00  0.00    -0.329 C  
HETATM   19  C   UNL     1      -9.673  10.980  65.816  1.00  0.00    -0.268 C  
ENDROOT
BRANCH   8  20
HETATM   20  C   UNL     1     -10.488   7.878  67.087  1.00  0.00    -0.414 C  
BRANCH  20  21
HETATM   21  C   UNL     1      -9.674   6.606  66.758  1.00  0.00    -0.217 A  
HETATM   22  C   UNL     1      -9.782   4.188  66.695  1.00  0.00    -0.233 A  
HETATM   23  C   UNL     1      -8.356   5.337  65.156  1.00  0.00    -0.145 A  
HETATM   24  C   UNL     1      -8.689   6.552  65.745  1.00  0.00    -0.129 A  
HETATM   25  C   UNL     1      -8.928   4.158  65.592  1.00  0.00    -0.130 A  
HETATM   26  C   UNL     1     -10.151   5.398  67.277  1.00  0.00    -0.229 A  
ENDBRANCH  20  21
ENDBRANCH   8  20
BRANCH  13  27
HETATM   27  N   UNL     1      -7.763  12.549  66.809  1.00  0.00    -0.384 NA 
HETATM   28  H   UNL     1      -6.940  12.597  66.208  1.00  0.00     0.000 HD 
BRANCH  27  29
HETATM   29  C   UNL     1      -8.204  13.558  67.484  1.00  0.00    -0.183 C  
HETATM   30  H   UNL     1      -7.808  14.819  68.990  1.00  0.00     0.000 HD 
HETATM   31  O   UNL     1      -7.484  14.077  68.493  1.00  0.00    -0.111 OA 
BRANCH  29  32
HETATM   32  C   UNL     1      -9.533  14.302  67.343  1.00  0.00    -0.211 C  
HETATM   33  C   UNL     1      -9.899  15.255  68.480  1.00  0.00    -0.210 C  
HETATM   34  N   UNL     1     -11.046  16.088  68.070  1.00  0.00    -0.346 NA 
HETATM   35  C   UNL     1     -10.771  17.035  66.936  1.00  0.00    -0.125 C  
HETATM   36  C   UNL     1     -11.768  16.654  69.195  1.00  0.00     0.314 C  
HETATM   37  C   UNL     1     -10.559  18.549  67.315  1.00  0.00    -0.453 C  
HETATM   38  C   UNL     1      -9.263  18.654  68.028  1.00  0.00    -0.329 A  
HETATM   39  C   UNL     1      -8.881  19.181  69.237  1.00  0.00     0.020 A  
HETATM   40  N   UNL     1      -7.607  18.715  69.501  1.00  0.00     0.143 NA 
HETATM   41  C   UNL     1      -7.158  17.920  68.464  1.00  0.00    -0.254 A  
HETATM   42  H   UNL     1      -7.073  18.928  70.344  1.00  0.00     0.000 HD 
HETATM   43  C   UNL     1      -6.026  17.121  68.307  1.00  0.00    -0.143 A  
HETATM   44  C   UNL     1      -5.949  16.347  67.135  1.00  0.00    -0.166 A  
HETATM   45  C   UNL     1      -7.014  16.270  66.228  1.00  0.00     0.579 A  
HETATM   46  C   UNL     1      -8.212  16.934  66.509  1.00  0.00    -0.320 A  
HETATM   47  C   UNL     1      -9.589  16.510  65.996  1.00  0.00    -0.323 C  
HETATM   48  C   UNL     1      -8.185  17.884  67.544  1.00  0.00    -0.228 A  
HETATM   49  C   UNL     1      -9.739  14.973  65.947  1.00  0.00    -0.376 C  
ENDBRANCH  29  32
ENDBRANCH  27  29
ENDBRANCH  13  27
TORSDOF 5
ENDMDL
MODEL       51
REMARK 921   NORMALIZED FREE ENERGY PREDICTED BY IDOCK:   -5.44 KCAL/MOL
REMARK 922        TOTAL FREE ENERGY PREDICTED BY IDOCK:   -8.88 KCAL/MOL
REMARK 923 INTER-LIGAND FREE ENERGY PREDICTED BY IDOCK:   -7.76 KCAL/MOL
REMARK 924 INTRA-LIGAND FREE ENERGY PREDICTED BY IDOCK:   -1.12 KCAL/MOL
REMARK 927      BINDING AFFINITY PREDICTED BY RF-SCORE:    0.00 PKD
ROOT
HETATM    1  C   UNL     1     -11.951   9.971  70.500  1.00  0.00    -0.272 C  
HETATM    2  C   UNL     1     -12.393   8.928  71.520  1.00  0.00    -0.381 C  
HETATM    3  C   UNL     1     -13.515   9.668  72.304  1.00  0.00    -0.488 C  
HETATM    4  C   UNL     1     -13.385  11.141  71.944  1.00  0.00    -0.304 C  
HETATM    5  N   UNL     1     -12.186  11.220  71.144  1.00  0.00    -0.294 N  
HETATM    6  C   UNL     1     -12.039  12.362  70.399  1.00  0.00    -0.297 C  
HETATM    7  O   UNL     1     -12.360  13.434  70.901  1.00  0.00    -0.366 OA 
HETATM    8  C   UNL     1     -11.360  12.171  68.989  1.00  0.00    -0.276 C  
HETATM    9  C   UNL     1     -10.790   9.905  69.429  1.00  0.00    -0.237 C  
HETATM   10  N   UNL     1     -11.372  10.711  68.413  1.00  0.00    -0.287 N  
HETATM   11  C   UNL     1     -10.532  10.270  67.382  1.00  0.00    -0.251 C  
HETATM   12  H   UNL     1      -9.982   8.488  68.464  1.00  0.00     0.000 HD 
HETATM   13  C   UNL     1      -9.072  10.546  67.843  1.00  0.00    -0.136 C  
HETATM   14  O   UNL     1     -10.936   9.720  66.375  1.00  0.00     0.093 OA 
HETATM   15  O   UNL     1     -10.680   8.528  69.108  1.00  0.00    -0.202 OA 
HETATM   16  O   UNL     1      -9.460  10.506  69.356  1.00  0.00    -0.203 OA 
HETATM   17  C   UNL     1      -9.064  11.783  65.387  1.00  0.00     0.063 C  
HETATM   18  C   UNL     1      -7.887  13.010  67.221  1.00  0.00    -0.132 C  
HETATM   19  C   UNL     1      -8.919  11.915  66.941  1.00  0.00    -0.196 C  
ENDROOT
BRANCH   8  20
HETATM   20  C   UNL     1     -11.851  13.323  68.093  1.00  0.00    -0.388 C  
BRANCH  20  21
HETATM   21  C   UNL     1     -10.837  14.490  68.078  1.00  0.00    -0.249 A  
HETATM   22  C   UNL     1     -10.358  16.637  67.066  1.00  0.00    -0.301 A  
HETATM   23  C   UNL     1      -9.620  16.203  69.300  1.00  0.00    -0.235 A  
HETATM   24  C   UNL     1     -10.108  14.903  69.216  1.00  0.00    -0.201 A  
HETATM   25  C   UNL     1      -9.778  17.088  68.253  1.00  0.00    -0.275 A  
HETATM   26  C   UNL     1     -10.880  15.350  66.975  1.00  0.00    -0.320 A  
ENDBRANCH  20  21
ENDBRANCH   8  20
BRANCH  13  27
HETATM   27  N   UNL     1      -8.077   9.471  67.587  1.00  0.00    -0.109 NA 
HETATM   28  H   UNL     1      -8.201   8.757  66.870  1.00  0.00     0.000 HD 
BRANCH  27  29
HETATM   29  C   UNL     1      -7.042   9.527  68.357  1.00  0.00    -0.071 C  
HETATM   30  H   UNL     1      -5.314  10.479  68.709  1.00  0.00     0.000 HD 
HETATM   31  O   UNL     1      -6.075  10.437  68.143  1.00  0.00    -0.044 OA 
BRANCH  29  32
HETATM   32  C   UNL     1      -6.679   8.638  69.548  1.00  0.00    -0.040 C  
HETATM   33  C   UNL     1      -7.832   7.883  70.205  1.00  0.00    -0.089 C  
HETATM   34  N   UNL     1      -7.289   6.876  71.138  1.00  0.00    -0.077 NA 
HETATM   35  C   UNL     1      -6.509   5.767  70.492  1.00  0.00    -0.036 C  
HETATM   36  C   UNL     1      -8.247   6.460  72.146  1.00  0.00    -0.108 C  
HETATM   37  C   UNL     1      -7.241   4.380  70.344  1.00  0.00    -0.048 C  
HETATM   38  C   UNL     1      -8.306   4.542  69.326  1.00  0.00    -0.085 A  
HETATM   39  C   UNL     1      -9.656   4.291  69.312  1.00  0.00    -0.190 A  
HETATM   40  N   UNL     1     -10.176   4.925  68.200  1.00  0.00    -0.084 NA 
HETATM   41  C   UNL     1      -9.173   5.553  67.487  1.00  0.00    -0.110 A  
HETATM   42  H   UNL     1     -11.163   4.929  67.941  1.00  0.00     0.000 HD 
HETATM   43  C   UNL     1      -9.190   6.420  66.394  1.00  0.00    -0.176 A  
HETATM   44  C   UNL     1      -7.957   6.964  65.993  1.00  0.00    -0.109 A  
HETATM   45  C   UNL     1      -6.783   6.762  66.731  1.00  0.00    -0.056 A  
HETATM   46  C   UNL     1      -6.835   6.045  67.930  1.00  0.00    -0.063 A  
HETATM   47  C   UNL     1      -5.867   6.224  69.100  1.00  0.00    -0.020 C  
HETATM   48  C   UNL     1      -8.008   5.313  68.184  1.00  0.00    -0.091 A  
HETATM   49  C   UNL     1      -5.456   7.701  69.290  1.00  0.00    -0.019 C  
ENDBRANCH  29  32
ENDBRANCH  27  29
ENDBRANCH  13  27
TORSDOF 5
ENDMDL
MODEL       52
REMARK 921   NORMALIZED FREE ENERGY PREDICTED BY IDOCK:   -5.43 KCAL/MOL
REMARK 922        TOTAL FREE ENERGY PREDICTED BY IDOCK:   -8.86 KCAL/MOL
REMARK 923 INTER-LIGAND FREE ENERGY PREDICTED BY IDOCK:   -8.93 KCAL/MOL
REMARK 924 INTRA-LIGAND FREE ENERGY PREDICTED BY IDOCK:    0.07 KCAL/MOL
REMARK 927      BINDING AFFINITY PREDICTED BY RF-SCORE:    0.00 PKD
ROOT
HETATM    1  C   UNL     1      -9.729   7.487  71.333  1.00  0.00    -0.166 C  
HETATM    2  C   UNL     1     -10.374   7.957  72.632  1.00  0.00    -0.372 C  
HETATM    3  C   UNL     1     -10.631   6.624  73.392  1.00  0.00    -0.333 C  
HETATM    4  C   UNL     1     -10.468   5.512  72.365  1.00  0.00    -0.214 C  
HETATM    5  N   UNL     1     -10.288   6.196  71.107  1.00  0.00    -0.202 N  
HETATM    6  C   UNL     1      -9.765   5.443  70.087  1.00  0.00    -0.188 C  
HETATM    7  O   UNL     1     -10.147   4.285  69.960  1.00  0.00    -0.196 OA 
HETATM    8  C   UNL     1      -8.791   6.205  69.109  1.00  0.00    -0.123 C  
HETATM    9  C   UNL     1      -9.280   8.324  70.070  1.00  0.00    -0.151 C  
HETATM   10  N   UNL     1      -8.170   7.538  69.660  1.00  0.00    -0.127 N  
HETATM   11  C   UNL     1      -7.588   8.522  68.849  1.00  0.00    -0.096 C  
HETATM   12  H   UNL     1      -8.676  10.105  69.830  1.00  0.00     0.000 HD 
HETATM   13  C   UNL     1      -8.665   8.940  67.807  1.00  0.00    -0.125 C  
HETATM   14  O   UNL     1      -6.471   8.968  69.031  1.00  0.00    -0.046 OA 
HETATM   15  O   UNL     1      -8.946   9.602  70.589  1.00  0.00    -0.209 OA 
HETATM   16  O   UNL     1      -9.843   8.500  68.733  1.00  0.00    -0.164 OA 
HETATM   17  C   UNL     1      -6.557   8.351  66.142  1.00  0.00    -0.054 C  
HETATM   18  C   UNL     1      -8.802   7.571  65.363  1.00  0.00     0.052 C  
HETATM   19  C   UNL     1      -8.020   8.027  66.597  1.00  0.00    -0.102 C  
ENDROOT
BRANCH   8  20
HETATM   20  C   UNL     1      -7.852   5.151  68.496  1.00  0.00    -0.079 C  
BRANCH  20  21
HETATM   21  C   UNL     1      -8.314   4.749  67.076  1.00  0.00    -0.106 A  
HETATM   22  C   UNL     1      -7.678   3.496  65.105  1.00  0.00    -0.081 A  
HETATM   23  C   UNL     1      -9.996   3.728  65.647  1.00  0.00    -0.050 A  
HETATM   24  C   UNL     1      -9.669   4.541  66.727  1.00  0.00    -0.224 A  
HETATM   25  C   UNL     1      -9.012   3.166  64.860  1.00  0.00    -0.137 A  
HETATM   26  C   UNL     1      -7.329   4.282  66.200  1.00  0.00    -0.076 A  
ENDBRANCH  20  21
ENDBRANCH   8  20
BRANCH  13  27
HETATM   27  N   UNL     1      -8.801  10.395  67.536  1.00  0.00    -0.134 NA 
HETATM   28  H   UNL     1      -8.075  10.948  67.081  1.00  0.00     0.000 HD 
BRANCH  27  29
HETATM   29  C   UNL     1      -9.925  10.894  67.929  1.00  0.00    -0.176 C  
HETATM   30  H   UNL     1     -11.919  10.731  67.811  1.00  0.00     0.000 HD 
HETATM   31  O   UNL     1     -11.092  10.364  67.522  1.00  0.00    -0.313 OA 
BRANCH  29  32
HETATM   32  C   UNL     1     -10.179  12.108  68.825  1.00  0.00    -0.133 C  
HETATM   33  C   UNL     1      -9.357  13.359  68.520  1.00  0.00    -0.097 C  
HETATM   34  N   UNL     1      -9.908  14.502  69.273  1.00  0.00    -0.082 NA 
HETATM   35  C   UNL     1     -11.292  14.923  68.868  1.00  0.00    -0.283 C  
HETATM   36  C   UNL     1      -8.953  15.581  69.447  1.00  0.00    -0.275 C  
HETATM   37  C   UNL     1     -11.405  16.213  67.972  1.00  0.00    -0.234 C  
HETATM   38  C   UNL     1     -10.860  15.878  66.634  1.00  0.00    -0.213 A  
HETATM   39  C   UNL     1      -9.900  16.439  65.829  1.00  0.00    -0.271 A  
HETATM   40  N   UNL     1      -9.609  15.518  64.840  1.00  0.00    -0.079 NA 
HETATM   41  C   UNL     1     -10.390  14.388  64.986  1.00  0.00    -0.421 A  
HETATM   42  H   UNL     1      -8.914  15.654  64.106  1.00  0.00     0.000 HD 
HETATM   43  C   UNL     1     -10.387  13.148  64.347  1.00  0.00    -0.390 A  
HETATM   44  C   UNL     1     -11.274  12.174  64.841  1.00  0.00    -0.374 A  
HETATM   45  C   UNL     1     -12.029  12.382  66.003  1.00  0.00    -0.419 A  
HETATM   46  C   UNL     1     -11.868  13.566  66.730  1.00  0.00    -0.450 A  
HETATM   47  C   UNL     1     -12.120  13.711  68.231  1.00  0.00    -0.306 C  
HETATM   48  C   UNL     1     -11.172  14.611  66.099  1.00  0.00    -0.341 A  
HETATM   49  C   UNL     1     -11.692  12.451  69.015  1.00  0.00    -0.372 C  
ENDBRANCH  29  32
ENDBRANCH  27  29
ENDBRANCH  13  27
TORSDOF 5
ENDMDL
MODEL       53
REMARK 921   NORMALIZED FREE ENERGY PREDICTED BY IDOCK:   -5.41 KCAL/MOL
REMARK 922        TOTAL FREE ENERGY PREDICTED BY IDOCK:   -8.83 KCAL/MOL
REMARK 923 INTER-LIGAND FREE ENERGY PREDICTED BY IDOCK:   -7.49 KCAL/MOL
REMARK 924 INTRA-LIGAND FREE ENERGY PREDICTED BY IDOCK:   -1.35 KCAL/MOL
REMARK 927      BINDING AFFINITY PREDICTED BY RF-SCORE:    0.00 PKD
ROOT
HETATM    1  C   UNL     1     -10.395   6.270  72.087  1.00  0.00    -0.191 C  
HETATM    2  C   UNL     1     -11.557   6.137  73.065  1.00  0.00     0.034 C  
HETATM    3  C   UNL     1     -11.533   4.624  73.425  1.00  0.00    -0.335 C  
HETATM    4  C   UNL     1     -10.640   3.955  72.390  1.00  0.00    -0.002 C  
HETATM    5  N   UNL     1     -10.324   5.000  71.445  1.00  0.00    -0.203 N  
HETATM    6  C   UNL     1      -9.255   4.758  70.621  1.00  0.00    -0.134 C  
HETATM    7  O   UNL     1      -9.113   3.630  70.163  1.00  0.00    -0.100 OA 
HETATM    8  C   UNL     1      -8.372   6.015  70.267  1.00  0.00    -0.124 C  
HETATM    9  C   UNL     1      -9.901   7.532  71.274  1.00  0.00    -0.179 C  
HETATM   10  N   UNL     1      -8.509   7.245  71.233  1.00  0.00    -0.115 N  
HETATM   11  C   UNL     1      -8.105   8.546  70.904  1.00  0.00    -0.127 C  
HETATM   12  H   UNL     1      -9.961   9.399  71.595  1.00  0.00     0.000 HD 
HETATM   13  C   UNL     1      -8.852   8.932  69.595  1.00  0.00    -0.142 C  
HETATM   14  O   UNL     1      -7.361   9.214  71.598  1.00  0.00    -0.315 OA 
HETATM   15  O   UNL     1     -10.258   8.640  72.084  1.00  0.00    -0.306 OA 
HETATM   16  O   UNL     1     -10.015   7.927  69.872  1.00  0.00    -0.187 OA 
HETATM   17  C   UNL     1      -6.255   9.474  68.869  1.00  0.00    -0.042 C  
HETATM   18  C   UNL     1      -7.657   8.360  67.123  1.00  0.00    -0.093 C  
HETATM   19  C   UNL     1      -7.554   8.634  68.625  1.00  0.00    -0.097 C  
ENDROOT
BRANCH   8  20
HETATM   20  C   UNL     1      -6.962   5.495  69.931  1.00  0.00    -0.061 C  
BRANCH  20  21
HETATM   21  C   UNL     1      -6.158   5.188  71.215  1.00  0.00    -0.022 A  
HETATM   22  C   UNL     1      -5.126   6.206  73.153  1.00  0.00    -0.031 A  
HETATM   23  C   UNL     1      -5.978   3.977  73.316  1.00  0.00    -0.011 A  
HETATM   24  C   UNL     1      -6.314   4.000  71.966  1.00  0.00    -0.018 A  
HETATM   25  C   UNL     1      -5.427   5.084  73.928  1.00  0.00    -0.018 A  
HETATM   26  C   UNL     1      -5.484   6.259  71.809  1.00  0.00    -0.027 A  
ENDBRANCH  20  21
ENDBRANCH   8  20
BRANCH  13  27
HETATM   27  N   UNL     1      -9.422  10.303  69.532  1.00  0.00    -0.316 NA 
HETATM   28  H   UNL     1      -9.062  11.083  70.082  1.00  0.00     0.000 HD 
BRANCH  27  29
HETATM   29  C   UNL     1     -10.417  10.415  68.716  1.00  0.00    -0.199 C  
HETATM   30  H   UNL     1     -11.356   9.577  67.156  1.00  0.00     0.000 HD 
HETATM   31  O   UNL     1     -10.625   9.495  67.757  1.00  0.00    -0.243 OA 
BRANCH  29  32
HETATM   32  C   UNL     1     -11.465  11.525  68.622  1.00  0.00    -0.354 C  
HETATM   33  C   UNL     1     -11.237  12.748  69.508  1.00  0.00    -0.077 C  
HETATM   34  N   UNL     1     -12.161  13.825  69.103  1.00  0.00    -0.319 NA 
HETATM   35  C   UNL     1     -11.925  14.381  67.728  1.00  0.00    -0.333 C  
HETATM   36  C   UNL     1     -12.377  14.811  70.146  1.00  0.00    -0.330 C  
HETATM   37  C   UNL     1     -11.197  15.774  67.643  1.00  0.00    -0.246 C  
HETATM   38  C   UNL     1      -9.788  15.569  68.058  1.00  0.00    -0.212 A  
HETATM   39  C   UNL     1      -8.975  16.160  68.993  1.00  0.00    -0.247 A  
HETATM   40  N   UNL     1      -7.866  15.348  69.140  1.00  0.00    -0.194 NA 
HETATM   41  C   UNL     1      -7.945  14.262  68.290  1.00  0.00    -0.140 A  
HETATM   42  H   UNL     1      -7.096  15.527  69.785  1.00  0.00     0.000 HD 
HETATM   43  C   UNL     1      -7.170  13.111  68.153  1.00  0.00    -0.117 A  
HETATM   44  C   UNL     1      -7.621  12.144  67.236  1.00  0.00    -0.156 A  
HETATM   45  C   UNL     1      -8.859  12.259  66.588  1.00  0.00    -0.167 A  
HETATM   46  C   UNL     1      -9.702  13.332  66.892  1.00  0.00    -0.248 A  
HETATM   47  C   UNL     1     -11.225  13.311  66.766  1.00  0.00    -0.331 C  
HETATM   48  C   UNL     1      -9.139  14.399  67.613  1.00  0.00    -0.194 A  
HETATM   49  C   UNL     1     -11.819  11.940  67.157  1.00  0.00    -0.216 C  
ENDBRANCH  29  32
ENDBRANCH  27  29
ENDBRANCH  13  27
TORSDOF 5
ENDMDL
MODEL       54
REMARK 921   NORMALIZED FREE ENERGY PREDICTED BY IDOCK:   -5.40 KCAL/MOL
REMARK 922        TOTAL FREE ENERGY PREDICTED BY IDOCK:   -8.82 KCAL/MOL
REMARK 923 INTER-LIGAND FREE ENERGY PREDICTED BY IDOCK:   -7.12 KCAL/MOL
REMARK 924 INTRA-LIGAND FREE ENERGY PREDICTED BY IDOCK:   -1.70 KCAL/MOL
REMARK 927      BINDING AFFINITY PREDICTED BY RF-SCORE:    0.00 PKD
ROOT
HETATM    1  C   UNL     1      -9.138   4.000  67.171  1.00  0.00    -0.150 C  
HETATM    2  C   UNL     1      -9.359   3.163  65.917  1.00  0.00    -0.104 C  
HETATM    3  C   UNL     1      -8.659   1.819  66.271  1.00  0.00    -0.112 C  
HETATM    4  C   UNL     1      -7.801   2.098  67.498  1.00  0.00    -0.060 C  
HETATM    5  N   UNL     1      -7.905   3.523  67.704  1.00  0.00    -0.077 N  
HETATM    6  C   UNL     1      -7.524   3.978  68.940  1.00  0.00    -0.055 C  
HETATM    7  O   UNL     1      -6.533   3.482  69.465  1.00  0.00    -0.032 OA 
HETATM    8  C   UNL     1      -8.361   5.186  69.508  1.00  0.00    -0.093 C  
HETATM    9  C   UNL     1      -9.530   5.503  67.462  1.00  0.00    -0.117 C  
HETATM   10  N   UNL     1      -9.773   5.409  68.859  1.00  0.00    -0.140 N  
HETATM   11  C   UNL     1     -10.500   6.602  68.959  1.00  0.00    -0.214 C  
HETATM   12  H   UNL     1     -10.920   6.634  66.844  1.00  0.00     0.000 HD 
HETATM   13  C   UNL     1      -9.584   7.734  68.411  1.00  0.00    -0.152 C  
HETATM   14  O   UNL     1     -11.653   6.656  69.346  1.00  0.00    -0.274 OA 
HETATM   15  O   UNL     1     -10.685   5.730  66.670  1.00  0.00    -0.291 OA 
HETATM   16  O   UNL     1      -8.761   6.744  67.526  1.00  0.00    -0.120 OA 
HETATM   17  C   UNL     1     -10.267   8.784  70.859  1.00  0.00    -0.284 C  
HETATM   18  C   UNL     1      -7.879   9.086  70.180  1.00  0.00    -0.100 C  
HETATM   19  C   UNL     1      -9.139   8.261  69.906  1.00  0.00    -0.147 C  
ENDROOT
BRANCH   8  20
HETATM   20  C   UNL     1      -8.255   5.126  71.043  1.00  0.00    -0.111 C  
BRANCH  20  21
HETATM   21  C   UNL     1      -9.541   4.539  71.669  1.00  0.00    -0.222 A  
HETATM   22  C   UNL     1     -10.483   2.542  72.663  1.00  0.00    -0.203 A  
HETATM   23  C   UNL     1     -11.291   4.686  73.350  1.00  0.00    -0.394 A  
HETATM   24  C   UNL     1     -10.463   5.304  72.419  1.00  0.00    -0.268 A  
HETATM   25  C   UNL     1     -11.278   3.315  73.511  1.00  0.00    -0.280 A  
HETATM   26  C   UNL     1      -9.625   3.144  71.747  1.00  0.00    -0.227 A  
ENDBRANCH  20  21
ENDBRANCH   8  20
BRANCH  13  27
HETATM   27  N   UNL     1     -10.224   8.737  67.520  1.00  0.00    -0.228 NA 
HETATM   28  H   UNL     1     -11.192   9.039  67.625  1.00  0.00     0.000 HD 
BRANCH  27  29
HETATM   29  C   UNL     1      -9.439   9.190  66.600  1.00  0.00    -0.185 C  
HETATM   30  H   UNL     1      -7.526   9.444  66.059  1.00  0.00     0.000 HD 
HETATM   31  O   UNL     1      -8.104   9.111  66.736  1.00  0.00    -0.109 OA 
BRANCH  29  32
HETATM   32  C   UNL     1      -9.797   9.893  65.289  1.00  0.00    -0.373 C  
HETATM   33  C   UNL     1     -11.150  10.600  65.247  1.00  0.00     0.405 C  
HETATM   34  N   UNL     1     -11.222  11.447  64.041  1.00  0.00    -0.338 NA 
HETATM   35  C   UNL     1     -10.260  12.600  64.015  1.00  0.00    -0.338 C  
HETATM   36  C   UNL     1     -12.584  11.762  63.649  1.00  0.00    -0.344 C  
HETATM   37  C   UNL     1     -10.852  14.023  64.335  1.00  0.00    -0.265 C  
HETATM   38  C   UNL     1     -11.207  14.047  65.775  1.00  0.00    -0.303 A  
HETATM   39  C   UNL     1     -12.351  14.353  66.469  1.00  0.00    -0.243 A  
HETATM   40  N   UNL     1     -12.178  13.899  67.762  1.00  0.00    -0.489 NA 
HETATM   41  C   UNL     1     -10.927  13.332  67.912  1.00  0.00    -0.249 A  
HETATM   42  H   UNL     1     -12.876  13.972  68.503  1.00  0.00     0.000 HD 
HETATM   43  C   UNL     1     -10.329  12.623  68.955  1.00  0.00    -0.055 A  
HETATM   44  C   UNL     1      -9.052  12.086  68.710  1.00  0.00     0.074 A  
HETATM   45  C   UNL     1      -8.458  12.136  67.442  1.00  0.00    -0.173 A  
HETATM   46  C   UNL     1      -9.165  12.686  66.368  1.00  0.00    -0.162 A  
HETATM   47  C   UNL     1      -8.960  12.309  64.901  1.00  0.00     0.830 C  
HETATM   48  C   UNL     1     -10.319  13.425  66.678  1.00  0.00    -0.269 A  
HETATM   49  C   UNL     1      -8.659  10.804  64.727  1.00  0.00    -0.079 C  
ENDBRANCH  29  32
ENDBRANCH  27  29
ENDBRANCH  13  27
TORSDOF 5
ENDMDL
MODEL       55
REMARK 921   NORMALIZED FREE ENERGY PREDICTED BY IDOCK:   -5.34 KCAL/MOL
REMARK 922        TOTAL FREE ENERGY PREDICTED BY IDOCK:   -8.75 KCAL/MOL
REMARK 923 INTER-LIGAND FREE ENERGY PREDICTED BY IDOCK:   -8.46 KCAL/MOL
REMARK 924 INTRA-LIGAND FREE ENERGY PREDICTED BY IDOCK:   -0.29 KCAL/MOL
REMARK 927      BINDING AFFINITY PREDICTED BY RF-SCORE:    0.00 PKD
ROOT
HETATM    1  C   UNL     1     -11.051  12.231  65.095  1.00  0.00    -0.317 C  
HETATM    2  C   UNL     1     -12.354  12.774  64.520  1.00  0.00    -0.515 C  
HETATM    3  C   UNL     1     -12.580  11.875  63.270  1.00  0.00    -0.473 C  
HETATM    4  C   UNL     1     -11.259  11.163  63.015  1.00  0.00     0.540 C  
HETATM    5  N   UNL     1     -10.338  11.745  63.962  1.00  0.00    -0.321 N  
HETATM    6  C   UNL     1      -9.185  11.037  64.186  1.00  0.00    -0.151 C  
HETATM    7  O   UNL     1      -8.630  10.506  63.231  1.00  0.00    -0.172 OA 
HETATM    8  C   UNL     1      -8.639  11.080  65.664  1.00  0.00    -0.130 C  
HETATM    9  C   UNL     1     -10.207  12.738  66.332  1.00  0.00    -0.253 C  
HETATM   10  N   UNL     1      -9.675  11.494  66.769  1.00  0.00    -0.196 N  
HETATM   11  C   UNL     1      -9.319  11.932  68.050  1.00  0.00    -0.193 C  
HETATM   12  H   UNL     1     -10.657  13.620  67.948  1.00  0.00     0.000 HD 
HETATM   13  C   UNL     1      -8.372  13.152  67.861  1.00  0.00    -0.170 C  
HETATM   14  O   UNL     1      -9.762  11.446  69.074  1.00  0.00    -0.138 OA 
HETATM   15  O   UNL     1     -11.165  13.316  67.204  1.00  0.00    -0.281 OA 
HETATM   16  O   UNL     1      -8.958  13.487  66.452  1.00  0.00    -0.122 OA 
HETATM   17  C   UNL     1      -6.845  11.586  69.528  1.00  0.00    -0.075 C  
HETATM   18  C   UNL     1      -5.608  12.717  67.671  1.00  0.00    -0.130 C  
HETATM   19  C   UNL     1      -7.000  12.281  68.133  1.00  0.00    -0.087 C  
ENDROOT
BRANCH   8  20
HETATM   20  C   UNL     1      -7.807   9.801  65.875  1.00  0.00    -0.108 C  
BRANCH  20  21
HETATM   21  C   UNL     1      -8.627   8.717  66.611  1.00  0.00    -0.120 A  
HETATM   22  C   UNL     1      -9.104   7.789  68.796  1.00  0.00    -0.140 A  
HETATM   23  C   UNL     1     -10.789   7.717  67.099  1.00  0.00    -0.227 A  
HETATM   24  C   UNL     1      -9.904   8.284  66.188  1.00  0.00    -0.138 A  
HETATM   25  C   UNL     1     -10.416   7.507  68.412  1.00  0.00    -0.212 A  
HETATM   26  C   UNL     1      -8.215   8.384  67.906  1.00  0.00    -0.127 A  
ENDBRANCH  20  21
ENDBRANCH   8  20
BRANCH  13  27
HETATM   27  N   UNL     1      -8.601  14.319  68.753  1.00  0.00    -0.300 NA 
HETATM   28  H   UNL     1      -8.914  14.229  69.719  1.00  0.00     0.000 HD 
BRANCH  27  29
HETATM   29  C   UNL     1      -8.366  15.457  68.189  1.00  0.00    -0.145 C  
HETATM   30  H   UNL     1      -9.193  17.011  67.231  1.00  0.00     0.000 HD 
HETATM   31  O   UNL     1      -9.366  16.174  67.645  1.00  0.00    -0.212 OA 
BRANCH  29  32
HETATM   32  C   UNL     1      -7.030  16.174  67.986  1.00  0.00    -0.139 C  
HETATM   33  C   UNL     1      -6.872  16.957  66.685  1.00  0.00    -0.236 C  
HETATM   34  N   UNL     1      -5.665  17.802  66.766  1.00  0.00    -0.145 NA 
HETATM   35  C   UNL     1      -5.723  18.897  67.792  1.00  0.00    -0.189 C  
HETATM   36  C   UNL     1      -5.157  18.193  65.463  1.00  0.00    -0.182 C  
HETATM   37  C   UNL     1      -5.992  20.354  67.257  1.00  0.00    -0.226 C  
HETATM   38  C   UNL     1      -7.395  20.404  66.782  1.00  0.00    -0.328 A  
HETATM   39  C   UNL     1      -7.989  20.779  65.602  1.00  0.00     0.645 A  
HETATM   40  N   UNL     1      -9.292  20.321  65.636  1.00  0.00    -0.476 NA 
HETATM   41  C   UNL     1      -9.549  19.683  66.835  1.00  0.00    -0.359 A  
HETATM   42  H   UNL     1      -9.970  20.437  64.883  1.00  0.00     0.000 HD 
HETATM   43  C   UNL     1     -10.638  18.946  67.299  1.00  0.00    -0.529 A  
HETATM   44  C   UNL     1     -10.504  18.336  68.560  1.00  0.00    -0.241 A  
HETATM   45  C   UNL     1      -9.292  18.346  69.262  1.00  0.00     0.110 A  
HETATM   46  C   UNL     1      -8.161  18.931  68.683  1.00  0.00    -0.380 A  
HETATM   47  C   UNL     1      -6.717  18.536  68.992  1.00  0.00    -0.288 C  
HETATM   48  C   UNL     1      -8.371  19.736  67.551  1.00  0.00    -0.351 A  
HETATM   49  C   UNL     1      -6.568  17.016  69.219  1.00  0.00    -0.233 C  
ENDBRANCH  29  32
ENDBRANCH  27  29
ENDBRANCH  13  27
TORSDOF 5
ENDMDL
MODEL       56
REMARK 921   NORMALIZED FREE ENERGY PREDICTED BY IDOCK:   -5.34 KCAL/MOL
REMARK 922        TOTAL FREE ENERGY PREDICTED BY IDOCK:   -8.75 KCAL/MOL
REMARK 923 INTER-LIGAND FREE ENERGY PREDICTED BY IDOCK:   -8.58 KCAL/MOL
REMARK 924 INTRA-LIGAND FREE ENERGY PREDICTED BY IDOCK:   -0.17 KCAL/MOL
REMARK 927      BINDING AFFINITY PREDICTED BY RF-SCORE:    0.00 PKD
ROOT
HETATM    1  C   UNL     1      -9.321   5.694  66.659  1.00  0.00    -0.144 C  
HETATM    2  C   UNL     1     -10.345   4.819  65.945  1.00  0.00    -0.303 C  
HETATM    3  C   UNL     1      -9.724   3.397  66.061  1.00  0.00     0.011 C  
HETATM    4  C   UNL     1      -8.274   3.600  66.482  1.00  0.00    -0.100 C  
HETATM    5  N   UNL     1      -8.078   5.030  66.448  1.00  0.00    -0.107 N  
HETATM    6  C   UNL     1      -6.980   5.498  67.124  1.00  0.00    -0.065 C  
HETATM    7  O   UNL     1      -5.934   4.861  67.053  1.00  0.00    -0.025 OA 
HETATM    8  C   UNL     1      -7.166   6.888  67.843  1.00  0.00    -0.095 C  
HETATM    9  C   UNL     1      -9.291   7.263  66.845  1.00  0.00    -0.156 C  
HETATM   10  N   UNL     1      -8.649   7.329  68.112  1.00  0.00    -0.123 N  
HETATM   11  C   UNL     1      -9.032   8.646  68.398  1.00  0.00    -0.142 C  
HETATM   12  H   UNL     1     -10.639   8.591  66.961  1.00  0.00     0.000 HD 
HETATM   13  C   UNL     1      -8.519   9.530  67.226  1.00  0.00    -0.128 C  
HETATM   14  O   UNL     1      -9.702   8.955  69.366  1.00  0.00    -0.164 OA 
HETATM   15  O   UNL     1     -10.657   7.647  66.849  1.00  0.00    -0.341 OA 
HETATM   16  O   UNL     1      -8.511   8.331  66.224  1.00  0.00    -0.116 OA 
HETATM   17  C   UNL     1      -7.463  10.884  69.374  1.00  0.00    -0.105 C  
HETATM   18  C   UNL     1      -5.957  10.660  67.390  1.00  0.00    -0.052 C  
HETATM   19  C   UNL     1      -7.206  10.078  68.056  1.00  0.00    -0.082 C  
ENDROOT
BRANCH   8  20
HETATM   20  C   UNL     1      -6.161   6.931  69.009  1.00  0.00    -0.027 C  
BRANCH  20  21
HETATM   21  C   UNL     1      -6.879   6.784  70.371  1.00  0.00    -0.062 A  
HETATM   22  C   UNL     1      -7.773   8.032  72.242  1.00  0.00    -0.140 A  
HETATM   23  C   UNL     1      -8.771   5.942  71.645  1.00  0.00    -0.136 A  
HETATM   24  C   UNL     1      -7.812   5.760  70.654  1.00  0.00    -0.101 A  
HETATM   25  C   UNL     1      -8.788   7.089  72.412  1.00  0.00    -0.141 A  
HETATM   26  C   UNL     1      -6.824   7.883  71.235  1.00  0.00    -0.046 A  
ENDBRANCH  20  21
ENDBRANCH   8  20
BRANCH  13  27
HETATM   27  N   UNL     1      -9.454  10.564  66.711  1.00  0.00    -0.160 NA 
HETATM   28  H   UNL     1      -9.413  10.928  65.759  1.00  0.00     0.000 HD 
BRANCH  27  29
HETATM   29  C   UNL     1     -10.322  10.960  67.582  1.00  0.00    -0.197 C  
HETATM   30  H   UNL     1     -12.154  10.638  68.329  1.00  0.00     0.000 HD 
HETATM   31  O   UNL     1     -11.515  10.348  67.688  1.00  0.00    -0.401 OA 
BRANCH  29  32
HETATM   32  C   UNL     1     -10.233  12.124  68.570  1.00  0.00    -0.214 C  
HETATM   33  C   UNL     1      -9.314  13.278  68.176  1.00  0.00    -0.220 C  
HETATM   34  N   UNL     1      -9.550  14.422  69.079  1.00  0.00    -0.117 NA 
HETATM   35  C   UNL     1     -10.911  15.047  68.969  1.00  0.00    -0.249 C  
HETATM   36  C   UNL     1      -8.437  15.352  69.119  1.00  0.00    -0.241 C  
HETATM   37  C   UNL     1     -11.004  16.406  68.178  1.00  0.00    -0.339 C  
HETATM   38  C   UNL     1     -10.767  16.107  66.745  1.00  0.00    -0.235 A  
HETATM   39  C   UNL     1      -9.902  16.599  65.800  1.00  0.00    -0.211 A  
HETATM   40  N   UNL     1      -9.929  15.727  64.728  1.00  0.00    -0.253 NA 
HETATM   41  C   UNL     1     -10.822  14.699  64.964  1.00  0.00    -0.417 A  
HETATM   42  H   UNL     1      -9.369  15.828  63.881  1.00  0.00     0.000 HD 
HETATM   43  C   UNL     1     -11.111  13.521  64.274  1.00  0.00    -0.371 A  
HETATM   44  C   UNL     1     -12.021  12.635  64.880  1.00  0.00    -0.459 A  
HETATM   45  C   UNL     1     -12.513  12.849  66.174  1.00  0.00    -0.089 A  
HETATM   46  C   UNL     1     -12.055  13.943  66.916  1.00  0.00    -0.467 A  
HETATM   47  C   UNL     1     -12.004  14.005  68.443  1.00  0.00    -0.378 C  
HETATM   48  C   UNL     1     -11.347  14.935  66.216  1.00  0.00    -0.306 A  
HETATM   49  C   UNL     1     -11.622  12.643  69.064  1.00  0.00    -0.367 C  
ENDBRANCH  29  32
ENDBRANCH  27  29
ENDBRANCH  13  27
TORSDOF 5
ENDMDL
MODEL       57
REMARK 921   NORMALIZED FREE ENERGY PREDICTED BY IDOCK:   -5.32 KCAL/MOL
REMARK 922        TOTAL FREE ENERGY PREDICTED BY IDOCK:   -8.72 KCAL/MOL
REMARK 923 INTER-LIGAND FREE ENERGY PREDICTED BY IDOCK:   -7.88 KCAL/MOL
REMARK 924 INTRA-LIGAND FREE ENERGY PREDICTED BY IDOCK:   -0.84 KCAL/MOL
REMARK 927      BINDING AFFINITY PREDICTED BY RF-SCORE:    0.00 PKD
ROOT
HETATM    1  C   UNL     1     -10.008  11.362  64.925  1.00  0.00    -0.265 C  
HETATM    2  C   UNL     1     -10.402  11.078  63.480  1.00  0.00    -0.402 C  
HETATM    3  C   UNL     1     -11.731  11.873  63.322  1.00  0.00    -0.397 C  
HETATM    4  C   UNL     1     -12.180  12.233  64.732  1.00  0.00    -0.365 C  
HETATM    5  N   UNL     1     -11.249  11.553  65.600  1.00  0.00    -0.208 N  
HETATM    6  C   UNL     1     -11.209  11.995  66.897  1.00  0.00    -0.320 C  
HETATM    7  O   UNL     1     -12.265  12.285  67.449  1.00  0.00    -0.478 OA 
HETATM    8  C   UNL     1      -9.787  11.979  67.578  1.00  0.00    -0.186 C  
HETATM    9  C   UNL     1      -8.793  10.803  65.766  1.00  0.00    -0.188 C  
HETATM   10  N   UNL     1      -8.559  11.929  66.602  1.00  0.00    -0.184 N  
HETATM   11  C   UNL     1      -7.267  11.553  66.991  1.00  0.00    -0.146 C  
HETATM   12  H   UNL     1      -7.048  10.216  65.312  1.00  0.00     0.000 HD 
HETATM   13  C   UNL     1      -7.381  10.135  67.621  1.00  0.00    -0.089 C  
HETATM   14  O   UNL     1      -6.277  12.229  66.779  1.00  0.00    -0.185 OA 
HETATM   15  O   UNL     1      -7.779  10.552  64.806  1.00  0.00    -0.109 OA 
HETATM   16  O   UNL     1      -8.685   9.803  66.826  1.00  0.00    -0.130 OA 
HETATM   17  C   UNL     1      -6.053  11.468  69.626  1.00  0.00    -0.114 C  
HETATM   18  C   UNL     1      -7.852   9.901  70.376  1.00  0.00    -0.066 C  
HETATM   19  C   UNL     1      -7.334  10.690  69.171  1.00  0.00    -0.111 C  
ENDROOT
BRANCH   8  20
HETATM   20  C   UNL     1      -9.806  13.047  68.687  1.00  0.00    -0.075 C  
BRANCH  20  21
HETATM   21  C   UNL     1      -9.351  14.421  68.147  1.00  0.00    -0.203 A  
HETATM   22  C   UNL     1      -7.404  15.792  67.710  1.00  0.00    -0.167 A  
HETATM   23  C   UNL     1      -9.348  16.048  66.339  1.00  0.00    -0.329 A  
HETATM   24  C   UNL     1     -10.028  15.117  67.118  1.00  0.00    -0.237 A  
HETATM   25  C   UNL     1      -8.029  16.360  66.597  1.00  0.00    -0.323 A  
HETATM   26  C   UNL     1      -8.057  14.835  68.481  1.00  0.00    -0.146 A  
ENDBRANCH  20  21
ENDBRANCH   8  20
BRANCH  13  27
HETATM   27  N   UNL     1      -6.337   9.149  67.240  1.00  0.00    -0.059 NA 
HETATM   28  H   UNL     1      -5.436   9.416  66.845  1.00  0.00     0.000 HD 
BRANCH  27  29
HETATM   29  C   UNL     1      -6.677   7.921  67.456  1.00  0.00    -0.069 C  
HETATM   30  H   UNL     1      -7.298   6.615  68.844  1.00  0.00     0.000 HD 
HETATM   31  O   UNL     1      -7.047   7.518  68.685  1.00  0.00    -0.076 OA 
BRANCH  29  32
HETATM   32  C   UNL     1      -6.699   6.742  66.482  1.00  0.00    -0.049 C  
HETATM   33  C   UNL     1      -6.622   5.349  67.104  1.00  0.00    -0.053 C  
HETATM   34  N   UNL     1      -6.932   4.337  66.075  1.00  0.00    -0.064 NA 
HETATM   35  C   UNL     1      -8.338   4.374  65.549  1.00  0.00    -0.114 C  
HETATM   36  C   UNL     1      -6.423   3.018  66.405  1.00  0.00    -0.032 C  
HETATM   37  C   UNL     1      -9.326   3.274  66.091  1.00  0.00    -0.130 C  
HETATM   38  C   UNL     1      -9.599   3.580  67.515  1.00  0.00    -0.177 A  
HETATM   39  C   UNL     1      -9.509   2.858  68.680  1.00  0.00    -0.124 A  
HETATM   40  N   UNL     1      -9.599   3.757  69.725  1.00  0.00    -0.198 NA 
HETATM   41  C   UNL     1      -9.774   5.041  69.246  1.00  0.00    -0.179 A  
HETATM   42  H   UNL     1      -9.543   3.508  70.713  1.00  0.00     0.000 HD 
HETATM   43  C   UNL     1      -9.782   6.290  69.868  1.00  0.00    -0.191 A  
HETATM   44  C   UNL     1      -9.879   7.417  69.033  1.00  0.00    -0.168 A  
HETATM   45  C   UNL     1      -9.831   7.311  67.636  1.00  0.00    -0.189 A  
HETATM   46  C   UNL     1      -9.629   6.060  67.045  1.00  0.00    -0.148 A  
HETATM   47  C   UNL     1      -8.983   5.833  65.678  1.00  0.00    -0.122 C  
HETATM   48  C   UNL     1      -9.778   4.933  67.871  1.00  0.00    -0.202 A  
HETATM   49  C   UNL     1      -7.832   6.828  65.409  1.00  0.00    -0.115 C  
ENDBRANCH  29  32
ENDBRANCH  27  29
ENDBRANCH  13  27
TORSDOF 5
ENDMDL
MODEL       58
REMARK 921   NORMALIZED FREE ENERGY PREDICTED BY IDOCK:   -5.26 KCAL/MOL
REMARK 922        TOTAL FREE ENERGY PREDICTED BY IDOCK:   -8.64 KCAL/MOL
REMARK 923 INTER-LIGAND FREE ENERGY PREDICTED BY IDOCK:   -7.52 KCAL/MOL
REMARK 924 INTRA-LIGAND FREE ENERGY PREDICTED BY IDOCK:   -1.12 KCAL/MOL
REMARK 927      BINDING AFFINITY PREDICTED BY RF-SCORE:    0.00 PKD
ROOT
HETATM    1  C   UNL     1      -9.985   7.703  68.453  1.00  0.00    -0.176 C  
HETATM    2  C   UNL     1     -10.597   7.796  69.846  1.00  0.00    -0.239 C  
HETATM    3  C   UNL     1     -10.957   6.316  70.164  1.00  0.00    -0.411 C  
HETATM    4  C   UNL     1     -10.876   5.566  68.841  1.00  0.00    -0.061 C  
HETATM    5  N   UNL     1     -10.640   6.590  67.851  1.00  0.00    -0.221 N  
HETATM    6  C   UNL     1     -10.172   6.152  66.638  1.00  0.00    -0.178 C  
HETATM    7  O   UNL     1     -10.641   5.121  66.169  1.00  0.00    -0.282 OA 
HETATM    8  C   UNL     1      -9.139   7.105  65.924  1.00  0.00    -0.013 C  
HETATM    9  C   UNL     1      -9.468   8.853  67.501  1.00  0.00    -0.141 C  
HETATM   10  N   UNL     1      -8.420   8.152  66.845  1.00  0.00    -0.118 N  
HETATM   11  C   UNL     1      -7.762   9.292  66.366  1.00  0.00    -0.093 C  
HETATM   12  H   UNL     1      -8.729  10.572  67.809  1.00  0.00     0.000 HD 
HETATM   13  C   UNL     1      -8.799  10.091  65.526  1.00  0.00    -0.165 C  
HETATM   14  O   UNL     1      -6.614   9.577  66.654  1.00  0.00    -0.066 OA 
HETATM   15  O   UNL     1      -9.039   9.880  68.381  1.00  0.00    -0.122 OA 
HETATM   16  O   UNL     1     -10.011   9.475  66.295  1.00  0.00    -0.249 OA 
HETATM   17  C   UNL     1      -6.737   9.890  63.718  1.00  0.00    -0.125 C  
HETATM   18  C   UNL     1      -9.032   9.557  62.782  1.00  0.00    -0.243 C  
HETATM   19  C   UNL     1      -8.222   9.550  64.081  1.00  0.00    -0.159 C  
ENDROOT
BRANCH   8  20
HETATM   20  C   UNL     1      -8.281   6.225  64.996  1.00  0.00    -0.132 C  
BRANCH  20  21
HETATM   21  C   UNL     1      -7.443   5.210  65.808  1.00  0.00    -0.082 A  
HETATM   22  C   UNL     1      -6.448   3.005  65.728  1.00  0.00    -0.032 A  
HETATM   23  C   UNL     1      -5.411   4.710  67.047  1.00  0.00    -0.013 A  
HETATM   24  C   UNL     1      -6.443   5.589  66.733  1.00  0.00    -0.047 A  
HETATM   25  C   UNL     1      -5.380   3.436  66.517  1.00  0.00    -0.013 A  
HETATM   26  C   UNL     1      -7.472   3.879  65.377  1.00  0.00    -0.081 A  
ENDBRANCH  20  21
ENDBRANCH   8  20
BRANCH  13  27
HETATM   27  N   UNL     1      -8.822  11.564  65.718  1.00  0.00    -0.370 NA 
HETATM   28  H   UNL     1      -7.998  12.106  65.976  1.00  0.00     0.000 HD 
BRANCH  27  29
HETATM   29  C   UNL     1      -9.985  12.095  65.528  1.00  0.00    -0.246 C  
HETATM   30  H   UNL     1     -11.145  13.068  64.215  1.00  0.00     0.000 HD 
HETATM   31  O   UNL     1     -10.290  12.678  64.355  1.00  0.00    -0.340 OA 
BRANCH  29  32
HETATM   32  C   UNL     1     -11.159  12.215  66.501  1.00  0.00    -0.352 C  
HETATM   33  C   UNL     1     -10.804  12.305  67.984  1.00  0.00    -0.220 C  
HETATM   34  N   UNL     1     -12.003  12.691  68.752  1.00  0.00    -0.289 NA 
HETATM   35  C   UNL     1     -12.524  14.071  68.466  1.00  0.00     0.247 C  
HETATM   36  C   UNL     1     -11.917  12.336  70.156  1.00  0.00    -0.298 C  
HETATM   37  C   UNL     1     -12.201  15.184  69.531  1.00  0.00    -0.268 C  
HETATM   38  C   UNL     1     -10.746  15.463  69.461  1.00  0.00    -0.269 A  
HETATM   39  C   UNL     1      -9.734  15.483  70.388  1.00  0.00     0.486 A  
HETATM   40  N   UNL     1      -8.542  15.504  69.689  1.00  0.00    -0.258 NA 
HETATM   41  C   UNL     1      -8.779  15.529  68.328  1.00  0.00    -0.170 A  
HETATM   42  H   UNL     1      -7.616  15.503  70.119  1.00  0.00     0.000 HD 
HETATM   43  C   UNL     1      -7.938  15.422  67.220  1.00  0.00    -0.231 A  
HETATM   44  C   UNL     1      -8.553  15.375  65.956  1.00  0.00     0.206 A  
HETATM   45  C   UNL     1      -9.944  15.300  65.812  1.00  0.00    -0.391 A  
HETATM   46  C   UNL     1     -10.754  15.216  66.949  1.00  0.00    -0.308 A  
HETATM   47  C   UNL     1     -12.135  14.560  66.993  1.00  0.00    -0.303 C  
HETATM   48  C   UNL     1     -10.150  15.507  68.183  1.00  0.00    -0.218 A  
HETATM   49  C   UNL     1     -12.207  13.303  66.098  1.00  0.00    -0.466 C  
ENDBRANCH  29  32
ENDBRANCH  27  29
ENDBRANCH  13  27
TORSDOF 5
ENDMDL
MODEL       59
REMARK 921   NORMALIZED FREE ENERGY PREDICTED BY IDOCK:   -5.16 KCAL/MOL
REMARK 922        TOTAL FREE ENERGY PREDICTED BY IDOCK:   -8.51 KCAL/MOL
REMARK 923 INTER-LIGAND FREE ENERGY PREDICTED BY IDOCK:   -8.01 KCAL/MOL
REMARK 924 INTRA-LIGAND FREE ENERGY PREDICTED BY IDOCK:   -0.50 KCAL/MOL
REMARK 927      BINDING AFFINITY PREDICTED BY RF-SCORE:    0.00 PKD
ROOT
HETATM    1  C   UNL     1      -7.032  14.888  67.690  1.00  0.00    -0.184 C  
HETATM    2  C   UNL     1      -5.641  15.327  68.133  1.00  0.00    -0.132 C  
HETATM    3  C   UNL     1      -5.710  16.876  68.003  1.00  0.00    -0.126 C  
HETATM    4  C   UNL     1      -6.952  17.177  67.175  1.00  0.00    -0.178 C  
HETATM    5  N   UNL     1      -7.438  15.884  66.755  1.00  0.00    -0.195 N  
HETATM    6  C   UNL     1      -8.732  15.849  66.305  1.00  0.00    -0.337 C  
HETATM    7  O   UNL     1      -9.132  16.770  65.601  1.00  0.00    -0.489 OA 
HETATM    8  C   UNL     1      -9.543  14.546  66.666  1.00  0.00    -0.276 C  
HETATM    9  C   UNL     1      -7.620  13.432  67.513  1.00  0.00    -0.169 C  
HETATM   10  N   UNL     1      -8.975  13.691  67.855  1.00  0.00    -0.185 N  
HETATM   11  C   UNL     1      -9.322  12.355  68.092  1.00  0.00    -0.209 C  
HETATM   12  H   UNL     1      -7.263  11.767  68.347  1.00  0.00     0.000 HD 
HETATM   13  C   UNL     1      -8.992  11.567  66.792  1.00  0.00    -0.181 C  
HETATM   14  O   UNL     1      -9.732  11.947  69.163  1.00  0.00     0.089 OA 
HETATM   15  O   UNL     1      -6.909  12.643  68.453  1.00  0.00    -0.076 OA 
HETATM   16  O   UNL     1      -7.915  12.606  66.344  1.00  0.00     0.289 OA 
HETATM   17  C   UNL     1     -11.611  10.823  67.177  1.00  0.00     0.265 C  
HETATM   18  C   UNL     1     -10.963  11.315  64.812  1.00  0.00    -0.262 C  
HETATM   19  C   UNL     1     -10.554  11.539  66.270  1.00  0.00    -0.309 C  
ENDROOT
BRANCH   8  20
HETATM   20  C   UNL     1     -11.033  14.931  66.680  1.00  0.00    -0.325 C  
BRANCH  20  21
HETATM   21  C   UNL     1     -11.527  15.204  68.119  1.00  0.00    -0.356 A  
HETATM   22  C   UNL     1     -12.381  14.138  70.117  1.00  0.00    -0.413 A  
HETATM   23  C   UNL     1     -11.103  16.150  70.319  1.00  0.00    -0.375 A  
HETATM   24  C   UNL     1     -11.018  16.242  68.933  1.00  0.00    -0.334 A  
HETATM   25  C   UNL     1     -11.741  15.083  70.920  1.00  0.00    -0.376 A  
HETATM   26  C   UNL     1     -12.280  14.196  68.730  1.00  0.00    -0.234 A  
ENDBRANCH  20  21
ENDBRANCH   8  20
BRANCH  13  27
HETATM   27  N   UNL     1      -8.328  10.248  66.961  1.00  0.00    -0.125 NA 
HETATM   28  H   UNL     1      -7.329  10.105  66.820  1.00  0.00     0.000 HD 
BRANCH  27  29
HETATM   29  C   UNL     1      -9.136   9.300  67.305  1.00  0.00    -0.126 C  
HETATM   30  H   UNL     1     -10.314   7.827  66.626  1.00  0.00     0.000 HD 
HETATM   31  O   UNL     1      -9.720   8.525  66.374  1.00  0.00    -0.235 OA 
BRANCH  29  32
HETATM   32  C   UNL     1      -9.609   8.898  68.703  1.00  0.00    -0.158 C  
HETATM   33  C   UNL     1     -10.475   7.643  68.789  1.00  0.00    -0.189 C  
HETATM   34  N   UNL     1     -10.611   7.239  70.203  1.00  0.00    -0.226 NA 
HETATM   35  C   UNL     1      -9.338   6.794  70.862  1.00  0.00    -0.157 C  
HETATM   36  C   UNL     1     -11.767   6.395  70.443  1.00  0.00    -0.321 C  
HETATM   37  C   UNL     1      -9.142   5.242  71.048  1.00  0.00    -0.171 C  
HETATM   38  C   UNL     1      -8.928   4.654  69.705  1.00  0.00    -0.140 A  
HETATM   39  C   UNL     1      -9.524   3.634  69.006  1.00  0.00    -0.156 A  
HETATM   40  N   UNL     1      -9.111   3.744  67.691  1.00  0.00    -0.143 NA 
HETATM   41  C   UNL     1      -8.236   4.804  67.546  1.00  0.00    -0.105 A  
HETATM   42  H   UNL     1      -9.410   3.129  66.934  1.00  0.00     0.000 HD 
HETATM   43  C   UNL     1      -7.658   5.405  66.429  1.00  0.00    -0.088 A  
HETATM   44  C   UNL     1      -6.886   6.560  66.654  1.00  0.00    -0.065 A  
HETATM   45  C   UNL     1      -6.809   7.164  67.916  1.00  0.00    -0.074 A  
HETATM   46  C   UNL     1      -7.556   6.645  68.979  1.00  0.00    -0.101 A  
HETATM   47  C   UNL     1      -8.051   7.454  70.178  1.00  0.00    -0.131 C  
HETATM   48  C   UNL     1      -8.118   5.369  68.798  1.00  0.00    -0.087 A  
HETATM   49  C   UNL     1      -8.474   8.884  69.776  1.00  0.00    -0.131 C  
ENDBRANCH  29  32
ENDBRANCH  27  29
ENDBRANCH  13  27
TORSDOF 5
ENDMDL
MODEL       60
REMARK 921   NORMALIZED FREE ENERGY PREDICTED BY IDOCK:   -5.01 KCAL/MOL
REMARK 922        TOTAL FREE ENERGY PREDICTED BY IDOCK:   -8.32 KCAL/MOL
REMARK 923 INTER-LIGAND FREE ENERGY PREDICTED BY IDOCK:   -7.97 KCAL/MOL
REMARK 924 INTRA-LIGAND FREE ENERGY PREDICTED BY IDOCK:   -0.35 KCAL/MOL
REMARK 927      BINDING AFFINITY PREDICTED BY RF-SCORE:    0.00 PKD
ROOT
HETATM    1  C   UNL     1      -9.172   7.864  71.095  1.00  0.00    -0.147 C  
HETATM    2  C   UNL     1      -9.397   8.458  72.480  1.00  0.00    -0.346 C  
HETATM    3  C   UNL     1     -10.372   7.440  73.138  1.00  0.00    -0.384 C  
HETATM    4  C   UNL     1     -10.910   6.575  72.006  1.00  0.00    -0.234 C  
HETATM    5  N   UNL     1     -10.385   7.176  70.802  1.00  0.00    -0.206 N  
HETATM    6  C   UNL     1     -10.420   6.390  69.679  1.00  0.00    -0.227 C  
HETATM    7  O   UNL     1     -11.410   5.694  69.483  1.00  0.00    -0.128 OA 
HETATM    8  C   UNL     1      -9.201   6.559  68.693  1.00  0.00    -0.127 C  
HETATM    9  C   UNL     1      -8.339   8.432  69.878  1.00  0.00    -0.124 C  
HETATM   10  N   UNL     1      -7.907   7.205  69.305  1.00  0.00    -0.115 N  
HETATM   11  C   UNL     1      -6.874   7.759  68.539  1.00  0.00    -0.066 C  
HETATM   12  H   UNL     1      -6.811   9.546  69.746  1.00  0.00     0.000 HD 
HETATM   13  C   UNL     1      -7.519   8.848  67.634  1.00  0.00    -0.092 C  
HETATM   14  O   UNL     1      -5.704   7.449  68.664  1.00  0.00    -0.021 OA 
HETATM   15  O   UNL     1      -7.312   9.204  70.478  1.00  0.00    -0.075 OA 
HETATM   16  O   UNL     1      -8.716   9.064  68.615  1.00  0.00    -0.131 OA 
HETATM   17  C   UNL     1      -6.185   7.355  65.749  1.00  0.00    -0.038 C  
HETATM   18  C   UNL     1      -8.475   8.123  65.099  1.00  0.00    -0.134 C  
HETATM   19  C   UNL     1      -7.552   7.886  66.297  1.00  0.00    -0.083 C  
ENDROOT
BRANCH   8  20
HETATM   20  C   UNL     1      -9.068   5.240  67.910  1.00  0.00    -0.117 C  
BRANCH  20  21
HETATM   21  C   UNL     1      -8.304   4.177  68.733  1.00  0.00    -0.093 A  
HETATM   22  C   UNL     1      -8.481   1.959  69.687  1.00  0.00    -0.082 A  
HETATM   23  C   UNL     1      -6.339   2.771  68.999  1.00  0.00    -0.029 A  
HETATM   24  C   UNL     1      -6.904   3.997  68.663  1.00  0.00    -0.047 A  
HETATM   25  C   UNL     1      -7.121   1.734  69.467  1.00  0.00    -0.036 A  
HETATM   26  C   UNL     1      -9.070   3.168  69.327  1.00  0.00    -0.201 A  
ENDBRANCH  20  21
ENDBRANCH   8  20
BRANCH  13  27
HETATM   27  N   UNL     1      -6.781  10.132  67.506  1.00  0.00    -0.071 NA 
HETATM   28  H   UNL     1      -5.780  10.219  67.676  1.00  0.00     0.000 HD 
BRANCH  27  29
HETATM   29  C   UNL     1      -7.528  11.127  67.158  1.00  0.00    -0.121 C  
HETATM   30  H   UNL     1      -8.461  12.016  65.623  1.00  0.00     0.000 HD 
HETATM   31  O   UNL     1      -7.911  11.284  65.879  1.00  0.00    -0.062 OA 
BRANCH  29  32
HETATM   32  C   UNL     1      -8.065  12.274  68.017  1.00  0.00    -0.156 C  
HETATM   33  C   UNL     1      -8.422  13.563  67.279  1.00  0.00    -0.193 C  
HETATM   34  N   UNL     1      -9.173  14.453  68.185  1.00  0.00    -0.192 NA 
HETATM   35  C   UNL     1     -10.522  13.942  68.603  1.00  0.00    -0.246 C  
HETATM   36  C   UNL     1      -9.132  15.845  67.776  1.00  0.00    -0.196 C  
HETATM   37  C   UNL     1     -11.773  14.580  67.889  1.00  0.00    -0.381 C  
HETATM   38  C   UNL     1     -11.772  14.115  66.482  1.00  0.00    -0.414 A  
HETATM   39  C   UNL     1     -11.822  14.752  65.267  1.00  0.00    -0.276 A  
HETATM   40  N   UNL     1     -11.479  13.823  64.304  1.00  0.00    -0.515 NA 
HETATM   41  C   UNL     1     -11.239  12.592  64.883  1.00  0.00    -0.305 A  
HETATM   42  H   UNL     1     -11.413  14.018  63.305  1.00  0.00     0.000 HD 
HETATM   43  C   UNL     1     -10.741  11.390  64.378  1.00  0.00    -0.405 A  
HETATM   44  C   UNL     1     -10.520  10.353  65.303  1.00  0.00    -0.178 A  
HETATM   45  C   UNL     1     -10.657  10.550  66.683  1.00  0.00    -0.263 A  
HETATM   46  C   UNL     1     -10.972  11.822  67.173  1.00  0.00    -0.326 A  
HETATM   47  C   UNL     1     -10.594  12.345  68.559  1.00  0.00    -0.251 C  
HETATM   48  C   UNL     1     -11.423  12.770  66.238  1.00  0.00    -0.405 A  
HETATM   49  C   UNL     1      -9.200  11.848  69.003  1.00  0.00     0.275 C  
ENDBRANCH  29  32
ENDBRANCH  27  29
ENDBRANCH  13  27
TORSDOF 5
ENDMDL
MODEL       61
REMARK 921   NORMALIZED FREE ENERGY PREDICTED BY IDOCK:   -5.01 KCAL/MOL
REMARK 922        TOTAL FREE ENERGY PREDICTED BY IDOCK:   -8.31 KCAL/MOL
REMARK 923 INTER-LIGAND FREE ENERGY PREDICTED BY IDOCK:   -7.96 KCAL/MOL
REMARK 924 INTRA-LIGAND FREE ENERGY PREDICTED BY IDOCK:   -0.35 KCAL/MOL
REMARK 927      BINDING AFFINITY PREDICTED BY RF-SCORE:    0.00 PKD
ROOT
HETATM    1  C   UNL     1     -10.776  12.259  68.788  1.00  0.00    -0.214 C  
HETATM    2  C   UNL     1     -11.896  13.048  69.455  1.00  0.00    -0.385 C  
HETATM    3  C   UNL     1     -11.864  14.404  68.693  1.00  0.00    -0.366 C  
HETATM    4  C   UNL     1     -10.543  14.434  67.936  1.00  0.00    -0.240 C  
HETATM    5  N   UNL     1      -9.841  13.251  68.374  1.00  0.00    -0.235 N  
HETATM    6  C   UNL     1      -8.792  12.852  67.584  1.00  0.00    -0.187 C  
HETATM    7  O   UNL     1      -8.053  13.711  67.116  1.00  0.00    -0.160 OA 
HETATM    8  C   UNL     1      -8.593  11.294  67.455  1.00  0.00    -0.134 C  
HETATM    9  C   UNL     1     -10.217  10.820  69.127  1.00  0.00    -0.211 C  
HETATM   10  N   UNL     1      -9.838  10.409  67.819  1.00  0.00    -0.166 N  
HETATM   11  C   UNL     1      -9.766   9.042  68.113  1.00  0.00    -0.152 C  
HETATM   12  H   UNL     1     -10.991   9.259  69.875  1.00  0.00     0.000 HD 
HETATM   13  C   UNL     1      -8.762   8.887  69.291  1.00  0.00    -0.138 C  
HETATM   14  O   UNL     1     -10.445   8.198  67.558  1.00  0.00    -0.244 OA 
HETATM   15  O   UNL     1     -11.327  10.125  69.671  1.00  0.00    -0.246 OA 
HETATM   16  O   UNL     1      -9.003  10.347  69.790  1.00  0.00    -0.118 OA 
HETATM   17  C   UNL     1      -7.703   7.098  67.490  1.00  0.00    -0.111 C  
HETATM   18  C   UNL     1      -6.042   8.504  68.722  1.00  0.00    -0.045 C  
HETATM   19  C   UNL     1      -7.517   8.411  68.323  1.00  0.00    -0.096 C  
ENDROOT
BRANCH   8  20
HETATM   20  C   UNL     1      -7.873  11.040  66.118  1.00  0.00    -0.117 C  
BRANCH  20  21
HETATM   21  C   UNL     1      -8.886  10.864  64.963  1.00  0.00    -0.151 A  
HETATM   22  C   UNL     1     -10.557  12.021  63.648  1.00  0.00    -0.503 A  
HETATM   23  C   UNL     1      -9.321  10.228  62.657  1.00  0.00    -0.335 A  
HETATM   24  C   UNL     1      -8.674   9.997  63.867  1.00  0.00    -0.219 A  
HETATM   25  C   UNL     1     -10.228  11.261  62.524  1.00  0.00     0.320 A  
HETATM   26  C   UNL     1      -9.898  11.825  64.858  1.00  0.00    -0.251 A  
ENDBRANCH  20  21
ENDBRANCH   8  20
BRANCH  13  27
HETATM   27  N   UNL     1      -9.148   7.950  70.378  1.00  0.00    -0.153 NA 
HETATM   28  H   UNL     1     -10.045   7.468  70.406  1.00  0.00     0.000 HD 
BRANCH  27  29
HETATM   29  C   UNL     1      -8.240   7.805  71.286  1.00  0.00    -0.103 C  
HETATM   30  H   UNL     1      -7.253   8.714  72.774  1.00  0.00     0.000 HD 
HETATM   31  O   UNL     1      -7.920   8.821  72.107  1.00  0.00    -0.331 OA 
BRANCH  29  32
HETATM   32  C   UNL     1      -7.367   6.585  71.588  1.00  0.00    -0.087 C  
HETATM   33  C   UNL     1      -7.513   5.977  72.981  1.00  0.00    -0.094 C  
HETATM   34  N   UNL     1      -6.829   4.669  73.018  1.00  0.00    -0.067 NA 
HETATM   35  C   UNL     1      -7.436   3.610  72.144  1.00  0.00    -0.057 C  
HETATM   36  C   UNL     1      -6.484   4.247  74.364  1.00  0.00    -0.052 C  
HETATM   37  C   UNL     1      -8.310   2.514  72.863  1.00  0.00    -0.070 C  
HETATM   38  C   UNL     1      -9.553   3.171  73.334  1.00  0.00    -0.140 A  
HETATM   39  C   UNL     1     -10.186   3.253  74.549  1.00  0.00    -0.178 A  
HETATM   40  N   UNL     1     -11.137   4.250  74.448  1.00  0.00    -0.135 NA 
HETATM   41  C   UNL     1     -11.141   4.787  73.174  1.00  0.00    -0.310 A  
HETATM   42  H   UNL     1     -11.750   4.548  75.206  1.00  0.00     0.000 HD 
HETATM   43  C   UNL     1     -11.798   5.881  72.612  1.00  0.00    -0.192 A  
HETATM   44  C   UNL     1     -11.471   6.208  71.283  1.00  0.00    -0.311 A  
HETATM   45  C   UNL     1     -10.438   5.559  70.595  1.00  0.00    -0.342 A  
HETATM   46  C   UNL     1      -9.667   4.594  71.252  1.00  0.00    -0.251 A  
HETATM   47  C   UNL     1      -8.221   4.242  70.902  1.00  0.00    -0.082 C  
HETATM   48  C   UNL     1     -10.159   4.115  72.478  1.00  0.00    -0.233 A  
HETATM   49  C   UNL     1      -7.409   5.485  70.478  1.00  0.00    -0.075 C  
ENDBRANCH  29  32
ENDBRANCH  27  29
ENDBRANCH  13  27
TORSDOF 5
ENDMDL
MODEL       62
REMARK 921   NORMALIZED FREE ENERGY PREDICTED BY IDOCK:   -4.98 KCAL/MOL
REMARK 922        TOTAL FREE ENERGY PREDICTED BY IDOCK:   -8.28 KCAL/MOL
REMARK 923 INTER-LIGAND FREE ENERGY PREDICTED BY IDOCK:   -6.47 KCAL/MOL
REMARK 924 INTRA-LIGAND FREE ENERGY PREDICTED BY IDOCK:   -1.81 KCAL/MOL
REMARK 927      BINDING AFFINITY PREDICTED BY RF-SCORE:    0.00 PKD
ROOT
HETATM    1  C   UNL     1      -8.659   7.721  72.295  1.00  0.00    -0.132 C  
HETATM    2  C   UNL     1      -8.451   8.166  73.738  1.00  0.00    -0.309 C  
HETATM    3  C   UNL     1      -8.732   6.864  74.543  1.00  0.00    -0.216 C  
HETATM    4  C   UNL     1      -9.416   5.906  73.577  1.00  0.00    -0.139 C  
HETATM    5  N   UNL     1      -9.631   6.683  72.379  1.00  0.00    -0.149 N  
HETATM    6  C   UNL     1      -9.900   5.966  71.242  1.00  0.00    -0.176 C  
HETATM    7  O   UNL     1     -10.638   4.990  71.328  1.00  0.00    -0.179 OA 
HETATM    8  C   UNL     1      -9.301   6.555  69.908  1.00  0.00    -0.152 C  
HETATM    9  C   UNL     1      -8.603   8.569  70.962  1.00  0.00    -0.158 C  
HETATM   10  N   UNL     1      -8.115   7.569  70.077  1.00  0.00    -0.125 N  
HETATM   11  C   UNL     1      -7.696   8.455  69.077  1.00  0.00    -0.097 C  
HETATM   12  H   UNL     1      -7.655  10.125  70.441  1.00  0.00     0.000 HD 
HETATM   13  C   UNL     1      -8.939   9.300  68.675  1.00  0.00    -0.132 C  
HETATM   14  O   UNL     1      -6.544   8.541  68.694  1.00  0.00    -0.053 OA 
HETATM   15  O   UNL     1      -7.688   9.616  71.243  1.00  0.00    -0.275 OA 
HETATM   16  O   UNL     1      -9.631   9.082  70.058  1.00  0.00    -0.169 OA 
HETATM   17  C   UNL     1      -8.136   8.386  66.209  1.00  0.00    -0.105 C  
HETATM   18  C   UNL     1     -10.604   8.382  66.613  1.00  0.00    -0.099 C  
HETATM   19  C   UNL     1      -9.244   8.423  67.315  1.00  0.00    -0.165 C  
ENDROOT
BRANCH   8  20
HETATM   20  C   UNL     1      -9.132   5.377  68.931  1.00  0.00    -0.138 C  
BRANCH  20  21
HETATM   21  C   UNL     1      -7.671   4.872  68.913  1.00  0.00    -0.073 A  
HETATM   22  C   UNL     1      -6.124   3.359  69.998  1.00  0.00    -0.023 A  
HETATM   23  C   UNL     1      -5.832   3.869  67.679  1.00  0.00    -0.023 A  
HETATM   24  C   UNL     1      -6.900   4.758  67.734  1.00  0.00    -0.060 A  
HETATM   25  C   UNL     1      -5.465   3.134  68.788  1.00  0.00    -0.013 A  
HETATM   26  C   UNL     1      -7.214   4.221  70.064  1.00  0.00    -0.046 A  
ENDBRANCH  20  21
ENDBRANCH   8  20
BRANCH  13  27
HETATM   27  N   UNL     1      -8.721  10.759  68.485  1.00  0.00    -0.142 NA 
HETATM   28  H   UNL     1      -7.799  11.192  68.506  1.00  0.00     0.000 HD 
BRANCH  27  29
HETATM   29  C   UNL     1      -9.811  11.426  68.292  1.00  0.00    -0.200 C  
HETATM   30  H   UNL     1     -11.325  12.383  69.190  1.00  0.00     0.000 HD 
HETATM   31  O   UNL     1     -10.524  11.892  69.332  1.00  0.00    -0.001 OA 
BRANCH  29  32
HETATM   32  C   UNL     1     -10.505  11.774  66.974  1.00  0.00    -0.252 C  
HETATM   33  C   UNL     1     -11.529  12.906  67.027  1.00  0.00    -0.339 C  
HETATM   34  N   UNL     1     -11.894  13.300  65.652  1.00  0.00    -0.360 NA 
HETATM   35  C   UNL     1     -10.782  13.913  64.850  1.00  0.00    -0.410 C  
HETATM   36  C   UNL     1     -13.170  13.988  65.579  1.00  0.00     0.019 C  
HETATM   37  C   UNL     1     -10.813  15.478  64.679  1.00  0.00    -0.277 C  
HETATM   38  C   UNL     1     -10.508  16.079  66.000  1.00  0.00    -0.356 A  
HETATM   39  C   UNL     1     -11.136  17.007  66.793  1.00  0.00     0.311 A  
HETATM   40  N   UNL     1     -10.550  16.941  68.042  1.00  0.00    -0.355 NA 
HETATM   41  C   UNL     1      -9.535  16.003  68.051  1.00  0.00    -0.207 A  
HETATM   42  H   UNL     1     -10.827  17.505  68.846  1.00  0.00     0.000 HD 
HETATM   43  C   UNL     1      -8.747  15.473  69.073  1.00  0.00    -0.235 A  
HETATM   44  C   UNL     1      -7.868  14.431  68.724  1.00  0.00    -0.138 A  
HETATM   45  C   UNL     1      -7.875  13.853  67.448  1.00  0.00    -0.177 A  
HETATM   46  C   UNL     1      -8.811  14.278  66.500  1.00  0.00    -0.095 A  
HETATM   47  C   UNL     1      -9.345  13.422  65.352  1.00  0.00     0.415 C  
HETATM   48  C   UNL     1      -9.504  15.468  66.781  1.00  0.00    -0.257 A  
HETATM   49  C   UNL     1      -9.526  11.945  65.768  1.00  0.00    -0.210 C  
ENDBRANCH  29  32
ENDBRANCH  27  29
ENDBRANCH  13  27
TORSDOF 5
ENDMDL
MODEL       63
REMARK 921   NORMALIZED FREE ENERGY PREDICTED BY IDOCK:   -4.93 KCAL/MOL
REMARK 922        TOTAL FREE ENERGY PREDICTED BY IDOCK:   -8.21 KCAL/MOL
REMARK 923 INTER-LIGAND FREE ENERGY PREDICTED BY IDOCK:   -6.17 KCAL/MOL
REMARK 924 INTRA-LIGAND FREE ENERGY PREDICTED BY IDOCK:   -2.04 KCAL/MOL
REMARK 927      BINDING AFFINITY PREDICTED BY RF-SCORE:    0.00 PKD
ROOT
HETATM    1  C   UNL     1      -8.264   6.983  72.162  1.00  0.00    -0.100 C  
HETATM    2  C   UNL     1      -7.801   7.958  73.239  1.00  0.00    -0.194 C  
HETATM    3  C   UNL     1      -8.291   7.281  74.551  1.00  0.00    -0.233 C  
HETATM    4  C   UNL     1      -9.284   6.206  74.129  1.00  0.00    -0.140 C  
HETATM    5  N   UNL     1      -9.439   6.387  72.705  1.00  0.00    -0.148 N  
HETATM    6  C   UNL     1      -9.993   5.333  72.026  1.00  0.00    -0.187 C  
HETATM    7  O   UNL     1     -10.927   4.729  72.544  1.00  0.00    -0.183 OA 
HETATM    8  C   UNL     1      -9.422   5.080  70.579  1.00  0.00    -0.173 C  
HETATM    9  C   UNL     1      -8.156   7.093  70.589  1.00  0.00    -0.113 C  
HETATM   10  N   UNL     1      -8.018   5.714  70.274  1.00  0.00    -0.101 N  
HETATM   11  C   UNL     1      -7.514   5.912  68.982  1.00  0.00    -0.085 C  
HETATM   12  H   UNL     1      -6.930   7.942  69.419  1.00  0.00     0.000 HD 
HETATM   13  C   UNL     1      -8.558   6.777  68.219  1.00  0.00    -0.124 C  
HETATM   14  O   UNL     1      -6.423   5.513  68.618  1.00  0.00    -0.039 OA 
HETATM   15  O   UNL     1      -6.994   7.875  70.365  1.00  0.00    -0.045 OA 
HETATM   16  O   UNL     1      -9.126   7.392  69.538  1.00  0.00    -0.144 OA 
HETATM   17  C   UNL     1      -8.269   4.677  66.467  1.00  0.00    -0.107 C  
HETATM   18  C   UNL     1     -10.608   5.498  66.795  1.00  0.00    -0.360 C  
HETATM   19  C   UNL     1      -9.209   5.495  67.416  1.00  0.00    -0.110 C  
ENDROOT
BRANCH   8  20
HETATM   20  C   UNL     1      -9.644   3.590  70.260  1.00  0.00    -0.232 C  
BRANCH  20  21
HETATM   21  C   UNL     1      -8.330   2.788  70.398  1.00  0.00    -0.077 A  
HETATM   22  C   UNL     1      -6.433   1.933  69.159  1.00  0.00    -0.029 A  
HETATM   23  C   UNL     1      -6.161   2.516  71.463  1.00  0.00    -0.015 A  
HETATM   24  C   UNL     1      -7.516   2.819  71.553  1.00  0.00    -0.040 A  
HETATM   25  C   UNL     1      -5.603   2.116  70.266  1.00  0.00    -0.016 A  
HETATM   26  C   UNL     1      -7.785   2.261  69.222  1.00  0.00    -0.046 A  
ENDBRANCH  20  21
ENDBRANCH   8  20
BRANCH  13  27
HETATM   27  N   UNL     1      -8.024   7.881  67.379  1.00  0.00    -0.120 NA 
HETATM   28  H   UNL     1      -7.116   8.315  67.541  1.00  0.00     0.000 HD 
BRANCH  27  29
HETATM   29  C   UNL     1      -8.818   8.239  66.425  1.00  0.00    -0.152 C  
HETATM   30  H   UNL     1      -9.138   8.167  64.448  1.00  0.00     0.000 HD 
HETATM   31  O   UNL     1      -8.554   7.905  65.150  1.00  0.00    -0.127 OA 
BRANCH  29  32
HETATM   32  C   UNL     1     -10.096   9.077  66.500  1.00  0.00    -0.354 C  
HETATM   33  C   UNL     1     -10.287   9.908  67.767  1.00  0.00    -0.221 C  
HETATM   34  N   UNL     1     -11.401  10.856  67.567  1.00  0.00    -0.457 NA 
HETATM   35  C   UNL     1     -11.159  11.912  66.528  1.00  0.00    -0.306 C  
HETATM   36  C   UNL     1     -11.976  11.327  68.814  1.00  0.00    -0.282 C  
HETATM   37  C   UNL     1     -10.801  13.353  67.053  1.00  0.00    -0.280 C  
HETATM   38  C   UNL     1      -9.443  13.290  67.645  1.00  0.00    -0.211 A  
HETATM   39  C   UNL     1      -8.918  13.643  68.863  1.00  0.00     0.195 A  
HETATM   40  N   UNL     1      -7.663  13.068  68.948  1.00  0.00    -0.321 NA 
HETATM   41  C   UNL     1      -7.368  12.377  67.789  1.00  0.00    -0.123 A  
HETATM   42  H   UNL     1      -7.042  13.145  69.754  1.00  0.00     0.000 HD 
HETATM   43  C   UNL     1      -6.317  11.532  67.434  1.00  0.00    -0.091 A  
HETATM   44  C   UNL     1      -6.402  10.901  66.179  1.00  0.00    -0.123 A  
HETATM   45  C   UNL     1      -7.546  11.001  65.376  1.00  0.00     0.241 A  
HETATM   46  C   UNL     1      -8.662  11.701  65.846  1.00  0.00     0.002 A  
HETATM   47  C   UNL     1     -10.106  11.429  65.424  1.00  0.00    -0.308 C  
HETATM   48  C   UNL     1      -8.473  12.516  66.975  1.00  0.00    -0.161 A  
HETATM   49  C   UNL     1     -10.374   9.923  65.215  1.00  0.00     0.070 C  
ENDBRANCH  29  32
ENDBRANCH  27  29
ENDBRANCH  13  27
TORSDOF 5
ENDMDL
MODEL       64
REMARK 921   NORMALIZED FREE ENERGY PREDICTED BY IDOCK:   -4.91 KCAL/MOL
REMARK 922        TOTAL FREE ENERGY PREDICTED BY IDOCK:   -8.19 KCAL/MOL
REMARK 923 INTER-LIGAND FREE ENERGY PREDICTED BY IDOCK:   -6.54 KCAL/MOL
REMARK 924 INTRA-LIGAND FREE ENERGY PREDICTED BY IDOCK:   -1.65 KCAL/MOL
REMARK 927      BINDING AFFINITY PREDICTED BY RF-SCORE:    0.00 PKD
ROOT
HETATM    1  C   UNL     1      -8.677   6.442  72.080  1.00  0.00    -0.132 C  
HETATM    2  C   UNL     1      -8.415   7.471  73.174  1.00  0.00    -0.178 C  
HETATM    3  C   UNL     1      -8.947   6.761  74.451  1.00  0.00    -0.220 C  
HETATM    4  C   UNL     1      -9.782   5.583  73.966  1.00  0.00    -0.165 C  
HETATM    5  N   UNL     1      -9.828   5.732  72.530  1.00  0.00    -0.162 N  
HETATM    6  C   UNL     1     -10.208   4.618  71.826  1.00  0.00    -0.172 C  
HETATM    7  O   UNL     1     -11.116   3.926  72.273  1.00  0.00     0.255 OA 
HETATM    8  C   UNL     1      -9.487   4.412  70.439  1.00  0.00    -0.175 C  
HETATM    9  C   UNL     1      -8.443   6.546  70.521  1.00  0.00    -0.138 C  
HETATM   10  N   UNL     1      -8.135   5.186  70.246  1.00  0.00    -0.085 N  
HETATM   11  C   UNL     1      -7.541   5.422  69.000  1.00  0.00    -0.085 C  
HETATM   12  H   UNL     1      -7.211   7.506  69.446  1.00  0.00     0.000 HD 
HETATM   13  C   UNL     1      -8.597   6.165  68.132  1.00  0.00    -0.115 C  
HETATM   14  O   UNL     1      -6.387   5.136  68.740  1.00  0.00    -0.032 OA 
HETATM   15  O   UNL     1      -7.352   7.443  70.384  1.00  0.00    -0.074 OA 
HETATM   16  O   UNL     1      -9.341   6.731  69.383  1.00  0.00    -0.148 OA 
HETATM   17  C   UNL     1      -7.939   4.089  66.452  1.00  0.00    -0.097 C  
HETATM   18  C   UNL     1     -10.370   4.664  66.560  1.00  0.00    -0.235 C  
HETATM   19  C   UNL     1      -9.039   4.814  67.300  1.00  0.00    -0.127 C  
ENDROOT
BRANCH   8  20
HETATM   20  C   UNL     1      -9.525   2.904  70.132  1.00  0.00    -0.198 C  
BRANCH  20  21
HETATM   21  C   UNL     1      -8.142   2.252  70.362  1.00  0.00    -0.055 A  
HETATM   22  C   UNL     1      -6.074   1.639  69.264  1.00  0.00    -0.024 A  
HETATM   23  C   UNL     1      -6.043   2.206  71.588  1.00  0.00    -0.014 A  
HETATM   24  C   UNL     1      -7.426   2.353  71.577  1.00  0.00    -0.040 A  
HETATM   25  C   UNL     1      -5.354   1.895  70.433  1.00  0.00    -0.004 A  
HETATM   26  C   UNL     1      -7.454   1.812  69.227  1.00  0.00    -0.043 A  
ENDBRANCH  20  21
ENDBRANCH   8  20
BRANCH  13  27
HETATM   27  N   UNL     1      -8.108   7.310  67.320  1.00  0.00    -0.111 NA 
HETATM   28  H   UNL     1      -7.122   7.463  67.110  1.00  0.00     0.000 HD 
BRANCH  27  29
HETATM   29  C   UNL     1      -9.048   8.092  66.905  1.00  0.00    -0.154 C  
HETATM   30  H   UNL     1     -11.011   8.488  67.004  1.00  0.00     0.000 HD 
HETATM   31  O   UNL     1     -10.319   7.913  67.308  1.00  0.00    -0.249 OA 
BRANCH  29  32
HETATM   32  C   UNL     1      -8.964   9.264  65.925  1.00  0.00    -0.225 C  
HETATM   33  C   UNL     1     -10.245  10.071  65.724  1.00  0.00    -0.200 C  
HETATM   34  N   UNL     1      -9.931  11.308  64.982  1.00  0.00    -0.258 NA 
HETATM   35  C   UNL     1      -9.052  12.282  65.712  1.00  0.00     0.122 C  
HETATM   36  C   UNL     1     -11.090  11.885  64.324  1.00  0.00    -0.356 C  
HETATM   37  C   UNL     1      -9.760  13.538  66.345  1.00  0.00    -0.296 C  
HETATM   38  C   UNL     1     -10.580  13.063  67.484  1.00  0.00    -0.237 A  
HETATM   39  C   UNL     1     -11.900  13.207  67.833  1.00  0.00    -0.348 A  
HETATM   40  N   UNL     1     -12.160  12.290  68.834  1.00  0.00    -0.213 NA 
HETATM   41  C   UNL     1     -11.016  11.582  69.150  1.00  0.00    -0.224 A  
HETATM   42  H   UNL     1     -13.069  12.156  69.278  1.00  0.00     0.000 HD 
HETATM   43  C   UNL     1     -10.784  10.480  69.973  1.00  0.00    -0.282 A  
HETATM   44  C   UNL     1      -9.484   9.943  69.968  1.00  0.00    -0.246 A  
HETATM   45  C   UNL     1      -8.499  10.398  69.081  1.00  0.00    -0.168 A  
HETATM   46  C   UNL     1      -8.819  11.376  68.134  1.00  0.00    -0.162 A  
HETATM   47  C   UNL     1      -8.119  11.551  66.786  1.00  0.00    -0.158 C  
HETATM   48  C   UNL     1     -10.031  12.063  68.314  1.00  0.00    -0.203 A  
HETATM   49  C   UNL     1      -7.731  10.196  66.155  1.00  0.00    -0.113 C  
ENDBRANCH  29  32
ENDBRANCH  27  29
ENDBRANCH  13  27
TORSDOF 5
ENDMDL
MODEL       65
REMARK 921   NORMALIZED FREE ENERGY PREDICTED BY IDOCK:   -4.91 KCAL/MOL
REMARK 922        TOTAL FREE ENERGY PREDICTED BY IDOCK:   -8.19 KCAL/MOL
REMARK 923 INTER-LIGAND FREE ENERGY PREDICTED BY IDOCK:   -7.02 KCAL/MOL
REMARK 924 INTRA-LIGAND FREE ENERGY PREDICTED BY IDOCK:   -1.17 KCAL/MOL
REMARK 927      BINDING AFFINITY PREDICTED BY RF-SCORE:    0.00 PKD
ROOT
HETATM    1  C   UNL     1     -10.556   8.226  69.813  1.00  0.00    -0.228 C  
HETATM    2  C   UNL     1     -11.783   8.035  70.698  1.00  0.00    -0.158 C  
HETATM    3  C   UNL     1     -12.079   6.514  70.552  1.00  0.00    -0.226 C  
HETATM    4  C   UNL     1     -11.268   6.036  69.355  1.00  0.00    -0.327 C  
HETATM    5  N   UNL     1     -10.694   7.238  68.796  1.00  0.00    -0.178 N  
HETATM    6  C   UNL     1      -9.641   7.053  67.937  1.00  0.00    -0.123 C  
HETATM    7  O   UNL     1      -9.693   6.122  67.140  1.00  0.00    -0.124 OA 
HETATM    8  C   UNL     1      -8.508   8.147  68.005  1.00  0.00    -0.133 C  
HETATM    9  C   UNL     1      -9.773   9.550  69.449  1.00  0.00    -0.183 C  
HETATM   10  N   UNL     1      -8.465   9.011  69.316  1.00  0.00    -0.125 N  
HETATM   11  C   UNL     1      -7.793  10.235  69.422  1.00  0.00    -0.157 C  
HETATM   12  H   UNL     1      -9.487  11.191  70.354  1.00  0.00     0.000 HD 
HETATM   13  C   UNL     1      -8.363  11.159  68.308  1.00  0.00    -0.143 C  
HETATM   14  O   UNL     1      -6.980  10.482  70.293  1.00  0.00    -0.211 OA 
HETATM   15  O   UNL     1      -9.958  10.395  70.573  1.00  0.00     0.179 OA 
HETATM   16  O   UNL     1      -9.717  10.382  68.248  1.00  0.00    -0.146 OA 
HETATM   17  C   UNL     1      -5.670  11.356  67.791  1.00  0.00    -0.046 C  
HETATM   18  C   UNL     1      -7.146  11.162  65.782  1.00  0.00     0.194 C  
HETATM   19  C   UNL     1      -7.089  10.921  67.292  1.00  0.00    -0.097 C  
ENDROOT
BRANCH   8  20
HETATM   20  C   UNL     1      -7.208   7.481  67.517  1.00  0.00    -0.090 C  
BRANCH  20  21
HETATM   21  C   UNL     1      -6.913   7.844  66.044  1.00  0.00    -0.061 A  
HETATM   22  C   UNL     1      -5.301   7.572  64.258  1.00  0.00    -0.029 A  
HETATM   23  C   UNL     1      -7.617   7.828  63.716  1.00  0.00    -0.118 A  
HETATM   24  C   UNL     1      -7.920   8.000  65.063  1.00  0.00    -0.126 A  
HETATM   25  C   UNL     1      -6.324   7.570  63.308  1.00  0.00    -0.054 A  
HETATM   26  C   UNL     1      -5.589   7.711  65.613  1.00  0.00    -0.033 A  
ENDBRANCH  20  21
ENDBRANCH   8  20
BRANCH  13  27
HETATM   27  N   UNL     1      -8.649  12.567  68.691  1.00  0.00    -0.362 NA 
HETATM   28  H   UNL     1      -8.968  12.839  69.620  1.00  0.00     0.000 HD 
BRANCH  27  29
HETATM   29  C   UNL     1      -8.455  13.415  67.735  1.00  0.00    -0.181 C  
HETATM   30  H   UNL     1      -9.097  14.033  65.940  1.00  0.00     0.000 HD 
HETATM   31  O   UNL     1      -9.239  13.410  66.643  1.00  0.00    -0.251 OA 
BRANCH  29  32
HETATM   32  C   UNL     1      -7.374  14.489  67.606  1.00  0.00    -0.201 C  
HETATM   33  C   UNL     1      -7.664  15.628  66.630  1.00  0.00    -0.033 C  
HETATM   34  N   UNL     1      -6.673  16.704  66.826  1.00  0.00    -0.217 NA 
HETATM   35  C   UNL     1      -6.744  17.399  68.156  1.00  0.00    -0.178 C  
HETATM   36  C   UNL     1      -6.546  17.576  65.672  1.00  0.00     0.110 C  
HETATM   37  C   UNL     1      -7.422  18.820  68.176  1.00  0.00    -0.289 C  
HETATM   38  C   UNL     1      -8.872  18.628  67.935  1.00  0.00    -0.308 A  
HETATM   39  C   UNL     1      -9.766  19.155  67.036  1.00  0.00    -0.325 A  
HETATM   40  N   UNL     1     -10.906  18.375  67.089  1.00  0.00    -0.322 NA 
HETATM   41  C   UNL     1     -10.763  17.374  68.031  1.00  0.00    -0.359 A  
HETATM   42  H   UNL     1     -11.736  18.518  66.514  1.00  0.00     0.000 HD 
HETATM   43  C   UNL     1     -11.549  16.270  68.364  1.00  0.00    -0.154 A  
HETATM   44  C   UNL     1     -11.027  15.381  69.321  1.00  0.00    -0.261 A  
HETATM   45  C   UNL     1      -9.724  15.512  69.819  1.00  0.00    -0.247 A  
HETATM   46  C   UNL     1      -8.891  16.520  69.322  1.00  0.00    -0.073 A  
HETATM   47  C   UNL     1      -7.364  16.454  69.288  1.00  0.00    -0.211 C  
HETATM   48  C   UNL     1      -9.500  17.531  68.561  1.00  0.00    -0.296 A  
HETATM   49  C   UNL     1      -6.852  15.031  68.976  1.00  0.00    -0.118 C  
ENDBRANCH  29  32
ENDBRANCH  27  29
ENDBRANCH  13  27
TORSDOF 5
ENDMDL
MODEL       66
REMARK 921   NORMALIZED FREE ENERGY PREDICTED BY IDOCK:   -4.90 KCAL/MOL
REMARK 922        TOTAL FREE ENERGY PREDICTED BY IDOCK:   -8.18 KCAL/MOL
REMARK 923 INTER-LIGAND FREE ENERGY PREDICTED BY IDOCK:   -6.39 KCAL/MOL
REMARK 924 INTRA-LIGAND FREE ENERGY PREDICTED BY IDOCK:   -1.79 KCAL/MOL
REMARK 927      BINDING AFFINITY PREDICTED BY RF-SCORE:    0.00 PKD
ROOT
HETATM    1  C   UNL     1     -12.009   8.474  70.539  1.00  0.00     0.061 C  
HETATM    2  C   UNL     1     -13.127   7.591  71.081  1.00  0.00    -0.240 C  
HETATM    3  C   UNL     1     -14.338   8.565  71.141  1.00  0.00    -0.180 C  
HETATM    4  C   UNL     1     -13.762   9.968  70.994  1.00  0.00     0.065 C  
HETATM    5  N   UNL     1     -12.331   9.781  71.007  1.00  0.00    -0.322 N  
HETATM    6  C   UNL     1     -11.587  10.831  70.534  1.00  0.00    -0.330 C  
HETATM    7  O   UNL     1     -11.932  11.971  70.827  1.00  0.00    -0.288 OA 
HETATM    8  C   UNL     1     -10.285  10.437  69.737  1.00  0.00    -0.184 C  
HETATM    9  C   UNL     1     -10.484   8.136  70.299  1.00  0.00    -0.219 C  
HETATM   10  N   UNL     1     -10.240   8.972  69.176  1.00  0.00    -0.200 N  
HETATM   11  C   UNL     1      -9.065   8.327  68.769  1.00  0.00    -0.144 C  
HETATM   12  H   UNL     1      -9.550   6.541  69.877  1.00  0.00     0.000 HD 
HETATM   13  C   UNL     1      -8.091   8.360  69.981  1.00  0.00    -0.115 C  
HETATM   14  O   UNL     1      -8.930   7.800  67.681  1.00  0.00    -0.127 OA 
HETATM   15  O   UNL     1     -10.467   6.745  70.022  1.00  0.00    -0.197 OA 
HETATM   16  O   UNL     1      -9.257   8.481  71.014  1.00  0.00    -0.155 OA 
HETATM   17  C   UNL     1      -6.486   9.428  68.020  1.00  0.00    -0.062 C  
HETATM   18  C   UNL     1      -6.334  10.528  70.261  1.00  0.00    -0.137 C  
HETATM   19  C   UNL     1      -7.212   9.623  69.394  1.00  0.00    -0.071 C  
ENDROOT
BRANCH   8  20
HETATM   20  C   UNL     1      -9.971  11.604  68.782  1.00  0.00    -0.147 C  
BRANCH  20  21
HETATM   21  C   UNL     1     -10.742  11.458  67.450  1.00  0.00    -0.274 A  
HETATM   22  C   UNL     1     -12.214  12.618  65.918  1.00  0.00    -0.375 A  
HETATM   23  C   UNL     1     -10.706  10.967  65.069  1.00  0.00    -0.216 A  
HETATM   24  C   UNL     1     -10.278  10.684  66.362  1.00  0.00    -0.291 A  
HETATM   25  C   UNL     1     -11.637  11.958  64.832  1.00  0.00    -0.290 A  
HETATM   26  C   UNL     1     -11.776  12.370  67.216  1.00  0.00    -0.419 A  
ENDBRANCH  20  21
ENDBRANCH   8  20
BRANCH  13  27
HETATM   27  N   UNL     1      -7.339   7.110  70.268  1.00  0.00    -0.081 NA 
HETATM   28  H   UNL     1      -7.255   6.344  69.601  1.00  0.00     0.000 HD 
BRANCH  27  29
HETATM   29  C   UNL     1      -6.802   7.084  71.443  1.00  0.00    -0.060 C  
HETATM   30  H   UNL     1      -5.126   7.435  72.485  1.00  0.00     0.000 HD 
HETATM   31  O   UNL     1      -5.521   7.454  71.621  1.00  0.00    -0.035 OA 
BRANCH  29  32
HETATM   32  C   UNL     1      -7.413   6.635  72.771  1.00  0.00    -0.092 C  
HETATM   33  C   UNL     1      -8.732   5.869  72.685  1.00  0.00    -0.122 C  
HETATM   34  N   UNL     1      -9.039   5.274  74.001  1.00  0.00    -0.119 NA 
HETATM   35  C   UNL     1      -8.083   4.210  74.456  1.00  0.00    -0.087 C  
HETATM   36  C   UNL     1     -10.447   4.961  74.167  1.00  0.00    -0.286 C  
HETATM   37  C   UNL     1      -8.568   2.718  74.323  1.00  0.00    -0.075 C  
HETATM   38  C   UNL     1      -8.615   2.389  72.878  1.00  0.00    -0.070 A  
HETATM   39  C   UNL     1      -9.583   1.883  72.047  1.00  0.00    -0.114 A  
HETATM   40  N   UNL     1      -9.152   2.082  70.749  1.00  0.00    -0.083 NA 
HETATM   41  C   UNL     1      -7.907   2.683  70.740  1.00  0.00    -0.042 A  
HETATM   42  H   UNL     1      -9.678   1.822  69.915  1.00  0.00     0.000 HD 
HETATM   43  C   UNL     1      -7.118   3.206  69.716  1.00  0.00    -0.041 A  
HETATM   44  C   UNL     1      -5.930   3.857  70.096  1.00  0.00    -0.018 A  
HETATM   45  C   UNL     1      -5.613   4.095  71.440  1.00  0.00    -0.008 A  
HETATM   46  C   UNL     1      -6.520   3.727  72.440  1.00  0.00    -0.017 A  
HETATM   47  C   UNL     1      -6.632   4.398  73.809  1.00  0.00    -0.057 C  
HETATM   48  C   UNL     1      -7.570   2.872  72.063  1.00  0.00    -0.052 A  
HETATM   49  C   UNL     1      -6.401   5.923  73.726  1.00  0.00    -0.069 C  
ENDBRANCH  29  32
ENDBRANCH  27  29
ENDBRANCH  13  27
TORSDOF 5
ENDMDL
MODEL       67
REMARK 921   NORMALIZED FREE ENERGY PREDICTED BY IDOCK:   -4.89 KCAL/MOL
REMARK 922        TOTAL FREE ENERGY PREDICTED BY IDOCK:   -8.17 KCAL/MOL
REMARK 923 INTER-LIGAND FREE ENERGY PREDICTED BY IDOCK:   -8.20 KCAL/MOL
REMARK 924 INTRA-LIGAND FREE ENERGY PREDICTED BY IDOCK:    0.03 KCAL/MOL
REMARK 927      BINDING AFFINITY PREDICTED BY RF-SCORE:    0.00 PKD
ROOT
HETATM    1  C   UNL     1     -10.728  11.723  65.298  1.00  0.00    -0.287 C  
HETATM    2  C   UNL     1     -11.630  11.468  64.096  1.00  0.00    -0.251 C  
HETATM    3  C   UNL     1     -12.593  12.690  64.123  1.00  0.00    -0.442 C  
HETATM    4  C   UNL     1     -12.425  13.333  65.493  1.00  0.00    -0.474 C  
HETATM    5  N   UNL     1     -11.551  12.439  66.215  1.00  0.00    -0.379 N  
HETATM    6  C   UNL     1     -10.957  12.960  67.335  1.00  0.00    -0.260 C  
HETATM    7  O   UNL     1     -11.623  13.685  68.067  1.00  0.00    -0.293 OA 
HETATM    8  C   UNL     1      -9.485  12.470  67.615  1.00  0.00    -0.188 C  
HETATM    9  C   UNL     1      -9.570  10.829  65.896  1.00  0.00    -0.208 C  
HETATM   10  N   UNL     1      -8.720  11.857  66.388  1.00  0.00    -0.161 N  
HETATM   11  C   UNL     1      -7.576  11.057  66.500  1.00  0.00    -0.146 C  
HETATM   12  H   UNL     1      -8.361   9.578  65.141  1.00  0.00     0.000 HD 
HETATM   13  C   UNL     1      -7.953   9.861  67.421  1.00  0.00    -0.106 C  
HETATM   14  O   UNL     1      -6.539  11.279  65.904  1.00  0.00     0.016 OA 
HETATM   15  O   UNL     1      -9.058  10.116  64.781  1.00  0.00    -0.184 OA 
HETATM   16  O   UNL     1      -9.472   9.975  67.077  1.00  0.00    -0.157 OA 
HETATM   17  C   UNL     1      -5.693  10.779  68.691  1.00  0.00    -0.040 C  
HETATM   18  C   UNL     1      -7.575  10.100  70.190  1.00  0.00    -0.119 C  
HETATM   19  C   UNL     1      -7.234  10.507  68.755  1.00  0.00    -0.084 C  
ENDROOT
BRANCH   8  20
HETATM   20  C   UNL     1      -8.793  13.569  68.442  1.00  0.00    -0.146 C  
BRANCH  20  21
HETATM   21  C   UNL     1      -8.073  14.586  67.527  1.00  0.00    -0.204 A  
HETATM   22  C   UNL     1      -8.377  16.645  66.290  1.00  0.00    -0.360 A  
HETATM   23  C   UNL     1      -6.218  16.119  67.177  1.00  0.00    -0.135 A  
HETATM   24  C   UNL     1      -6.698  14.899  67.639  1.00  0.00    -0.200 A  
HETATM   25  C   UNL     1      -7.055  17.016  66.543  1.00  0.00    -0.307 A  
HETATM   26  C   UNL     1      -8.883  15.442  66.773  1.00  0.00    -0.300 A  
ENDBRANCH  20  21
ENDBRANCH   8  20
BRANCH  13  27
HETATM   27  N   UNL     1      -7.476   8.518  66.999  1.00  0.00    -0.084 NA 
HETATM   28  H   UNL     1      -7.091   8.328  66.075  1.00  0.00     0.000 HD 
BRANCH  27  29
HETATM   29  C   UNL     1      -7.595   7.613  67.914  1.00  0.00    -0.117 C  
HETATM   30  H   UNL     1      -8.572   7.094  69.585  1.00  0.00     0.000 HD 
HETATM   31  O   UNL     1      -8.484   7.759  68.912  1.00  0.00    -0.127 OA 
BRANCH  29  32
HETATM   32  C   UNL     1      -6.807   6.314  68.092  1.00  0.00    -0.070 C  
HETATM   33  C   UNL     1      -6.805   5.710  69.494  1.00  0.00    -0.061 C  
HETATM   34  N   UNL     1      -6.249   4.343  69.437  1.00  0.00    -0.027 NA 
HETATM   35  C   UNL     1      -7.074   3.354  68.665  1.00  0.00    -0.050 C  
HETATM   36  C   UNL     1      -5.754   3.878  70.720  1.00  0.00    -0.013 C  
HETATM   37  C   UNL     1      -7.933   2.338  69.508  1.00  0.00    -0.053 C  
HETATM   38  C   UNL     1      -9.027   3.104  70.151  1.00  0.00    -0.172 A  
HETATM   39  C   UNL     1      -9.467   3.234  71.445  1.00  0.00    -0.151 A  
HETATM   40  N   UNL     1     -10.324   4.317  71.479  1.00  0.00    -0.061 NA 
HETATM   41  C   UNL     1     -10.462   4.864  70.217  1.00  0.00    -0.088 A  
HETATM   42  H   UNL     1     -10.791   4.664  72.317  1.00  0.00     0.000 HD 
HETATM   43  C   UNL     1     -11.089   6.020  69.752  1.00  0.00    -0.476 A  
HETATM   44  C   UNL     1     -10.928   6.326  68.388  1.00  0.00    -0.409 A  
HETATM   45  C   UNL     1     -10.071   5.590  67.560  1.00  0.00    -0.217 A  
HETATM   46  C   UNL     1      -9.308   4.551  68.102  1.00  0.00    -0.186 A  
HETATM   47  C   UNL     1      -7.968   4.068  67.547  1.00  0.00    -0.091 C  
HETATM   48  C   UNL     1      -9.659   4.109  69.389  1.00  0.00    -0.265 A  
HETATM   49  C   UNL     1      -7.112   5.234  67.004  1.00  0.00    -0.070 C  
ENDBRANCH  29  32
ENDBRANCH  27  29
ENDBRANCH  13  27
TORSDOF 5
ENDMDL
MODEL       68
REMARK 921   NORMALIZED FREE ENERGY PREDICTED BY IDOCK:   -4.77 KCAL/MOL
REMARK 922        TOTAL FREE ENERGY PREDICTED BY IDOCK:   -8.00 KCAL/MOL
REMARK 923 INTER-LIGAND FREE ENERGY PREDICTED BY IDOCK:   -7.81 KCAL/MOL
REMARK 924 INTRA-LIGAND FREE ENERGY PREDICTED BY IDOCK:   -0.19 KCAL/MOL
REMARK 927      BINDING AFFINITY PREDICTED BY RF-SCORE:    0.00 PKD
ROOT
HETATM    1  C   UNL     1      -7.262  14.901  68.296  1.00  0.00    -0.113 C  
HETATM    2  C   UNL     1      -5.850  15.401  68.580  1.00  0.00    -0.096 C  
HETATM    3  C   UNL     1      -6.070  16.917  68.853  1.00  0.00    -0.164 C  
HETATM    4  C   UNL     1      -7.475  17.238  68.361  1.00  0.00    -0.234 C  
HETATM    5  N   UNL     1      -7.929  16.023  67.726  1.00  0.00    -0.136 N  
HETATM    6  C   UNL     1      -9.281  15.927  67.519  1.00  0.00    -0.207 C  
HETATM    7  O   UNL     1      -9.888  16.926  67.148  1.00  0.00    -0.257 OA 
HETATM    8  C   UNL     1      -9.892  14.483  67.683  1.00  0.00    -0.223 C  
HETATM    9  C   UNL     1      -7.754  13.461  67.870  1.00  0.00    -0.153 C  
HETATM   10  N   UNL     1      -9.027  13.460  68.502  1.00  0.00    -0.125 N  
HETATM   11  C   UNL     1      -9.209  12.072  68.457  1.00  0.00    -0.114 C  
HETATM   12  H   UNL     1      -7.100  11.709  68.187  1.00  0.00     0.000 HD 
HETATM   13  C   UNL     1      -9.088  11.650  66.964  1.00  0.00    -0.179 C  
HETATM   14  O   UNL     1      -9.358  11.381  69.447  1.00  0.00     0.196 OA 
HETATM   15  O   UNL     1      -6.804  12.576  68.443  1.00  0.00    -0.072 OA 
HETATM   16  O   UNL     1      -8.212  12.893  66.604  1.00  0.00     0.016 OA 
HETATM   17  C   UNL     1     -11.504  10.509  67.612  1.00  0.00    -0.078 C  
HETATM   18  C   UNL     1     -11.393  11.606  65.367  1.00  0.00    -0.218 C  
HETATM   19  C   UNL     1     -10.716  11.542  66.738  1.00  0.00    -0.311 C  
ENDROOT
BRANCH   8  20
HETATM   20  C   UNL     1     -11.375  14.662  68.056  1.00  0.00    -0.329 C  
BRANCH  20  21
HETATM   21  C   UNL     1     -11.586  14.534  69.582  1.00  0.00    -0.346 A  
HETATM   22  C   UNL     1     -12.329  15.732  71.550  1.00  0.00    -0.514 A  
HETATM   23  C   UNL     1     -12.608  13.359  71.450  1.00  0.00    -0.374 A  
HETATM   24  C   UNL     1     -11.960  13.328  70.219  1.00  0.00    -0.372 A  
HETATM   25  C   UNL     1     -12.836  14.554  72.101  1.00  0.00    -0.414 A  
HETATM   26  C   UNL     1     -11.706  15.725  70.305  1.00  0.00    -0.373 A  
ENDBRANCH  20  21
ENDBRANCH   8  20
BRANCH  13  27
HETATM   27  N   UNL     1      -8.298  10.423  66.679  1.00  0.00    -0.125 NA 
HETATM   28  H   UNL     1      -7.337  10.445  66.341  1.00  0.00     0.000 HD 
BRANCH  27  29
HETATM   29  C   UNL     1      -8.945   9.327  66.901  1.00  0.00    -0.130 C  
HETATM   30  H   UNL     1     -10.154   7.948  66.093  1.00  0.00     0.000 HD 
HETATM   31  O   UNL     1      -9.679   8.755  65.931  1.00  0.00    -0.237 OA 
BRANCH  29  32
HETATM   32  C   UNL     1      -9.056   8.519  68.195  1.00  0.00    -0.138 C  
HETATM   33  C   UNL     1      -9.979   7.303  68.158  1.00  0.00    -0.159 C  
HETATM   34  N   UNL     1      -9.764   6.488  69.369  1.00  0.00    -0.146 NA 
HETATM   35  C   UNL     1      -8.407   5.853  69.475  1.00  0.00    -0.114 C  
HETATM   36  C   UNL     1     -10.885   5.618  69.675  1.00  0.00    -0.295 C  
HETATM   37  C   UNL     1      -8.315   4.318  69.137  1.00  0.00    -0.084 C  
HETATM   38  C   UNL     1      -8.531   4.167  67.678  1.00  0.00    -0.103 A  
HETATM   39  C   UNL     1      -9.388   3.414  66.914  1.00  0.00    -0.175 A  
HETATM   40  N   UNL     1      -9.339   3.918  65.629  1.00  0.00    -0.152 NA 
HETATM   41  C   UNL     1      -8.441   4.966  65.553  1.00  0.00    -0.130 A  
HETATM   42  H   UNL     1      -9.890   3.566  64.845  1.00  0.00     0.000 HD 
HETATM   43  C   UNL     1      -8.134   5.876  64.542  1.00  0.00    -0.132 A  
HETATM   44  C   UNL     1      -7.225   6.901  64.862  1.00  0.00    -0.078 A  
HETATM   45  C   UNL     1      -6.751   7.090  66.168  1.00  0.00    -0.053 A  
HETATM   46  C   UNL     1      -7.227   6.276  67.201  1.00  0.00    -0.075 A  
HETATM   47  C   UNL     1      -7.298   6.682  68.673  1.00  0.00    -0.087 C  
HETATM   48  C   UNL     1      -7.934   5.121  66.826  1.00  0.00    -0.104 A  
HETATM   49  C   UNL     1      -7.678   8.170  68.844  1.00  0.00    -0.103 C  
ENDBRANCH  29  32
ENDBRANCH  27  29
ENDBRANCH  13  27
TORSDOF 5
ENDMDL
MODEL       69
REMARK 921   NORMALIZED FREE ENERGY PREDICTED BY IDOCK:   -4.75 KCAL/MOL
REMARK 922        TOTAL FREE ENERGY PREDICTED BY IDOCK:   -7.98 KCAL/MOL
REMARK 923 INTER-LIGAND FREE ENERGY PREDICTED BY IDOCK:   -8.21 KCAL/MOL
REMARK 924 INTRA-LIGAND FREE ENERGY PREDICTED BY IDOCK:    0.23 KCAL/MOL
REMARK 927      BINDING AFFINITY PREDICTED BY RF-SCORE:    0.00 PKD
ROOT
HETATM    1  C   UNL     1      -7.365   7.700  71.428  1.00  0.00    -0.074 C  
HETATM    2  C   UNL     1      -5.871   7.491  71.214  1.00  0.00    -0.035 C  
HETATM    3  C   UNL     1      -5.503   6.468  72.327  1.00  0.00    -0.036 C  
HETATM    4  C   UNL     1      -6.679   6.450  73.294  1.00  0.00    -0.074 C  
HETATM    5  N   UNL     1      -7.555   7.499  72.826  1.00  0.00    -0.084 N  
HETATM    6  C   UNL     1      -8.842   7.456  73.297  1.00  0.00    -0.157 C  
HETATM    7  O   UNL     1      -9.025   7.157  74.472  1.00  0.00    -0.205 OA 
HETATM    8  C   UNL     1      -9.955   7.910  72.276  1.00  0.00    -0.219 C  
HETATM    9  C   UNL     1      -8.363   8.676  70.685  1.00  0.00    -0.143 C  
HETATM   10  N   UNL     1      -9.546   7.891  70.761  1.00  0.00    -0.165 N  
HETATM   11  C   UNL     1     -10.238   8.578  69.756  1.00  0.00    -0.206 C  
HETATM   12  H   UNL     1      -8.421   9.400  68.935  1.00  0.00     0.000 HD 
HETATM   13  C   UNL     1     -10.277  10.075  70.179  1.00  0.00    -0.242 C  
HETATM   14  O   UNL     1     -10.643   8.051  68.737  1.00  0.00    -0.195 OA 
HETATM   15  O   UNL     1      -7.821   8.814  69.382  1.00  0.00    -0.091 OA 
HETATM   16  O   UNL     1      -8.995   9.938  71.061  1.00  0.00     0.071 OA 
HETATM   17  C   UNL     1     -12.949   9.614  69.722  1.00  0.00     1.306 C  
HETATM   18  C   UNL     1     -12.419  10.997  71.737  1.00  0.00    -0.195 C  
HETATM   19  C   UNL     1     -11.824  10.000  70.740  1.00  0.00    -0.435 C  
ENDROOT
BRANCH   8  20
HETATM   20  C   UNL     1     -11.263   7.214  72.696  1.00  0.00    -0.331 C  
BRANCH  20  21
HETATM   21  C   UNL     1     -11.163   5.682  72.517  1.00  0.00    -0.346 A  
HETATM   22  C   UNL     1      -9.891   3.929  71.433  1.00  0.00    -0.243 A  
HETATM   23  C   UNL     1     -10.962   3.477  73.524  1.00  0.00    -0.330 A  
HETATM   24  C   UNL     1     -11.515   4.754  73.524  1.00  0.00    -0.248 A  
HETATM   25  C   UNL     1     -10.116   3.072  72.511  1.00  0.00    -0.232 A  
HETATM   26  C   UNL     1     -10.410   5.221  71.431  1.00  0.00    -0.290 A  
ENDBRANCH  20  21
ENDBRANCH   8  20
BRANCH  13  27
HETATM   27  N   UNL     1     -10.009  11.077  69.115  1.00  0.00    -0.366 NA 
HETATM   28  H   UNL     1      -9.070  11.388  68.866  1.00  0.00     0.000 HD 
BRANCH  27  29
HETATM   29  C   UNL     1     -11.075  11.516  68.533  1.00  0.00    -0.236 C  
HETATM   30  H   UNL     1     -12.471  11.112  67.153  1.00  0.00     0.000 HD 
HETATM   31  O   UNL     1     -11.687  10.790  67.581  1.00  0.00    -0.538 OA 
BRANCH  29  32
HETATM   32  C   UNL     1     -11.803  12.847  68.734  1.00  0.00    -0.353 C  
HETATM   33  C   UNL     1     -11.143  13.842  69.686  1.00  0.00    -0.072 C  
HETATM   34  N   UNL     1     -11.805  15.155  69.556  1.00  0.00    -0.316 NA 
HETATM   35  C   UNL     1     -11.631  15.826  68.224  1.00  0.00    -0.298 C  
HETATM   36  C   UNL     1     -11.608  16.007  70.715  1.00  0.00    -0.400 C  
HETATM   37  C   UNL     1     -10.586  17.002  68.155  1.00  0.00    -0.369 C  
HETATM   38  C   UNL     1      -9.235  16.409  68.297  1.00  0.00    -0.207 A  
HETATM   39  C   UNL     1      -8.172  16.651  69.132  1.00  0.00    -0.126 A  
HETATM   40  N   UNL     1      -7.301  15.585  69.003  1.00  0.00    -0.147 NA 
HETATM   41  C   UNL     1      -7.779  14.680  68.075  1.00  0.00    -0.132 A  
HETATM   42  H   UNL     1      -6.428  15.482  69.520  1.00  0.00     0.000 HD 
HETATM   43  C   UNL     1      -7.356  13.407  67.691  1.00  0.00    -0.173 A  
HETATM   44  C   UNL     1      -8.168  12.716  66.773  1.00  0.00     0.029 A  
HETATM   45  C   UNL     1      -9.412  13.213  66.364  1.00  0.00    -0.226 A  
HETATM   46  C   UNL     1      -9.896  14.404  66.915  1.00  0.00    -0.263 A  
HETATM   47  C   UNL     1     -11.376  14.766  67.053  1.00  0.00    -0.358 C  
HETATM   48  C   UNL     1      -8.980  15.192  67.632  1.00  0.00    -0.183 A  
HETATM   49  C   UNL     1     -12.242  13.535  67.402  1.00  0.00    -0.278 C  
ENDBRANCH  29  32
ENDBRANCH  27  29
ENDBRANCH  13  27
TORSDOF 5
ENDMDL
MODEL       70
REMARK 921   NORMALIZED FREE ENERGY PREDICTED BY IDOCK:   -4.73 KCAL/MOL
REMARK 922        TOTAL FREE ENERGY PREDICTED BY IDOCK:   -7.95 KCAL/MOL
REMARK 923 INTER-LIGAND FREE ENERGY PREDICTED BY IDOCK:   -7.98 KCAL/MOL
REMARK 924 INTRA-LIGAND FREE ENERGY PREDICTED BY IDOCK:    0.03 KCAL/MOL
REMARK 927      BINDING AFFINITY PREDICTED BY RF-SCORE:    0.00 PKD
ROOT
HETATM    1  C   UNL     1      -8.661   9.805  69.409  1.00  0.00    -0.165 C  
HETATM    2  C   UNL     1      -8.020   9.590  70.776  1.00  0.00    -0.090 C  
HETATM    3  C   UNL     1      -7.996   8.040  70.906  1.00  0.00    -0.094 C  
HETATM    4  C   UNL     1      -8.923   7.508  69.822  1.00  0.00    -0.141 C  
HETATM    5  N   UNL     1      -9.527   8.686  69.244  1.00  0.00    -0.157 N  
HETATM    6  C   UNL     1     -10.122   8.513  68.021  1.00  0.00    -0.200 C  
HETATM    7  O   UNL     1     -10.768   7.489  67.824  1.00  0.00    -0.220 OA 
HETATM    8  C   UNL     1      -9.993   9.727  67.024  1.00  0.00    -0.203 C  
HETATM    9  C   UNL     1      -9.054  11.151  68.681  1.00  0.00    -0.166 C  
HETATM   10  N   UNL     1      -8.842  10.750  67.333  1.00  0.00    -0.129 N  
HETATM   11  C   UNL     1      -8.787  12.046  66.805  1.00  0.00    -0.198 C  
HETATM   12  H   UNL     1      -8.362  12.915  68.732  1.00  0.00     0.000 HD 
HETATM   13  C   UNL     1     -10.116  12.751  67.200  1.00  0.00    -0.234 C  
HETATM   14  O   UNL     1      -7.818  12.491  66.219  1.00  0.00     0.450 OA 
HETATM   15  O   UNL     1      -8.126  12.106  69.171  1.00  0.00     0.164 OA 
HETATM   16  O   UNL     1     -10.328  11.824  68.440  1.00  0.00    -0.201 OA 
HETATM   17  C   UNL     1     -10.109  13.182  64.484  1.00  0.00    -0.244 C  
HETATM   18  C   UNL     1     -12.321  12.569  65.477  1.00  0.00    -0.364 C  
HETATM   19  C   UNL     1     -10.811  12.530  65.723  1.00  0.00    -0.310 C  
ENDROOT
BRANCH   8  20
HETATM   20  C   UNL     1     -10.108   9.155  65.599  1.00  0.00     0.130 C  
BRANCH  20  21
HETATM   21  C   UNL     1      -8.721   9.047  64.926  1.00  0.00    -0.200 A  
HETATM   22  C   UNL     1      -7.093  10.273  63.619  1.00  0.00    -0.067 A  
HETATM   23  C   UNL     1      -6.345   8.571  65.124  1.00  0.00    -0.056 A  
HETATM   24  C   UNL     1      -7.663   8.263  65.442  1.00  0.00    -0.103 A  
HETATM   25  C   UNL     1      -6.048   9.599  64.251  1.00  0.00    -0.097 A  
HETATM   26  C   UNL     1      -8.418  10.000  63.948  1.00  0.00    -0.179 A  
ENDBRANCH  20  21
ENDBRANCH   8  20
BRANCH  13  27
HETATM   27  N   UNL     1     -10.010  14.154  67.678  1.00  0.00    -0.230 NA 
HETATM   28  H   UNL     1     -10.496  14.500  68.505  1.00  0.00     0.000 HD 
BRANCH  27  29
HETATM   29  C   UNL     1      -9.245  14.896  66.947  1.00  0.00    -0.246 C  
HETATM   30  H   UNL     1      -9.124  15.943  65.242  1.00  0.00     0.000 HD 
HETATM   31  O   UNL     1      -9.686  15.397  65.780  1.00  0.00    -0.329 OA 
BRANCH  29  32
HETATM   32  C   UNL     1      -7.790  15.306  67.184  1.00  0.00    -0.249 C  
HETATM   33  C   UNL     1      -7.288  16.509  66.388  1.00  0.00    -0.109 C  
HETATM   34  N   UNL     1      -5.983  16.941  66.927  1.00  0.00    -0.175 NA 
HETATM   35  C   UNL     1      -6.020  17.480  68.328  1.00  0.00    -0.162 C  
HETATM   36  C   UNL     1      -5.208  17.720  65.979  1.00  0.00    -0.192 C  
HETATM   37  C   UNL     1      -5.944  19.044  68.487  1.00  0.00    -0.231 C  
HETATM   38  C   UNL     1      -7.219  19.609  67.984  1.00  0.00    -0.321 A  
HETATM   39  C   UNL     1      -7.536  20.572  67.059  1.00  0.00    -0.312 A  
HETATM   40  N   UNL     1      -8.886  20.452  66.791  1.00  0.00    -0.531 NA 
HETATM   41  C   UNL     1      -9.443  19.443  67.553  1.00  0.00    -0.312 A  
HETATM   42  H   UNL     1      -9.400  21.028  66.123  1.00  0.00     0.000 HD 
HETATM   43  C   UNL     1     -10.705  18.848  67.557  1.00  0.00    -0.509 A  
HETATM   44  C   UNL     1     -10.888  17.749  68.415  1.00  0.00    -0.088 A  
HETATM   45  C   UNL     1      -9.825  17.184  69.133  1.00  0.00    -0.187 A  
HETATM   46  C   UNL     1      -8.531  17.686  68.961  1.00  0.00    -0.021 A  
HETATM   47  C   UNL     1      -7.247  16.880  69.163  1.00  0.00    -0.209 C  
HETATM   48  C   UNL     1      -8.409  18.919  68.299  1.00  0.00    -0.364 A  
HETATM   49  C   UNL     1      -7.401  15.417  68.694  1.00  0.00    -0.127 C  
ENDBRANCH  29  32
ENDBRANCH  27  29
ENDBRANCH  13  27
TORSDOF 5
ENDMDL
MODEL       71
REMARK 921   NORMALIZED FREE ENERGY PREDICTED BY IDOCK:   -4.69 KCAL/MOL
REMARK 922        TOTAL FREE ENERGY PREDICTED BY IDOCK:   -7.91 KCAL/MOL
REMARK 923 INTER-LIGAND FREE ENERGY PREDICTED BY IDOCK:   -6.38 KCAL/MOL
REMARK 924 INTRA-LIGAND FREE ENERGY PREDICTED BY IDOCK:   -1.53 KCAL/MOL
REMARK 927      BINDING AFFINITY PREDICTED BY RF-SCORE:    0.00 PKD
ROOT
HETATM    1  C   UNL     1      -9.405   3.905  67.646  1.00  0.00    -0.189 C  
HETATM    2  C   UNL     1      -9.258   3.589  66.162  1.00  0.00    -0.173 C  
HETATM    3  C   UNL     1      -9.095   2.041  66.154  1.00  0.00    -0.048 C  
HETATM    4  C   UNL     1      -8.796   1.638  67.592  1.00  0.00    -0.119 C  
HETATM    5  N   UNL     1      -8.654   2.887  68.303  1.00  0.00    -0.081 N  
HETATM    6  C   UNL     1      -8.739   2.809  69.669  1.00  0.00    -0.076 C  
HETATM    7  O   UNL     1      -8.203   1.864  70.236  1.00  0.00    -0.041 OA 
HETATM    8  C   UNL     1      -9.443   4.030  70.377  1.00  0.00    -0.182 C  
HETATM    9  C   UNL     1      -9.534   5.304  68.371  1.00  0.00    -0.124 C  
HETATM   10  N   UNL     1     -10.359   4.919  69.462  1.00  0.00    -0.180 N  
HETATM   11  C   UNL     1     -10.771   6.216  69.795  1.00  0.00    -0.310 C  
HETATM   12  H   UNL     1     -10.239   6.985  67.851  1.00  0.00     0.000 HD 
HETATM   13  C   UNL     1      -9.481   7.044  70.058  1.00  0.00    -0.161 C  
HETATM   14  O   UNL     1     -11.934   6.574  69.789  1.00  0.00    -0.277 OA 
HETATM   15  O   UNL     1     -10.162   6.143  67.415  1.00  0.00    -0.143 OA 
HETATM   16  O   UNL     1      -8.606   6.112  69.160  1.00  0.00    -0.118 OA 
HETATM   17  C   UNL     1     -10.878   7.545  72.373  1.00  0.00    -0.323 C  
HETATM   18  C   UNL     1      -8.426   7.140  72.655  1.00  0.00    -0.124 C  
HETATM   19  C   UNL     1      -9.602   6.937  71.697  1.00  0.00    -0.161 C  
ENDROOT
BRANCH   8  20
HETATM   20  C   UNL     1     -10.012   3.512  71.710  1.00  0.00    -0.202 C  
BRANCH  20  21
HETATM   21  C   UNL     1      -8.914   3.441  72.796  1.00  0.00    -0.106 A  
HETATM   22  C   UNL     1      -8.008   2.051  74.559  1.00  0.00    -0.045 A  
HETATM   23  C   UNL     1      -6.555   3.540  73.379  1.00  0.00    -0.033 A  
HETATM   24  C   UNL     1      -7.636   4.028  72.651  1.00  0.00    -0.073 A  
HETATM   25  C   UNL     1      -6.721   2.525  74.299  1.00  0.00    -0.026 A  
HETATM   26  C   UNL     1      -9.097   2.504  73.819  1.00  0.00    -0.083 A  
ENDBRANCH  20  21
ENDBRANCH   8  20
BRANCH  13  27
HETATM   27  N   UNL     1      -9.440   8.416  69.487  1.00  0.00    -0.165 NA 
HETATM   28  H   UNL     1     -10.249   8.867  69.060  1.00  0.00     0.000 HD 
BRANCH  27  29
HETATM   29  C   UNL     1      -8.284   8.985  69.581  1.00  0.00    -0.116 C  
HETATM   30  H   UNL     1      -7.153  10.222  70.680  1.00  0.00     0.000 HD 
HETATM   31  O   UNL     1      -8.003   9.804  70.610  1.00  0.00    -0.272 OA 
BRANCH  29  32
HETATM   32  C   UNL     1      -7.093   8.908  68.625  1.00  0.00    -0.071 C  
HETATM   33  C   UNL     1      -7.363   8.288  67.255  1.00  0.00    -0.089 C  
HETATM   34  N   UNL     1      -6.209   8.539  66.369  1.00  0.00    -0.056 NA 
HETATM   35  C   UNL     1      -5.974   9.982  66.025  1.00  0.00    -0.074 C  
HETATM   36  C   UNL     1      -6.138   7.612  65.254  1.00  0.00    -0.038 C  
HETATM   37  C   UNL     1      -6.429  10.452  64.592  1.00  0.00    -0.050 C  
HETATM   38  C   UNL     1      -7.912  10.444  64.569  1.00  0.00    -0.093 A  
HETATM   39  C   UNL     1      -8.848   9.870  63.745  1.00  0.00    -0.232 A  
HETATM   40  N   UNL     1     -10.066   9.952  64.393  1.00  0.00    -0.405 NA 
HETATM   41  C   UNL     1      -9.926  10.597  65.607  1.00  0.00    -0.268 A  
HETATM   42  H   UNL     1     -10.946   9.588  64.027  1.00  0.00     0.000 HD 
HETATM   43  C   UNL     1     -10.802  10.808  66.672  1.00  0.00    -0.228 A  
HETATM   44  C   UNL     1     -10.271  11.423  67.821  1.00  0.00    -0.202 A  
HETATM   45  C   UNL     1      -8.902  11.690  67.953  1.00  0.00    -0.155 A  
HETATM   46  C   UNL     1      -8.019  11.292  66.944  1.00  0.00    -0.155 A  
HETATM   47  C   UNL     1      -6.541  10.963  67.154  1.00  0.00    -0.083 C  
HETATM   48  C   UNL     1      -8.587  10.907  65.717  1.00  0.00    -0.176 A  
HETATM   49  C   UNL     1      -6.294  10.245  68.499  1.00  0.00    -0.051 C  
ENDBRANCH  29  32
ENDBRANCH  27  29
ENDBRANCH  13  27
TORSDOF 5
ENDMDL
MODEL       72
REMARK 921   NORMALIZED FREE ENERGY PREDICTED BY IDOCK:   -4.69 KCAL/MOL
REMARK 922        TOTAL FREE ENERGY PREDICTED BY IDOCK:   -7.90 KCAL/MOL
REMARK 923 INTER-LIGAND FREE ENERGY PREDICTED BY IDOCK:   -7.49 KCAL/MOL
REMARK 924 INTRA-LIGAND FREE ENERGY PREDICTED BY IDOCK:   -0.42 KCAL/MOL
REMARK 927      BINDING AFFINITY PREDICTED BY RF-SCORE:    0.00 PKD
ROOT
HETATM    1  C   UNL     1     -10.026  10.753  65.032  1.00  0.00    -0.300 C  
HETATM    2  C   UNL     1      -9.862  10.549  63.530  1.00  0.00    -0.339 C  
HETATM    3  C   UNL     1     -10.436  11.868  62.938  1.00  0.00     0.071 C  
HETATM    4  C   UNL     1     -11.199  12.545  64.069  1.00  0.00    -0.403 C  
HETATM    5  N   UNL     1     -11.172  11.592  65.153  1.00  0.00    -0.201 N  
HETATM    6  C   UNL     1     -11.471  12.091  66.395  1.00  0.00    -0.353 C  
HETATM    7  O   UNL     1     -12.376  12.912  66.492  1.00  0.00    -0.440 OA 
HETATM    8  C   UNL     1     -10.669  11.455  67.594  1.00  0.00    -0.216 C  
HETATM    9  C   UNL     1      -9.711   9.765  66.224  1.00  0.00    -0.234 C  
HETATM   10  N   UNL     1      -9.338  10.714  67.214  1.00  0.00    -0.150 N  
HETATM   11  C   UNL     1      -8.687   9.800  68.052  1.00  0.00    -0.118 C  
HETATM   12  H   UNL     1      -8.459   8.361  66.461  1.00  0.00     0.000 HD 
HETATM   13  C   UNL     1      -9.721   8.690  68.397  1.00  0.00    -0.162 C  
HETATM   14  O   UNL     1      -7.510   9.883  68.352  1.00  0.00    -0.081 OA 
HETATM   15  O   UNL     1      -8.649   8.955  65.745  1.00  0.00    -0.141 OA 
HETATM   16  O   UNL     1     -10.552   8.954  67.101  1.00  0.00    -0.286 OA 
HETATM   17  C   UNL     1      -8.895   9.409  70.920  1.00  0.00    -0.168 C  
HETATM   18  C   UNL     1     -11.349   9.000  70.661  1.00  0.00    -0.311 C  
HETATM   19  C   UNL     1     -10.066   9.308  69.885  1.00  0.00    -0.230 C  
ENDROOT
BRANCH   8  20
HETATM   20  C   UNL     1     -10.633  12.506  68.719  1.00  0.00    -0.204 C  
BRANCH  20  21
HETATM   21  C   UNL     1      -9.766  13.722  68.321  1.00  0.00    -0.231 A  
HETATM   22  C   UNL     1      -9.495  16.106  68.641  1.00  0.00    -0.227 A  
HETATM   23  C   UNL     1      -7.569  14.758  68.195  1.00  0.00    -0.121 A  
HETATM   24  C   UNL     1      -8.380  13.636  68.054  1.00  0.00    -0.170 A  
HETATM   25  C   UNL     1      -8.108  15.984  68.531  1.00  0.00    -0.169 A  
HETATM   26  C   UNL     1     -10.318  14.989  68.534  1.00  0.00    -0.230 A  
ENDBRANCH  20  21
ENDBRANCH   8  20
BRANCH  13  27
HETATM   27  N   UNL     1      -9.232   7.287  68.363  1.00  0.00    -0.138 NA 
HETATM   28  H   UNL     1      -8.327   7.022  67.975  1.00  0.00     0.000 HD 
BRANCH  27  29
HETATM   29  C   UNL     1     -10.060   6.435  68.869  1.00  0.00    -0.162 C  
HETATM   30  H   UNL     1     -11.855   5.570  68.653  1.00  0.00     0.000 HD 
HETATM   31  O   UNL     1     -11.245   6.196  68.281  1.00  0.00    -0.323 OA 
BRANCH  29  32
HETATM   32  C   UNL     1      -9.928   5.609  70.150  1.00  0.00    -0.270 C  
HETATM   33  C   UNL     1      -9.886   4.092  69.976  1.00  0.00    -0.175 C  
HETATM   34  N   UNL     1      -9.482   3.465  71.249  1.00  0.00    -0.143 NA 
HETATM   35  C   UNL     1      -8.081   3.774  71.694  1.00  0.00    -0.066 C  
HETATM   36  C   UNL     1      -9.874   2.070  71.345  1.00  0.00    -0.114 C  
HETATM   37  C   UNL     1      -7.004   2.646  71.474  1.00  0.00    -0.031 C  
HETATM   38  C   UNL     1      -6.767   2.532  70.015  1.00  0.00    -0.033 A  
HETATM   39  C   UNL     1      -6.800   1.489  69.123  1.00  0.00    -0.029 A  
HETATM   40  N   UNL     1      -6.797   2.037  67.854  1.00  0.00    -0.035 NA 
HETATM   41  C   UNL     1      -6.732   3.415  67.923  1.00  0.00    -0.045 A  
HETATM   42  H   UNL     1      -6.836   1.498  66.989  1.00  0.00     0.000 HD 
HETATM   43  C   UNL     1      -6.838   4.415  66.956  1.00  0.00    -0.052 A  
HETATM   44  C   UNL     1      -6.836   5.746  67.413  1.00  0.00    -0.064 A  
HETATM   45  C   UNL     1      -6.866   6.060  68.778  1.00  0.00    -0.066 A  
HETATM   46  C   UNL     1      -6.953   5.032  69.723  1.00  0.00    -0.053 A  
HETATM   47  C   UNL     1      -7.568   5.174  71.115  1.00  0.00    -0.095 C  
HETATM   48  C   UNL     1      -6.710   3.726  69.266  1.00  0.00    -0.041 A  
HETATM   49  C   UNL     1      -8.801   6.105  71.111  1.00  0.00    -0.139 C  
ENDBRANCH  29  32
ENDBRANCH  27  29
ENDBRANCH  13  27
TORSDOF 5
ENDMDL
MODEL       73
REMARK 921   NORMALIZED FREE ENERGY PREDICTED BY IDOCK:   -4.63 KCAL/MOL
REMARK 922        TOTAL FREE ENERGY PREDICTED BY IDOCK:   -7.83 KCAL/MOL
REMARK 923 INTER-LIGAND FREE ENERGY PREDICTED BY IDOCK:   -7.62 KCAL/MOL
REMARK 924 INTRA-LIGAND FREE ENERGY PREDICTED BY IDOCK:   -0.21 KCAL/MOL
REMARK 927      BINDING AFFINITY PREDICTED BY RF-SCORE:    0.00 PKD
ROOT
HETATM    1  C   UNL     1     -10.351   7.971  70.293  1.00  0.00    -0.212 C  
HETATM    2  C   UNL     1     -11.503   7.958  71.291  1.00  0.00    -0.293 C  
HETATM    3  C   UNL     1     -12.099   6.532  71.111  1.00  0.00    -0.318 C  
HETATM    4  C   UNL     1     -11.511   5.987  69.817  1.00  0.00    -0.137 C  
HETATM    5  N   UNL     1     -10.771   7.091  69.254  1.00  0.00    -0.226 N  
HETATM    6  C   UNL     1      -9.859   6.766  68.283  1.00  0.00    -0.142 C  
HETATM    7  O   UNL     1     -10.164   5.914  67.456  1.00  0.00    -0.152 OA 
HETATM    8  C   UNL     1      -8.535   7.622  68.280  1.00  0.00    -0.125 C  
HETATM    9  C   UNL     1      -9.366   9.145  69.907  1.00  0.00    -0.186 C  
HETATM   10  N   UNL     1      -8.204   8.380  69.615  1.00  0.00    -0.115 N  
HETATM   11  C   UNL     1      -7.302   9.448  69.704  1.00  0.00    -0.077 C  
HETATM   12  H   UNL     1      -8.686  10.644  70.847  1.00  0.00     0.000 HD 
HETATM   13  C   UNL     1      -7.785  10.530  68.697  1.00  0.00    -0.106 C  
HETATM   14  O   UNL     1      -6.378   9.483  70.495  1.00  0.00    -0.061 OA 
HETATM   15  O   UNL     1      -9.278   9.938  71.079  1.00  0.00     0.049 OA 
HETATM   16  O   UNL     1      -9.263  10.025  68.744  1.00  0.00    -0.146 OA 
HETATM   17  C   UNL     1      -5.165  10.250  67.912  1.00  0.00    -0.034 C  
HETATM   18  C   UNL     1      -6.832  10.462  66.060  1.00  0.00    -0.128 C  
HETATM   19  C   UNL     1      -6.682  10.121  67.544  1.00  0.00    -0.072 C  
ENDROOT
BRANCH   8  20
HETATM   20  C   UNL     1      -7.440   6.756  67.631  1.00  0.00    -0.098 C  
BRANCH  20  21
HETATM   21  C   UNL     1      -6.981   5.629  68.584  1.00  0.00    -0.064 A  
HETATM   22  C   UNL     1      -6.485   3.262  68.700  1.00  0.00    -0.033 A  
HETATM   23  C   UNL     1      -5.332   4.773  70.153  1.00  0.00    -0.004 A  
HETATM   24  C   UNL     1      -6.086   5.833  69.659  1.00  0.00    -0.025 A  
HETATM   25  C   UNL     1      -5.491   3.497  69.652  1.00  0.00    -0.016 A  
HETATM   26  C   UNL     1      -7.227   4.315  68.172  1.00  0.00    -0.060 A  
ENDBRANCH  20  21
ENDBRANCH   8  20
BRANCH  13  27
HETATM   27  N   UNL     1      -7.758  11.940  69.167  1.00  0.00    -0.340 NA 
HETATM   28  H   UNL     1      -7.552  12.202  70.130  1.00  0.00     0.000 HD 
BRANCH  27  29
HETATM   29  C   UNL     1      -8.019  12.802  68.241  1.00  0.00    -0.151 C  
HETATM   30  H   UNL     1      -8.688  13.039  66.367  1.00  0.00     0.000 HD 
HETATM   31  O   UNL     1      -8.496  12.405  67.048  1.00  0.00    -0.179 OA 
BRANCH  29  32
HETATM   32  C   UNL     1      -7.829  14.320  68.257  1.00  0.00    -0.141 C  
HETATM   33  C   UNL     1      -7.917  15.028  66.907  1.00  0.00    -0.074 C  
HETATM   34  N   UNL     1      -7.992  16.486  67.123  1.00  0.00    -0.166 NA 
HETATM   35  C   UNL     1      -9.237  16.963  67.814  1.00  0.00    -0.230 C  
HETATM   36  C   UNL     1      -7.591  17.254  65.958  1.00  0.00    -0.191 C  
HETATM   37  C   UNL     1     -10.337  17.632  66.908  1.00  0.00    -0.329 C  
HETATM   38  C   UNL     1     -10.931  16.567  66.065  1.00  0.00     0.057 A  
HETATM   39  C   UNL     1     -11.123  16.418  64.714  1.00  0.00    -0.235 A  
HETATM   40  N   UNL     1     -11.441  15.092  64.491  1.00  0.00    -0.619 NA 
HETATM   41  C   UNL     1     -11.484  14.397  65.684  1.00  0.00    -0.336 A  
HETATM   42  H   UNL     1     -11.621  14.683  63.573  1.00  0.00     0.000 HD 
HETATM   43  C   UNL     1     -11.621  13.042  65.985  1.00  0.00    -0.409 A  
HETATM   44  C   UNL     1     -11.506  12.674  67.338  1.00  0.00    -0.397 A  
HETATM   45  C   UNL     1     -11.136  13.595  68.326  1.00  0.00    -0.281 A  
HETATM   46  C   UNL     1     -10.818  14.908  67.964  1.00  0.00    -0.263 A  
HETATM   47  C   UNL     1      -9.874  15.826  68.742  1.00  0.00    -0.214 C  
HETATM   48  C   UNL     1     -11.170  15.313  66.666  1.00  0.00    -0.232 A  
HETATM   49  C   UNL     1      -8.680  15.053  69.343  1.00  0.00    -0.113 C  
ENDBRANCH  29  32
ENDBRANCH  27  29
ENDBRANCH  13  27
TORSDOF 5
ENDMDL
MODEL       74
REMARK 921   NORMALIZED FREE ENERGY PREDICTED BY IDOCK:   -4.63 KCAL/MOL
REMARK 922        TOTAL FREE ENERGY PREDICTED BY IDOCK:   -7.83 KCAL/MOL
REMARK 923 INTER-LIGAND FREE ENERGY PREDICTED BY IDOCK:   -6.36 KCAL/MOL
REMARK 924 INTRA-LIGAND FREE ENERGY PREDICTED BY IDOCK:   -1.47 KCAL/MOL
REMARK 927      BINDING AFFINITY PREDICTED BY RF-SCORE:    0.00 PKD
ROOT
HETATM    1  C   UNL     1     -11.182  12.263  64.957  1.00  0.00    -0.321 C  
HETATM    2  C   UNL     1     -12.136  11.376  64.166  1.00  0.00     0.203 C  
HETATM    3  C   UNL     1     -12.706  12.351  63.095  1.00  0.00    -0.126 C  
HETATM    4  C   UNL     1     -12.341  13.754  63.562  1.00  0.00    -0.111 C  
HETATM    5  N   UNL     1     -11.751  13.566  64.866  1.00  0.00    -0.343 N  
HETATM    6  C   UNL     1     -11.017  14.620  65.347  1.00  0.00    -0.353 C  
HETATM    7  O   UNL     1     -11.436  15.757  65.162  1.00  0.00    -0.185 OA 
HETATM    8  C   UNL     1      -9.745  14.232  66.194  1.00  0.00    -0.303 C  
HETATM    9  C   UNL     1     -10.322  11.926  66.240  1.00  0.00    -0.224 C  
HETATM   10  N   UNL     1      -9.206  12.771  65.994  1.00  0.00    -0.050 N  
HETATM   11  C   UNL     1      -8.340  12.129  66.887  1.00  0.00    -0.151 C  
HETATM   12  H   UNL     1      -9.536  10.334  66.905  1.00  0.00     0.000 HD 
HETATM   13  C   UNL     1      -9.032  12.152  68.280  1.00  0.00    -0.186 C  
HETATM   14  O   UNL     1      -7.291  11.611  66.552  1.00  0.00    -0.077 OA 
HETATM   15  O   UNL     1     -10.053  10.537  66.134  1.00  0.00    -0.228 OA 
HETATM   16  O   UNL     1     -10.459  12.265  67.655  1.00  0.00    -0.209 OA 
HETATM   17  C   UNL     1      -6.587  13.235  68.919  1.00  0.00    -0.107 C  
HETATM   18  C   UNL     1      -8.565  14.317  70.001  1.00  0.00     1.309 C  
HETATM   19  C   UNL     1      -8.140  13.419  68.836  1.00  0.00     0.147 C  
ENDROOT
BRANCH   8  20
HETATM   20  C   UNL     1      -8.755  15.406  66.083  1.00  0.00    -0.129 C  
BRANCH  20  21
HETATM   21  C   UNL     1      -8.928  16.396  67.258  1.00  0.00    -0.208 A  
HETATM   22  C   UNL     1      -8.172  18.520  68.139  1.00  0.00    -0.315 A  
HETATM   23  C   UNL     1     -10.399  17.782  68.611  1.00  0.00    -0.351 A  
HETATM   24  C   UNL     1     -10.151  16.588  67.941  1.00  0.00    -0.256 A  
HETATM   25  C   UNL     1      -9.436  18.769  68.677  1.00  0.00    -0.412 A  
HETATM   26  C   UNL     1      -7.916  17.345  67.439  1.00  0.00    -0.212 A  
ENDBRANCH  20  21
ENDBRANCH   8  20
BRANCH  13  27
HETATM   27  N   UNL     1      -8.969  10.899  69.078  1.00  0.00    -0.310 NA 
HETATM   28  H   UNL     1      -8.098  10.407  69.274  1.00  0.00     0.000 HD 
BRANCH  27  29
HETATM   29  C   UNL     1     -10.120  10.493  69.500  1.00  0.00    -0.178 C  
HETATM   30  H   UNL     1     -11.650  10.901  70.728  1.00  0.00     0.000 HD 
HETATM   31  O   UNL     1     -10.803  11.199  70.418  1.00  0.00     0.141 OA 
BRANCH  29  32
HETATM   32  C   UNL     1     -10.887   9.222  69.131  1.00  0.00    -0.154 C  
HETATM   33  C   UNL     1     -10.120   8.180  68.319  1.00  0.00    -0.197 C  
HETATM   34  N   UNL     1     -10.890   6.921  68.286  1.00  0.00    -0.206 NA 
HETATM   35  C   UNL     1     -11.048   6.238  69.614  1.00  0.00    -0.412 C  
HETATM   36  C   UNL     1     -10.521   6.058  67.179  1.00  0.00    -0.264 C  
HETATM   37  C   UNL     1     -10.131   4.985  69.878  1.00  0.00    -0.344 C  
HETATM   38  C   UNL     1      -8.739   5.472  70.028  1.00  0.00    -0.132 A  
HETATM   39  C   UNL     1      -7.547   5.151  69.428  1.00  0.00    -0.061 A  
HETATM   40  N   UNL     1      -6.645   6.147  69.753  1.00  0.00    -0.045 NA 
HETATM   41  C   UNL     1      -7.237   7.085  70.577  1.00  0.00    -0.068 A  
HETATM   42  H   UNL     1      -5.678   6.184  69.430  1.00  0.00     0.000 HD 
HETATM   43  C   UNL     1      -6.808   8.321  71.062  1.00  0.00    -0.046 A  
HETATM   44  C   UNL     1      -7.739   9.072  71.803  1.00  0.00     0.083 A  
HETATM   45  C   UNL     1      -9.075   8.671  71.937  1.00  0.00    -0.326 A  
HETATM   46  C   UNL     1      -9.522   7.521  71.278  1.00  0.00    -0.158 A  
HETATM   47  C   UNL     1     -10.963   7.274  70.830  1.00  0.00    -0.275 C  
HETATM   48  C   UNL     1      -8.538   6.666  70.753  1.00  0.00    -0.135 A  
HETATM   49  C   UNL     1     -11.644   8.567  70.331  1.00  0.00    -0.075 C  
ENDBRANCH  29  32
ENDBRANCH  27  29
ENDBRANCH  13  27
TORSDOF 5
ENDMDL
MODEL       75
REMARK 921   NORMALIZED FREE ENERGY PREDICTED BY IDOCK:   -4.62 KCAL/MOL
REMARK 922        TOTAL FREE ENERGY PREDICTED BY IDOCK:   -7.82 KCAL/MOL
REMARK 923 INTER-LIGAND FREE ENERGY PREDICTED BY IDOCK:   -7.38 KCAL/MOL
REMARK 924 INTRA-LIGAND FREE ENERGY PREDICTED BY IDOCK:   -0.43 KCAL/MOL
REMARK 927      BINDING AFFINITY PREDICTED BY RF-SCORE:    0.00 PKD
ROOT
HETATM    1  C   UNL     1     -11.149   8.289  70.206  1.00  0.00    -0.219 C  
HETATM    2  C   UNL     1     -11.996   8.161  71.467  1.00  0.00    -0.334 C  
HETATM    3  C   UNL     1     -12.151   6.620  71.622  1.00  0.00    -0.404 C  
HETATM    4  C   UNL     1     -11.720   6.014  70.294  1.00  0.00     0.129 C  
HETATM    5  N   UNL     1     -11.495   7.147  69.428  1.00  0.00     0.033 N  
HETATM    6  C   UNL     1     -10.760   6.898  68.297  1.00  0.00    -0.214 C  
HETATM    7  O   UNL     1     -10.962   5.853  67.688  1.00  0.00    -0.282 OA 
HETATM    8  C   UNL     1      -9.796   8.059  67.842  1.00  0.00    -0.167 C  
HETATM    9  C   UNL     1     -10.679   9.587  69.436  1.00  0.00    -0.225 C  
HETATM   10  N   UNL     1      -9.431   9.119  68.942  1.00  0.00    -0.150 N  
HETATM   11  C   UNL     1      -8.903  10.385  68.661  1.00  0.00    -0.142 C  
HETATM   12  H   UNL     1     -10.303  11.365  69.978  1.00  0.00     0.000 HD 
HETATM   13  C   UNL     1      -9.901  11.085  67.695  1.00  0.00    -0.172 C  
HETATM   14  O   UNL     1      -7.886  10.817  69.171  1.00  0.00    -0.139 OA 
HETATM   15  O   UNL     1     -10.586  10.584  70.441  1.00  0.00    -0.161 OA 
HETATM   16  O   UNL     1     -11.106  10.222  68.191  1.00  0.00    -0.272 OA 
HETATM   17  C   UNL     1      -7.557  11.370  66.286  1.00  0.00     0.030 C  
HETATM   18  C   UNL     1      -9.570  10.770  64.928  1.00  0.00    -0.307 C  
HETATM   19  C   UNL     1      -9.004  10.773  66.350  1.00  0.00    -0.179 C  
ENDROOT
BRANCH   8  20
HETATM   20  C   UNL     1      -8.657   7.410  67.036  1.00  0.00    -0.119 C  
BRANCH  20  21
HETATM   21  C   UNL     1      -7.350   7.354  67.860  1.00  0.00    -0.093 A  
HETATM   22  C   UNL     1      -5.265   8.510  68.281  1.00  0.00    -0.034 A  
HETATM   23  C   UNL     1      -6.266   7.224  70.033  1.00  0.00    -0.027 A  
HETATM   24  C   UNL     1      -7.276   6.818  69.166  1.00  0.00    -0.091 A  
HETATM   25  C   UNL     1      -5.285   8.101  69.616  1.00  0.00    -0.026 A  
HETATM   26  C   UNL     1      -6.284   8.139  67.409  1.00  0.00    -0.055 A  
ENDBRANCH  20  21
ENDBRANCH   8  20
BRANCH  13  27
HETATM   27  N   UNL     1     -10.205  12.514  67.970  1.00  0.00    -0.218 NA 
HETATM   28  H   UNL     1     -10.877  12.816  68.674  1.00  0.00     0.000 HD 
BRANCH  27  29
HETATM   29  C   UNL     1      -9.538  13.338  67.232  1.00  0.00    -0.234 C  
HETATM   30  H   UNL     1      -9.519  14.329  65.490  1.00  0.00     0.000 HD 
HETATM   31  O   UNL     1     -10.009  13.723  66.032  1.00  0.00    -0.297 OA 
BRANCH  29  32
HETATM   32  C   UNL     1      -8.173  13.978  67.495  1.00  0.00    -0.195 C  
HETATM   33  C   UNL     1      -7.898  15.301  66.785  1.00  0.00    -0.006 C  
HETATM   34  N   UNL     1      -6.680  15.915  67.350  1.00  0.00    -0.182 NA 
HETATM   35  C   UNL     1      -6.790  16.341  68.786  1.00  0.00    -0.151 C  
HETATM   36  C   UNL     1      -6.065  16.881  66.457  1.00  0.00    -0.071 C  
HETATM   37  C   UNL     1      -6.984  17.881  69.054  1.00  0.00    -0.243 C  
HETATM   38  C   UNL     1      -8.344  18.248  68.595  1.00  0.00    -0.305 A  
HETATM   39  C   UNL     1      -8.836  19.204  67.741  1.00  0.00    -0.301 A  
HETATM   40  N   UNL     1     -10.149  18.870  67.467  1.00  0.00    -0.344 NA 
HETATM   41  C   UNL     1     -10.512  17.730  68.157  1.00  0.00    -0.377 A  
HETATM   42  H   UNL     1     -10.764  19.392  66.842  1.00  0.00     0.000 HD 
HETATM   43  C   UNL     1     -11.651  16.925  68.121  1.00  0.00     0.398 A  
HETATM   44  C   UNL     1     -11.629  15.754  68.901  1.00  0.00    -0.400 A  
HETATM   45  C   UNL     1     -10.475  15.335  69.575  1.00  0.00    -0.265 A  
HETATM   46  C   UNL     1      -9.289  16.064  69.436  1.00  0.00    -0.218 A  
HETATM   47  C   UNL     1      -7.882  15.482  69.579  1.00  0.00    -0.194 C  
HETATM   48  C   UNL     1      -9.392  17.343  68.863  1.00  0.00    -0.183 A  
HETATM   49  C   UNL     1      -7.788  14.050  69.007  1.00  0.00     0.023 C  
ENDBRANCH  29  32
ENDBRANCH  27  29
ENDBRANCH  13  27
TORSDOF 5
ENDMDL
MODEL       76
REMARK 921   NORMALIZED FREE ENERGY PREDICTED BY IDOCK:   -4.61 KCAL/MOL
REMARK 922        TOTAL FREE ENERGY PREDICTED BY IDOCK:   -7.80 KCAL/MOL
REMARK 923 INTER-LIGAND FREE ENERGY PREDICTED BY IDOCK:   -9.80 KCAL/MOL
REMARK 924 INTRA-LIGAND FREE ENERGY PREDICTED BY IDOCK:    2.00 KCAL/MOL
REMARK 927      BINDING AFFINITY PREDICTED BY RF-SCORE:    0.00 PKD
ROOT
HETATM    1  C   UNL     1      -7.784  17.129  68.224  1.00  0.00    -0.220 C  
HETATM    2  C   UNL     1      -6.465  17.878  68.377  1.00  0.00    -0.198 C  
HETATM    3  C   UNL     1      -6.927  19.315  68.757  1.00  0.00    -0.365 C  
HETATM    4  C   UNL     1      -8.416  19.379  68.443  1.00  0.00    -0.353 C  
HETATM    5  N   UNL     1      -8.710  18.123  67.795  1.00  0.00    -0.252 N  
HETATM    6  C   UNL     1     -10.036  17.778  67.735  1.00  0.00    -0.345 C  
HETATM    7  O   UNL     1     -10.858  18.655  67.491  1.00  0.00    -0.435 OA 
HETATM    8  C   UNL     1     -10.346  16.240  67.885  1.00  0.00    -0.285 C  
HETATM    9  C   UNL     1      -8.049  15.637  67.776  1.00  0.00    -0.146 C  
HETATM   10  N   UNL     1      -9.216  15.372  68.544  1.00  0.00    -0.191 N  
HETATM   11  C   UNL     1      -9.142  13.977  68.442  1.00  0.00    -0.191 C  
HETATM   12  H   UNL     1      -7.050  14.032  67.920  1.00  0.00     0.000 HD 
HETATM   13  C   UNL     1      -9.124  13.637  66.924  1.00  0.00    -0.240 C  
HETATM   14  O   UNL     1      -9.041  13.238  69.403  1.00  0.00     0.720 OA 
HETATM   15  O   UNL     1      -6.891  14.929  68.189  1.00  0.00    -0.107 OA 
HETATM   16  O   UNL     1      -8.543  15.035  66.539  1.00  0.00    -0.253 OA 
HETATM   17  C   UNL     1     -11.193  12.036  67.771  1.00  0.00    -0.331 C  
HETATM   18  C   UNL     1     -11.556  13.210  65.593  1.00  0.00    -0.371 C  
HETATM   19  C   UNL     1     -10.719  13.230  66.875  1.00  0.00    -0.274 C  
ENDROOT
BRANCH   8  20
HETATM   20  C   UNL     1     -11.781  16.120  68.430  1.00  0.00    -0.126 C  
BRANCH  20  21
HETATM   21  C   UNL     1     -11.794  15.457  69.826  1.00  0.00    -0.367 A  
HETATM   22  C   UNL     1     -11.901  15.922  72.200  1.00  0.00    -0.615 A  
HETATM   23  C   UNL     1     -12.807  13.871  71.366  1.00  0.00    -0.439 A  
HETATM   24  C   UNL     1     -12.376  14.194  70.084  1.00  0.00    -0.413 A  
HETATM   25  C   UNL     1     -12.615  14.743  72.419  1.00  0.00    -0.421 A  
HETATM   26  C   UNL     1     -11.490  16.277  70.918  1.00  0.00    -0.336 A  
ENDBRANCH  20  21
ENDBRANCH   8  20
BRANCH  13  27
HETATM   27  N   UNL     1      -8.162  12.593  66.485  1.00  0.00    -0.391 NA 
HETATM   28  H   UNL     1      -8.267  12.067  65.618  1.00  0.00     0.000 HD 
BRANCH  27  29
HETATM   29  C   UNL     1      -7.179  12.415  67.304  1.00  0.00    -0.125 C  
HETATM   30  H   UNL     1      -5.293  12.938  67.738  1.00  0.00     0.000 HD 
HETATM   31  O   UNL     1      -6.016  13.069  67.135  1.00  0.00    -0.326 OA 
BRANCH  29  32
HETATM   32  C   UNL     1      -7.091  11.482  68.514  1.00  0.00    -0.087 C  
HETATM   33  C   UNL     1      -8.348  10.678  68.841  1.00  0.00    -0.150 C  
HETATM   34  N   UNL     1      -8.019   9.642  69.840  1.00  0.00    -0.148 NA 
HETATM   35  C   UNL     1      -7.074   8.577  69.363  1.00  0.00    -0.054 C  
HETATM   36  C   UNL     1      -9.181   9.166  70.568  1.00  0.00    -0.241 C  
HETATM   37  C   UNL     1      -7.708   7.184  68.990  1.00  0.00    -0.109 C  
HETATM   38  C   UNL     1      -8.498   7.370  67.750  1.00  0.00    -0.118 A  
HETATM   39  C   UNL     1      -9.796   7.095  67.397  1.00  0.00    -0.155 A  
HETATM   40  N   UNL     1     -10.048   7.767  66.215  1.00  0.00    -0.468 NA 
HETATM   41  C   UNL     1      -8.920   8.443  65.793  1.00  0.00    -0.159 A  
HETATM   42  H   UNL     1     -10.942   7.763  65.724  1.00  0.00     0.000 HD 
HETATM   43  C   UNL     1      -8.696   9.356  64.762  1.00  0.00    -0.227 A  
HETATM   44  C   UNL     1      -7.418   9.940  64.695  1.00  0.00    -0.140 A  
HETATM   45  C   UNL     1      -6.454   9.728  65.689  1.00  0.00    -0.082 A  
HETATM   46  C   UNL     1      -6.775   8.959  66.812  1.00  0.00    -0.072 A  
HETATM   47  C   UNL     1      -6.126   9.105  68.188  1.00  0.00    -0.050 C  
HETATM   48  C   UNL     1      -7.953   8.195  66.744  1.00  0.00    -0.103 A  
HETATM   49  C   UNL     1      -5.816  10.580  68.528  1.00  0.00    -0.040 C  
ENDBRANCH  29  32
ENDBRANCH  27  29
ENDBRANCH  13  27
TORSDOF 5
ENDMDL
MODEL       77
REMARK 921   NORMALIZED FREE ENERGY PREDICTED BY IDOCK:   -4.60 KCAL/MOL
REMARK 922        TOTAL FREE ENERGY PREDICTED BY IDOCK:   -7.79 KCAL/MOL
REMARK 923 INTER-LIGAND FREE ENERGY PREDICTED BY IDOCK:   -7.28 KCAL/MOL
REMARK 924 INTRA-LIGAND FREE ENERGY PREDICTED BY IDOCK:   -0.50 KCAL/MOL
REMARK 927      BINDING AFFINITY PREDICTED BY RF-SCORE:    0.00 PKD
ROOT
HETATM    1  C   UNL     1     -11.121  11.952  65.137  1.00  0.00    -0.305 C  
HETATM    2  C   UNL     1     -12.468  12.540  64.734  1.00  0.00    -0.532 C  
HETATM    3  C   UNL     1     -12.799  11.774  63.420  1.00  0.00    -0.310 C  
HETATM    4  C   UNL     1     -11.504  11.103  62.982  1.00  0.00     0.729 C  
HETATM    5  N   UNL     1     -10.506  11.593  63.903  1.00  0.00    -0.341 N  
HETATM    6  C   UNL     1      -9.338  10.876  63.955  1.00  0.00    -0.240 C  
HETATM    7  O   UNL     1      -8.865  10.452  62.906  1.00  0.00    -0.182 OA 
HETATM    8  C   UNL     1      -8.668  10.770  65.378  1.00  0.00    -0.181 C  
HETATM    9  C   UNL     1     -10.175  12.335  66.344  1.00  0.00    -0.225 C  
HETATM   10  N   UNL     1      -9.608  11.057  66.603  1.00  0.00    -0.186 N  
HETATM   11  C   UNL     1      -9.144  11.363  67.888  1.00  0.00    -0.164 C  
HETATM   12  H   UNL     1     -10.487  13.040  68.076  1.00  0.00     0.000 HD 
HETATM   13  C   UNL     1      -8.217  12.605  67.749  1.00  0.00    -0.171 C  
HETATM   14  O   UNL     1      -9.499  10.770  68.890  1.00  0.00    -0.179 OA 
HETATM   15  O   UNL     1     -11.056  12.810  67.350  1.00  0.00    -0.255 OA 
HETATM   16  O   UNL     1      -8.921  13.079  66.437  1.00  0.00    -0.133 OA 
HETATM   17  C   UNL     1      -6.554  10.888  69.108  1.00  0.00    -0.069 C  
HETATM   18  C   UNL     1      -5.479  12.217  67.283  1.00  0.00    -0.113 C  
HETATM   19  C   UNL     1      -6.827  11.723  67.812  1.00  0.00    -0.090 C  
ENDROOT
BRANCH   8  20
HETATM   20  C   UNL     1      -7.822   9.484  65.383  1.00  0.00    -0.109 C  
BRANCH  20  21
HETATM   21  C   UNL     1      -8.514   8.362  66.190  1.00  0.00    -0.139 A  
HETATM   22  C   UNL     1      -8.560   7.263  68.347  1.00  0.00    -0.124 A  
HETATM   23  C   UNL     1     -10.567   7.382  67.050  1.00  0.00    -0.414 A  
HETATM   24  C   UNL     1      -9.870   8.001  66.017  1.00  0.00     0.083 A  
HETATM   25  C   UNL     1      -9.935   7.050  68.231  1.00  0.00    -0.165 A  
HETATM   26  C   UNL     1      -7.853   7.909  67.337  1.00  0.00    -0.121 A  
ENDBRANCH  20  21
ENDBRANCH   8  20
BRANCH  13  27
HETATM   27  N   UNL     1      -8.371  13.671  68.773  1.00  0.00    -0.342 NA 
HETATM   28  H   UNL     1      -8.627  13.481  69.742  1.00  0.00     0.000 HD 
BRANCH  27  29
HETATM   29  C   UNL     1      -8.149  14.861  68.322  1.00  0.00    -0.132 C  
HETATM   30  H   UNL     1      -7.722  15.938  66.687  1.00  0.00     0.000 HD 
HETATM   31  O   UNL     1      -7.885  15.063  67.019  1.00  0.00    -0.209 OA 
BRANCH  29  32
HETATM   32  C   UNL     1      -8.094  16.185  69.086  1.00  0.00    -0.230 C  
HETATM   33  C   UNL     1      -7.766  17.429  68.262  1.00  0.00    -0.241 C  
HETATM   34  N   UNL     1      -8.023  18.635  69.073  1.00  0.00    -0.201 NA 
HETATM   35  C   UNL     1      -9.463  18.863  69.435  1.00  0.00     0.103 C  
HETATM   36  C   UNL     1      -7.306  19.803  68.596  1.00  0.00    -0.307 C  
HETATM   37  C   UNL     1     -10.232  19.965  68.615  1.00  0.00    -0.494 C  
HETATM   38  C   UNL     1     -10.414  19.452  67.236  1.00  0.00    -0.579 A  
HETATM   39  C   UNL     1     -10.118  19.943  65.989  1.00  0.00    -0.487 A  
HETATM   40  N   UNL     1     -10.236  18.894  65.098  1.00  0.00     0.376 NA 
HETATM   41  C   UNL     1     -10.633  17.744  65.754  1.00  0.00    -0.175 A  
HETATM   42  H   UNL     1     -10.056  18.959  64.095  1.00  0.00     0.000 HD 
HETATM   43  C   UNL     1     -10.760  16.418  65.342  1.00  0.00    -0.310 A  
HETATM   44  C   UNL     1     -11.090  15.473  66.332  1.00  0.00    -0.174 A  
HETATM   45  C   UNL     1     -11.156  15.814  67.689  1.00  0.00    -0.283 A  
HETATM   46  C   UNL     1     -10.835  17.114  68.092  1.00  0.00    -0.316 A  
HETATM   47  C   UNL     1     -10.291  17.495  69.469  1.00  0.00     0.052 C  
HETATM   48  C   UNL     1     -10.748  18.089  67.083  1.00  0.00    -0.276 A  
HETATM   49  C   UNL     1      -9.321  16.428  70.023  1.00  0.00     0.874 C  
ENDBRANCH  29  32
ENDBRANCH  27  29
ENDBRANCH  13  27
TORSDOF 5
ENDMDL
MODEL       78
REMARK 921   NORMALIZED FREE ENERGY PREDICTED BY IDOCK:   -4.51 KCAL/MOL
REMARK 922        TOTAL FREE ENERGY PREDICTED BY IDOCK:   -7.67 KCAL/MOL
REMARK 923 INTER-LIGAND FREE ENERGY PREDICTED BY IDOCK:   -7.49 KCAL/MOL
REMARK 924 INTRA-LIGAND FREE ENERGY PREDICTED BY IDOCK:   -0.18 KCAL/MOL
REMARK 927      BINDING AFFINITY PREDICTED BY RF-SCORE:    0.00 PKD
ROOT
HETATM    1  C   UNL     1      -7.325   6.853  69.351  1.00  0.00    -0.091 C  
HETATM    2  C   UNL     1      -7.540   6.864  70.860  1.00  0.00    -0.087 C  
HETATM    3  C   UNL     1      -7.314   5.376  71.252  1.00  0.00    -0.084 C  
HETATM    4  C   UNL     1      -7.354   4.583  69.952  1.00  0.00    -0.050 C  
HETATM    5  N   UNL     1      -7.728   5.548  68.945  1.00  0.00    -0.090 N  
HETATM    6  C   UNL     1      -7.487   5.179  67.646  1.00  0.00    -0.083 C  
HETATM    7  O   UNL     1      -7.711   4.020  67.316  1.00  0.00    -0.082 OA 
HETATM    8  C   UNL     1      -7.039   6.343  66.681  1.00  0.00    -0.069 C  
HETATM    9  C   UNL     1      -7.474   8.026  68.303  1.00  0.00    -0.100 C  
HETATM   10  N   UNL     1      -6.471   7.631  67.376  1.00  0.00    -0.057 N  
HETATM   11  C   UNL     1      -6.362   8.876  66.743  1.00  0.00    -0.059 C  
HETATM   12  H   UNL     1      -7.264   9.908  68.409  1.00  0.00     0.000 HD 
HETATM   13  C   UNL     1      -7.784   9.247  66.231  1.00  0.00    -0.096 C  
HETATM   14  O   UNL     1      -5.331   9.522  66.703  1.00  0.00    -0.043 OA 
HETATM   15  O   UNL     1      -7.175   9.202  69.039  1.00  0.00    -0.069 OA 
HETATM   16  O   UNL     1      -8.487   8.352  67.301  1.00  0.00    -0.121 OA 
HETATM   17  C   UNL     1      -6.325   9.546  63.919  1.00  0.00    -0.099 C  
HETATM   18  C   UNL     1      -8.557   8.449  63.656  1.00  0.00     0.112 C  
HETATM   19  C   UNL     1      -7.472   8.796  64.678  1.00  0.00    -0.104 C  
ENDROOT
BRANCH   8  20
HETATM   20  C   UNL     1      -6.226   5.698  65.544  1.00  0.00    -0.034 C  
BRANCH  20  21
HETATM   21  C   UNL     1      -7.143   5.263  64.378  1.00  0.00    -0.050 A  
HETATM   22  C   UNL     1      -7.222   3.931  62.358  1.00  0.00    -0.036 A  
HETATM   23  C   UNL     1      -9.221   4.242  63.635  1.00  0.00    -0.138 A  
HETATM   24  C   UNL     1      -8.539   5.081  64.511  1.00  0.00    -0.143 A  
HETATM   25  C   UNL     1      -8.566   3.629  62.586  1.00  0.00    -0.082 A  
HETATM   26  C   UNL     1      -6.516   4.742  63.241  1.00  0.00    -0.026 A  
ENDBRANCH  20  21
ENDBRANCH   8  20
BRANCH  13  27
HETATM   27  N   UNL     1      -8.221  10.653  66.436  1.00  0.00    -0.140 NA 
HETATM   28  H   UNL     1      -7.763  11.449  65.994  1.00  0.00     0.000 HD 
BRANCH  27  29
HETATM   29  C   UNL     1      -9.237  10.771  67.225  1.00  0.00    -0.147 C  
HETATM   30  H   UNL     1     -11.031  10.019  67.708  1.00  0.00     0.000 HD 
HETATM   31  O   UNL     1     -10.284   9.933  67.127  1.00  0.00    -0.202 OA 
BRANCH  29  32
HETATM   32  C   UNL     1      -9.490  11.809  68.320  1.00  0.00    -0.193 C  
HETATM   33  C   UNL     1      -8.927  13.207  68.070  1.00  0.00    -0.195 C  
HETATM   34  N   UNL     1      -9.486  14.144  69.065  1.00  0.00    -0.015 NA 
HETATM   35  C   UNL     1     -10.966  14.373  68.961  1.00  0.00    -0.256 C  
HETATM   36  C   UNL     1      -8.679  15.338  69.235  1.00  0.00    -0.237 C  
HETATM   37  C   UNL     1     -11.428  15.724  68.296  1.00  0.00    -0.338 C  
HETATM   38  C   UNL     1     -11.101  15.647  66.852  1.00  0.00    -0.181 A  
HETATM   39  C   UNL     1     -10.398  16.452  65.991  1.00  0.00    -0.352 A  
HETATM   40  N   UNL     1     -10.168  15.719  64.843  1.00  0.00    -0.503 NA 
HETATM   41  C   UNL     1     -10.738  14.464  64.947  1.00  0.00    -0.426 A  
HETATM   42  H   UNL     1      -9.649  16.055  64.031  1.00  0.00     0.000 HD 
HETATM   43  C   UNL     1     -10.677  13.328  64.141  1.00  0.00    -0.350 A  
HETATM   44  C   UNL     1     -11.308  12.167  64.627  1.00  0.00    -0.382 A  
HETATM   45  C   UNL     1     -11.855  12.106  65.915  1.00  0.00    -0.342 A  
HETATM   46  C   UNL     1     -11.731  13.204  66.772  1.00  0.00    -0.439 A  
HETATM   47  C   UNL     1     -11.716  13.125  68.299  1.00  0.00    -0.384 C  
HETATM   48  C   UNL     1     -11.322  14.419  66.195  1.00  0.00    -0.350 A  
HETATM   49  C   UNL     1     -10.974  11.869  68.806  1.00  0.00    -0.280 C  
ENDBRANCH  29  32
ENDBRANCH  27  29
ENDBRANCH  13  27
TORSDOF 5
ENDMDL
MODEL       79
REMARK 921   NORMALIZED FREE ENERGY PREDICTED BY IDOCK:   -4.49 KCAL/MOL
REMARK 922        TOTAL FREE ENERGY PREDICTED BY IDOCK:   -7.65 KCAL/MOL
REMARK 923 INTER-LIGAND FREE ENERGY PREDICTED BY IDOCK:   -7.11 KCAL/MOL
REMARK 924 INTRA-LIGAND FREE ENERGY PREDICTED BY IDOCK:   -0.54 KCAL/MOL
REMARK 927      BINDING AFFINITY PREDICTED BY RF-SCORE:    0.00 PKD
ROOT
HETATM    1  C   UNL     1      -8.917   4.616  65.374  1.00  0.00    -0.145 C  
HETATM    2  C   UNL     1     -10.076   3.820  64.786  1.00  0.00    -0.172 C  
HETATM    3  C   UNL     1      -9.394   2.493  64.344  1.00  0.00    -0.135 C  
HETATM    4  C   UNL     1      -7.895   2.759  64.365  1.00  0.00    -0.078 C  
HETATM    5  N   UNL     1      -7.775   4.170  64.649  1.00  0.00    -0.080 N  
HETATM    6  C   UNL     1      -6.542   4.591  65.075  1.00  0.00    -0.044 C  
HETATM    7  O   UNL     1      -5.545   4.116  64.541  1.00  0.00    -0.013 OA 
HETATM    8  C   UNL     1      -6.551   5.741  66.153  1.00  0.00    -0.051 C  
HETATM    9  C   UNL     1      -8.894   6.090  65.945  1.00  0.00    -0.149 C  
HETATM   10  N   UNL     1      -7.894   5.931  66.943  1.00  0.00    -0.101 N  
HETATM   11  C   UNL     1      -8.222   7.089  67.660  1.00  0.00    -0.117 C  
HETATM   12  H   UNL     1     -10.192   7.186  66.787  1.00  0.00     0.000 HD 
HETATM   13  C   UNL     1      -8.132   8.278  66.661  1.00  0.00    -0.102 C  
HETATM   14  O   UNL     1      -8.571   7.081  68.826  1.00  0.00    -0.125 OA 
HETATM   15  O   UNL     1     -10.205   6.300  66.444  1.00  0.00    -0.124 OA 
HETATM   16  O   UNL     1      -8.388   7.358  65.424  1.00  0.00    -0.132 OA 
HETATM   17  C   UNL     1      -6.518   9.203  68.686  1.00  0.00    -0.053 C  
HETATM   18  C   UNL     1      -5.692   9.629  66.364  1.00  0.00    -0.053 C  
HETATM   19  C   UNL     1      -6.650   8.765  67.188  1.00  0.00    -0.062 C  
ENDROOT
BRANCH   8  20
HETATM   20  C   UNL     1      -5.237   5.626  66.947  1.00  0.00    -0.005 C  
BRANCH  20  21
HETATM   21  C   UNL     1      -5.508   5.258  68.424  1.00  0.00    -0.011 A  
HETATM   22  C   UNL     1      -5.709   6.181  70.653  1.00  0.00    -0.018 A  
HETATM   23  C   UNL     1      -6.961   4.226  70.078  1.00  0.00    -0.041 A  
HETATM   24  C   UNL     1      -6.366   4.207  68.820  1.00  0.00    -0.033 A  
HETATM   25  C   UNL     1      -6.675   5.229  70.982  1.00  0.00    -0.043 A  
HETATM   26  C   UNL     1      -5.127   6.197  69.388  1.00  0.00    -0.005 A  
ENDBRANCH  20  21
ENDBRANCH   8  20
BRANCH  13  27
HETATM   27  N   UNL     1      -9.221   9.288  66.726  1.00  0.00    -0.142 NA 
HETATM   28  H   UNL     1     -10.210   9.042  66.731  1.00  0.00     0.000 HD 
BRANCH  27  29
HETATM   29  C   UNL     1      -8.796  10.507  66.775  1.00  0.00    -0.131 C  
HETATM   30  H   UNL     1      -7.774  11.925  65.795  1.00  0.00     0.000 HD 
HETATM   31  O   UNL     1      -8.086  11.029  65.759  1.00  0.00    -0.135 OA 
BRANCH  29  32
HETATM   32  C   UNL     1      -8.944  11.533  67.900  1.00  0.00    -0.159 C  
HETATM   33  C   UNL     1      -8.532  12.965  67.568  1.00  0.00    -0.186 C  
HETATM   34  N   UNL     1      -8.989  13.868  68.644  1.00  0.00    -0.131 NA 
HETATM   35  C   UNL     1     -10.479  13.989  68.781  1.00  0.00    -0.233 C  
HETATM   36  C   UNL     1      -8.254  15.119  68.685  1.00  0.00    -0.154 C  
HETATM   37  C   UNL     1     -11.139  15.297  68.204  1.00  0.00    -0.309 C  
HETATM   38  C   UNL     1     -11.044  15.233  66.726  1.00  0.00    -0.278 A  
HETATM   39  C   UNL     1     -10.550  16.080  65.766  1.00  0.00    -0.353 A  
HETATM   40  N   UNL     1     -10.455  15.355  64.593  1.00  0.00    -0.576 NA 
HETATM   41  C   UNL     1     -10.909  14.064  64.783  1.00  0.00    -0.419 A  
HETATM   42  H   UNL     1     -10.100  15.722  63.709  1.00  0.00     0.000 HD 
HETATM   43  C   UNL     1     -10.896  12.929  63.974  1.00  0.00    -0.443 A  
HETATM   44  C   UNL     1     -11.355  11.730  64.550  1.00  0.00    -0.349 A  
HETATM   45  C   UNL     1     -11.681  11.639  65.910  1.00  0.00     0.035 A  
HETATM   46  C   UNL     1     -11.501  12.750  66.740  1.00  0.00    -0.399 A  
HETATM   47  C   UNL     1     -11.234  12.684  68.244  1.00  0.00    -0.312 C  
HETATM   48  C   UNL     1     -11.279  13.986  66.109  1.00  0.00    -0.318 A  
HETATM   49  C   UNL     1     -10.330  11.489  68.620  1.00  0.00    -0.226 C  
ENDBRANCH  29  32
ENDBRANCH  27  29
ENDBRANCH  13  27
TORSDOF 5
ENDMDL
MODEL       80
REMARK 921   NORMALIZED FREE ENERGY PREDICTED BY IDOCK:   -4.47 KCAL/MOL
REMARK 922        TOTAL FREE ENERGY PREDICTED BY IDOCK:   -7.62 KCAL/MOL
REMARK 923 INTER-LIGAND FREE ENERGY PREDICTED BY IDOCK:   -6.45 KCAL/MOL
REMARK 924 INTRA-LIGAND FREE ENERGY PREDICTED BY IDOCK:   -1.17 KCAL/MOL
REMARK 927      BINDING AFFINITY PREDICTED BY RF-SCORE:    0.00 PKD
ROOT
HETATM    1  C   UNL     1      -8.419   5.558  70.635  1.00  0.00    -0.121 C  
HETATM    2  C   UNL     1      -8.761   5.656  72.118  1.00  0.00    -0.133 C  
HETATM    3  C   UNL     1      -9.306   4.234  72.440  1.00  0.00    -0.158 C  
HETATM    4  C   UNL     1      -9.578   3.569  71.097  1.00  0.00    -0.170 C  
HETATM    5  N   UNL     1      -9.344   4.606  70.119  1.00  0.00    -0.129 N  
HETATM    6  C   UNL     1      -9.170   4.179  68.828  1.00  0.00    -0.146 C  
HETATM    7  O   UNL     1      -9.879   3.269  68.412  1.00  0.00    -0.029 OA 
HETATM    8  C   UNL     1      -8.128   5.000  67.975  1.00  0.00    -0.093 C  
HETATM    9  C   UNL     1      -7.885   6.672  69.649  1.00  0.00    -0.115 C  
HETATM   10  N   UNL     1      -7.097   5.857  68.792  1.00  0.00    -0.078 N  
HETATM   11  C   UNL     1      -6.347   6.907  68.245  1.00  0.00    -0.035 C  
HETATM   12  H   UNL     1      -6.826   8.226  69.882  1.00  0.00     0.000 HD 
HETATM   13  C   UNL     1      -7.363   7.913  67.633  1.00  0.00    -0.096 C  
HETATM   14  O   UNL     1      -5.136   6.985  68.334  1.00  0.00    -0.014 OA 
HETATM   15  O   UNL     1      -7.147   7.557  70.476  1.00  0.00    -0.054 OA 
HETATM   16  O   UNL     1      -8.513   7.449  68.583  1.00  0.00    -0.128 OA 
HETATM   17  C   UNL     1      -5.702   7.506  65.480  1.00  0.00    -0.037 C  
HETATM   18  C   UNL     1      -8.145   7.604  64.957  1.00  0.00    -0.133 C  
HETATM   19  C   UNL     1      -7.139   7.384  66.089  1.00  0.00    -0.069 C  
ENDROOT
BRANCH   8  20
HETATM   20  C   UNL     1      -7.601   4.057  66.878  1.00  0.00    -0.084 C  
BRANCH  20  21
HETATM   21  C   UNL     1      -8.427   4.195  65.579  1.00  0.00    -0.110 A  
HETATM   22  C   UNL     1      -8.715   3.289  63.352  1.00  0.00    -0.089 A  
HETATM   23  C   UNL     1     -10.601   4.224  64.489  1.00  0.00    -0.110 A  
HETATM   24  C   UNL     1      -9.785   4.586  65.557  1.00  0.00    -0.204 A  
HETATM   25  C   UNL     1     -10.087   3.539  63.406  1.00  0.00    -0.185 A  
HETATM   26  C   UNL     1      -7.889   3.616  64.425  1.00  0.00    -0.085 A  
ENDBRANCH  20  21
ENDBRANCH   8  20
BRANCH  13  27
HETATM   27  N   UNL     1      -7.105   9.356  67.880  1.00  0.00    -0.080 NA 
HETATM   28  H   UNL     1      -6.278   9.842  67.535  1.00  0.00     0.000 HD 
BRANCH  27  29
HETATM   29  C   UNL     1      -8.027   9.937  68.574  1.00  0.00    -0.086 C  
HETATM   30  H   UNL     1      -8.411  10.961  70.253  1.00  0.00     0.000 HD 
HETATM   31  O   UNL     1      -7.733  10.534  69.743  1.00  0.00    -0.149 OA 
BRANCH  29  32
HETATM   32  C   UNL     1      -9.526  10.041  68.288  1.00  0.00    -0.147 C  
HETATM   33  C   UNL     1     -10.334  10.934  69.227  1.00  0.00    -0.187 C  
HETATM   34  N   UNL     1     -11.680  11.148  68.661  1.00  0.00    -0.404 NA 
HETATM   35  C   UNL     1     -11.714  11.925  67.376  1.00  0.00    -0.256 C  
HETATM   36  C   UNL     1     -12.658  11.546  69.657  1.00  0.00     0.111 C  
HETATM   37  C   UNL     1     -12.155  13.433  67.472  1.00  0.00    -0.323 C  
HETATM   38  C   UNL     1     -11.074  14.173  68.165  1.00  0.00    -0.276 A  
HETATM   39  C   UNL     1     -11.035  15.000  69.260  1.00  0.00    -0.264 A  
HETATM   40  N   UNL     1      -9.708  15.144  69.616  1.00  0.00    -0.429 NA 
HETATM   41  C   UNL     1      -8.895  14.443  68.746  1.00  0.00    -0.131 A  
HETATM   42  H   UNL     1      -9.375  15.691  70.410  1.00  0.00     0.000 HD 
HETATM   43  C   UNL     1      -7.529  14.162  68.749  1.00  0.00    -0.129 A  
HETATM   44  C   UNL     1      -7.052  13.306  67.739  1.00  0.00    -0.149 A  
HETATM   45  C   UNL     1      -7.919  12.653  66.852  1.00  0.00     0.019 A  
HETATM   46  C   UNL     1      -9.301  12.807  66.997  1.00  0.00    -0.229 A  
HETATM   47  C   UNL     1     -10.346  11.781  66.558  1.00  0.00    -0.258 C  
HETATM   48  C   UNL     1      -9.742  13.841  67.841  1.00  0.00    -0.229 A  
HETATM   49  C   UNL     1      -9.866  10.331  66.790  1.00  0.00    -0.246 C  
ENDBRANCH  29  32
ENDBRANCH  27  29
ENDBRANCH  13  27
TORSDOF 5
ENDMDL
MODEL       81
REMARK 921   NORMALIZED FREE ENERGY PREDICTED BY IDOCK:   -4.41 KCAL/MOL
REMARK 922        TOTAL FREE ENERGY PREDICTED BY IDOCK:   -7.54 KCAL/MOL
REMARK 923 INTER-LIGAND FREE ENERGY PREDICTED BY IDOCK:   -7.71 KCAL/MOL
REMARK 924 INTRA-LIGAND FREE ENERGY PREDICTED BY IDOCK:    0.17 KCAL/MOL
REMARK 927      BINDING AFFINITY PREDICTED BY RF-SCORE:    0.00 PKD
ROOT
HETATM    1  C   UNL     1     -12.085   8.467  70.797  1.00  0.00    -0.061 C  
HETATM    2  C   UNL     1     -12.560   7.266  71.606  1.00  0.00    -0.403 C  
HETATM    3  C   UNL     1     -13.897   7.772  72.221  1.00  0.00    -0.081 C  
HETATM    4  C   UNL     1     -13.905   9.283  72.035  1.00  0.00    -0.382 C  
HETATM    5  N   UNL     1     -12.602   9.595  71.498  1.00  0.00    -0.363 N  
HETATM    6  C   UNL     1     -12.478  10.827  70.908  1.00  0.00    -0.402 C  
HETATM    7  O   UNL     1     -13.028  11.786  71.438  1.00  0.00    -0.398 OA 
HETATM    8  C   UNL     1     -11.533  10.885  69.648  1.00  0.00    -0.305 C  
HETATM    9  C   UNL     1     -10.750   8.664  69.974  1.00  0.00    -0.228 C  
HETATM   10  N   UNL     1     -11.241   9.512  68.944  1.00  0.00    -0.003 N  
HETATM   11  C   UNL     1     -10.175   9.298  68.061  1.00  0.00    -0.209 C  
HETATM   12  H   UNL     1      -9.594   7.475  69.055  1.00  0.00     0.000 HD 
HETATM   13  C   UNL     1      -8.875   9.683  68.824  1.00  0.00    -0.130 C  
HETATM   14  O   UNL     1     -10.309   8.829  66.947  1.00  0.00    -0.271 OA 
HETATM   15  O   UNL     1     -10.397   7.357  69.551  1.00  0.00    -0.205 OA 
HETATM   16  O   UNL     1      -9.524   9.419  70.220  1.00  0.00    -0.215 OA 
HETATM   17  C   UNL     1      -8.586  11.197  66.547  1.00  0.00    -0.169 C  
HETATM   18  C   UNL     1      -7.943  12.325  68.684  1.00  0.00    -0.050 C  
HETATM   19  C   UNL     1      -8.747  11.159  68.104  1.00  0.00    -0.144 C  
ENDROOT
BRANCH   8  20
HETATM   20  C   UNL     1     -12.004  12.071  68.786  1.00  0.00    -0.299 C  
BRANCH  20  21
HETATM   21  C   UNL     1     -11.559  13.418  69.399  1.00  0.00    -0.365 A  
HETATM   22  C   UNL     1     -10.251  15.411  68.975  1.00  0.00    -0.233 A  
HETATM   23  C   UNL     1     -12.166  15.549  70.401  1.00  0.00    -0.443 A  
HETATM   24  C   UNL     1     -12.364  14.178  70.279  1.00  0.00    -0.421 A  
HETATM   25  C   UNL     1     -11.144  16.181  69.721  1.00  0.00    -0.350 A  
HETATM   26  C   UNL     1     -10.451  14.042  68.816  1.00  0.00    -0.238 A  
ENDBRANCH  20  21
ENDBRANCH   8  20
BRANCH  13  27
HETATM   27  N   UNL     1      -7.713   8.769  68.667  1.00  0.00    -0.097 NA 
HETATM   28  H   UNL     1      -7.716   7.967  68.038  1.00  0.00     0.000 HD 
BRANCH  27  29
HETATM   29  C   UNL     1      -6.699   9.086  69.402  1.00  0.00    -0.048 C  
HETATM   30  H   UNL     1      -4.807   9.746  69.385  1.00  0.00     0.000 HD 
HETATM   31  O   UNL     1      -5.553   9.512  68.844  1.00  0.00    -0.037 OA 
BRANCH  29  32
HETATM   32  C   UNL     1      -6.556   9.020  70.924  1.00  0.00    -0.068 C  
HETATM   33  C   UNL     1      -7.661   8.283  71.677  1.00  0.00    -0.101 C  
HETATM   34  N   UNL     1      -7.241   8.068  73.076  1.00  0.00    -0.099 NA 
HETATM   35  C   UNL     1      -6.067   7.148  73.253  1.00  0.00    -0.057 C  
HETATM   36  C   UNL     1      -8.357   7.836  73.974  1.00  0.00    -0.234 C  
HETATM   37  C   UNL     1      -6.382   5.684  73.739  1.00  0.00    -0.068 C  
HETATM   38  C   UNL     1      -7.066   4.980  72.628  1.00  0.00    -0.083 A  
HETATM   39  C   UNL     1      -8.245   4.287  72.522  1.00  0.00    -0.100 A  
HETATM   40  N   UNL     1      -8.503   4.123  71.174  1.00  0.00    -0.083 NA 
HETATM   41  C   UNL     1      -7.489   4.677  70.417  1.00  0.00    -0.050 A  
HETATM   42  H   UNL     1      -9.327   3.657  70.792  1.00  0.00     0.000 HD 
HETATM   43  C   UNL     1      -7.342   4.893  69.046  1.00  0.00    -0.054 A  
HETATM   44  C   UNL     1      -6.199   5.601  68.631  1.00  0.00    -0.033 A  
HETATM   45  C   UNL     1      -5.316   6.184  69.549  1.00  0.00    -0.012 A  
HETATM   46  C   UNL     1      -5.595   6.114  70.918  1.00  0.00    -0.018 A  
HETATM   47  C   UNL     1      -5.125   7.130  71.960  1.00  0.00    -0.032 C  
HETATM   48  C   UNL     1      -6.592   5.209  71.319  1.00  0.00    -0.039 A  
HETATM   49  C   UNL     1      -5.139   8.573  71.408  1.00  0.00    -0.029 C  
ENDBRANCH  29  32
ENDBRANCH  27  29
ENDBRANCH  13  27
TORSDOF 5
ENDMDL
MODEL       82
REMARK 921   NORMALIZED FREE ENERGY PREDICTED BY IDOCK:   -4.40 KCAL/MOL
REMARK 922        TOTAL FREE ENERGY PREDICTED BY IDOCK:   -7.53 KCAL/MOL
REMARK 923 INTER-LIGAND FREE ENERGY PREDICTED BY IDOCK:   -7.30 KCAL/MOL
REMARK 924 INTRA-LIGAND FREE ENERGY PREDICTED BY IDOCK:   -0.23 KCAL/MOL
REMARK 927      BINDING AFFINITY PREDICTED BY RF-SCORE:    0.00 PKD
ROOT
HETATM    1  C   UNL     1      -9.492   4.982  67.519  1.00  0.00    -0.135 C  
HETATM    2  C   UNL     1      -9.961   4.538  66.138  1.00  0.00    -0.267 C  
HETATM    3  C   UNL     1      -8.961   3.400  65.784  1.00  0.00    -0.143 C  
HETATM    4  C   UNL     1      -7.812   3.521  66.775  1.00  0.00    -0.080 C  
HETATM    5  N   UNL     1      -8.090   4.728  67.517  1.00  0.00    -0.101 N  
HETATM    6  C   UNL     1      -7.412   4.873  68.699  1.00  0.00    -0.069 C  
HETATM    7  O   UNL     1      -6.233   4.537  68.742  1.00  0.00    -0.029 OA 
HETATM    8  C   UNL     1      -8.215   5.570  69.863  1.00  0.00    -0.105 C  
HETATM    9  C   UNL     1     -10.024   6.155  68.435  1.00  0.00    -0.140 C  
HETATM   10  N   UNL     1      -9.778   5.577  69.710  1.00  0.00    -0.164 N  
HETATM   11  C   UNL     1     -10.628   6.433  70.422  1.00  0.00    -0.241 C  
HETATM   12  H   UNL     1     -11.714   6.988  68.643  1.00  0.00     0.000 HD 
HETATM   13  C   UNL     1     -10.154   7.885  70.129  1.00  0.00    -0.194 C  
HETATM   14  O   UNL     1     -11.583   6.045  71.070  1.00  0.00    -0.253 OA 
HETATM   15  O   UNL     1     -11.395   6.282  68.093  1.00  0.00    -0.278 OA 
HETATM   16  O   UNL     1      -9.505   7.481  68.767  1.00  0.00    -0.148 OA 
HETATM   17  C   UNL     1     -10.172   7.909  72.879  1.00  0.00    -0.397 C  
HETATM   18  C   UNL     1      -8.228   9.054  71.800  1.00  0.00     0.073 C  
HETATM   19  C   UNL     1      -9.344   8.036  71.555  1.00  0.00    -0.196 C  
ENDROOT
BRANCH   8  20
HETATM   20  C   UNL     1      -7.606   5.078  71.189  1.00  0.00    -0.086 C  
BRANCH  20  21
HETATM   21  C   UNL     1      -8.346   3.827  71.714  1.00  0.00    -0.083 A  
HETATM   22  C   UNL     1     -10.000   3.074  73.314  1.00  0.00    -0.180 A  
HETATM   23  C   UNL     1      -9.739   1.888  71.253  1.00  0.00    -0.201 A  
HETATM   24  C   UNL     1      -8.683   2.722  70.899  1.00  0.00    -0.124 A  
HETATM   25  C   UNL     1     -10.430   2.082  72.432  1.00  0.00    -0.184 A  
HETATM   26  C   UNL     1      -8.966   3.938  72.963  1.00  0.00    -0.110 A  
ENDBRANCH  20  21
ENDBRANCH   8  20
BRANCH  13  27
HETATM   27  N   UNL     1     -11.214   8.892  69.862  1.00  0.00    -0.425 NA 
HETATM   28  H   UNL     1     -12.210   8.686  69.933  1.00  0.00     0.000 HD 
BRANCH  27  29
HETATM   29  C   UNL     1     -10.755  10.054  69.531  1.00  0.00    -0.244 C  
HETATM   30  H   UNL     1      -9.096  11.155  69.305  1.00  0.00     0.000 HD 
HETATM   31  O   UNL     1      -9.433  10.301  69.548  1.00  0.00    -0.214 OA 
BRANCH  29  32
HETATM   32  C   UNL     1     -11.524  11.312  69.122  1.00  0.00    -0.364 C  
HETATM   33  C   UNL     1     -10.778  12.637  69.264  1.00  0.00     0.081 C  
HETATM   34  N   UNL     1     -11.538  13.702  68.579  1.00  0.00    -0.312 NA 
HETATM   35  C   UNL     1     -11.640  13.552  67.088  1.00  0.00    -0.357 C  
HETATM   36  C   UNL     1     -11.201  15.032  69.051  1.00  0.00    -0.268 C  
HETATM   37  C   UNL     1     -10.702  14.471  66.219  1.00  0.00    -0.309 C  
HETATM   38  C   UNL     1      -9.310  13.997  66.408  1.00  0.00    -0.242 A  
HETATM   39  C   UNL     1      -8.138  14.608  66.780  1.00  0.00     0.123 A  
HETATM   40  N   UNL     1      -7.234  13.607  67.081  1.00  0.00    -0.362 NA 
HETATM   41  C   UNL     1      -7.803  12.364  66.878  1.00  0.00    -0.011 A  
HETATM   42  H   UNL     1      -6.280  13.764  67.406  1.00  0.00     0.000 HD 
HETATM   43  C   UNL     1      -7.369  11.069  67.159  1.00  0.00    -0.116 A  
HETATM   44  C   UNL     1      -8.279  10.024  66.912  1.00  0.00    -0.121 A  
HETATM   45  C   UNL     1      -9.605  10.271  66.534  1.00  0.00    -0.228 A  
HETATM   46  C   UNL     1     -10.065  11.589  66.446  1.00  0.00    -0.250 A  
HETATM   47  C   UNL     1     -11.519  12.022  66.635  1.00  0.00    -0.411 C  
HETATM   48  C   UNL     1      -9.094  12.604  66.456  1.00  0.00    -0.163 A  
HETATM   49  C   UNL     1     -12.230  11.200  67.732  1.00  0.00     0.730 C  
ENDBRANCH  29  32
ENDBRANCH  27  29
ENDBRANCH  13  27
TORSDOF 5
ENDMDL
MODEL       83
REMARK 921   NORMALIZED FREE ENERGY PREDICTED BY IDOCK:   -4.39 KCAL/MOL
REMARK 922        TOTAL FREE ENERGY PREDICTED BY IDOCK:   -7.52 KCAL/MOL
REMARK 923 INTER-LIGAND FREE ENERGY PREDICTED BY IDOCK:   -8.30 KCAL/MOL
REMARK 924 INTRA-LIGAND FREE ENERGY PREDICTED BY IDOCK:    0.78 KCAL/MOL
REMARK 927      BINDING AFFINITY PREDICTED BY RF-SCORE:    0.00 PKD
ROOT
HETATM    1  C   UNL     1      -9.152  10.728  64.650  1.00  0.00    -0.201 C  
HETATM    2  C   UNL     1      -9.186  10.428  63.155  1.00  0.00    -0.314 C  
HETATM    3  C   UNL     1     -10.428  11.231  62.671  1.00  0.00     0.306 C  
HETATM    4  C   UNL     1     -11.203  11.613  63.925  1.00  0.00    -0.397 C  
HETATM    5  N   UNL     1     -10.518  10.937  65.001  1.00  0.00    -0.286 N  
HETATM    6  C   UNL     1     -10.790  11.396  66.264  1.00  0.00    -0.263 C  
HETATM    7  O   UNL     1     -11.946  11.701  66.539  1.00  0.00    -0.474 OA 
HETATM    8  C   UNL     1      -9.577  11.377  67.271  1.00  0.00    -0.174 C  
HETATM    9  C   UNL     1      -8.184  10.170  65.768  1.00  0.00    -0.144 C  
HETATM   10  N   UNL     1      -8.148  11.305  66.623  1.00  0.00    -0.158 N  
HETATM   11  C   UNL     1      -6.994  10.924  67.319  1.00  0.00    -0.089 C  
HETATM   12  H   UNL     1      -6.388   9.565  65.758  1.00  0.00     0.000 HD 
HETATM   13  C   UNL     1      -7.273   9.515  67.917  1.00  0.00    -0.082 C  
HETATM   14  O   UNL     1      -5.975  11.589  67.347  1.00  0.00    -0.061 OA 
HETATM   15  O   UNL     1      -6.970   9.900  65.086  1.00  0.00    -0.114 OA 
HETATM   16  O   UNL     1      -8.348   9.183  66.833  1.00  0.00    -0.117 OA 
HETATM   17  C   UNL     1      -6.459  10.864  70.171  1.00  0.00    -0.145 C  
HETATM   18  C   UNL     1      -8.402   9.320  70.477  1.00  0.00    -0.237 C  
HETATM   19  C   UNL     1      -7.598  10.089  69.426  1.00  0.00    -0.123 C  
ENDROOT
BRANCH   8  20
HETATM   20  C   UNL     1      -9.854  12.459  68.330  1.00  0.00    -0.198 C  
BRANCH  20  21
HETATM   21  C   UNL     1     -11.066  12.081  69.211  1.00  0.00    -0.246 A  
HETATM   22  C   UNL     1     -11.960  10.353  70.652  1.00  0.00    -0.448 A  
HETATM   23  C   UNL     1     -12.551  12.636  71.056  1.00  0.00    -0.354 A  
HETATM   24  C   UNL     1     -11.832  13.027  69.931  1.00  0.00    -0.377 A  
HETATM   25  C   UNL     1     -12.585  11.313  71.449  1.00  0.00    -0.456 A  
HETATM   26  C   UNL     1     -11.210  10.729  69.542  1.00  0.00    -0.342 A  
ENDBRANCH  20  21
ENDBRANCH   8  20
BRANCH  13  27
HETATM   27  N   UNL     1      -6.178   8.516  67.812  1.00  0.00    -0.051 NA 
HETATM   28  H   UNL     1      -5.190   8.766  67.847  1.00  0.00     0.000 HD 
BRANCH  27  29
HETATM   29  C   UNL     1      -6.594   7.301  67.673  1.00  0.00    -0.057 C  
HETATM   30  H   UNL     1      -7.640   6.053  66.505  1.00  0.00     0.000 HD 
HETATM   31  O   UNL     1      -7.334   6.946  66.607  1.00  0.00    -0.074 OA 
BRANCH  29  32
HETATM   32  C   UNL     1      -6.406   6.106  68.609  1.00  0.00    -0.041 C  
HETATM   33  C   UNL     1      -6.947   6.265  70.029  1.00  0.00    -0.066 C  
HETATM   34  N   UNL     1      -6.939   4.953  70.705  1.00  0.00    -0.040 NA 
HETATM   35  C   UNL     1      -7.872   3.932  70.122  1.00  0.00    -0.048 C  
HETATM   36  C   UNL     1      -6.957   5.061  72.153  1.00  0.00    -0.066 C  
HETATM   37  C   UNL     1      -9.214   3.670  70.904  1.00  0.00    -0.199 C  
HETATM   38  C   UNL     1     -10.063   4.877  70.753  1.00  0.00    -0.303 A  
HETATM   39  C   UNL     1     -10.704   5.707  71.638  1.00  0.00    -0.251 A  
HETATM   40  N   UNL     1     -11.084   6.836  70.938  1.00  0.00    -0.262 NA 
HETATM   41  C   UNL     1     -10.719   6.726  69.609  1.00  0.00    -0.251 A  
HETATM   42  H   UNL     1     -11.566   7.638  71.344  1.00  0.00     0.000 HD 
HETATM   43  C   UNL     1     -10.749   7.625  68.544  1.00  0.00    -0.094 A  
HETATM   44  C   UNL     1     -10.181   7.195  67.330  1.00  0.00    -0.291 A  
HETATM   45  C   UNL     1      -9.493   5.979  67.225  1.00  0.00    -0.119 A  
HETATM   46  C   UNL     1      -9.314   5.185  68.362  1.00  0.00    -0.155 A  
HETATM   47  C   UNL     1      -8.159   4.205  68.572  1.00  0.00    -0.077 C  
HETATM   48  C   UNL     1     -10.086   5.507  69.491  1.00  0.00    -0.305 A  
HETATM   49  C   UNL     1      -6.834   4.739  67.985  1.00  0.00    -0.056 C  
ENDBRANCH  29  32
ENDBRANCH  27  29
ENDBRANCH  13  27
TORSDOF 5
ENDMDL
MODEL       84
REMARK 921   NORMALIZED FREE ENERGY PREDICTED BY IDOCK:   -4.39 KCAL/MOL
REMARK 922        TOTAL FREE ENERGY PREDICTED BY IDOCK:   -7.52 KCAL/MOL
REMARK 923 INTER-LIGAND FREE ENERGY PREDICTED BY IDOCK:   -8.26 KCAL/MOL
REMARK 924 INTRA-LIGAND FREE ENERGY PREDICTED BY IDOCK:    0.74 KCAL/MOL
REMARK 927      BINDING AFFINITY PREDICTED BY RF-SCORE:    0.00 PKD
ROOT
HETATM    1  C   UNL     1     -10.383   8.069  70.102  1.00  0.00    -0.215 C  
HETATM    2  C   UNL     1     -11.461   8.120  71.179  1.00  0.00    -0.304 C  
HETATM    3  C   UNL     1     -12.210   6.771  70.980  1.00  0.00    -0.405 C  
HETATM    4  C   UNL     1     -11.770   6.236  69.624  1.00  0.00    -0.014 C  
HETATM    5  N   UNL     1     -10.960   7.289  69.058  1.00  0.00    -0.110 N  
HETATM    6  C   UNL     1     -10.153   6.925  68.011  1.00  0.00    -0.166 C  
HETATM    7  O   UNL     1     -10.599   6.151  67.172  1.00  0.00    -0.228 OA 
HETATM    8  C   UNL     1      -8.752   7.645  67.950  1.00  0.00    -0.124 C  
HETATM    9  C   UNL     1      -9.311   9.158  69.698  1.00  0.00    -0.172 C  
HETATM   10  N   UNL     1      -8.256   8.297  69.290  1.00  0.00    -0.116 N  
HETATM   11  C   UNL     1      -7.246   9.264  69.360  1.00  0.00    -0.068 C  
HETATM   12  H   UNL     1      -8.419  10.532  70.652  1.00  0.00     0.000 HD 
HETATM   13  C   UNL     1      -7.683  10.439  68.439  1.00  0.00    -0.098 C  
HETATM   14  O   UNL     1      -6.272   9.168  70.084  1.00  0.00    -0.039 OA 
HETATM   15  O   UNL     1      -9.064   9.877  70.895  1.00  0.00    -0.004 OA 
HETATM   16  O   UNL     1      -9.197  10.081  68.571  1.00  0.00    -0.135 OA 
HETATM   17  C   UNL     1      -5.163   9.941  67.455  1.00  0.00    -0.035 C  
HETATM   18  C   UNL     1      -6.921  10.412  65.740  1.00  0.00    -0.136 C  
HETATM   19  C   UNL     1      -6.707   9.983  67.193  1.00  0.00    -0.074 C  
ENDROOT
BRANCH   8  20
HETATM   20  C   UNL     1      -7.797   6.709  67.187  1.00  0.00    -0.105 C  
BRANCH  20  21
HETATM   21  C   UNL     1      -8.185   6.614  65.693  1.00  0.00    -0.137 A  
HETATM   22  C   UNL     1      -7.856   7.648  63.529  1.00  0.00    -0.124 A  
HETATM   23  C   UNL     1      -8.288   5.298  63.651  1.00  0.00    -0.118 A  
HETATM   24  C   UNL     1      -8.440   5.391  65.031  1.00  0.00    -0.150 A  
HETATM   25  C   UNL     1      -7.954   6.406  62.898  1.00  0.00    -0.091 A  
HETATM   26  C   UNL     1      -7.973   7.755  64.912  1.00  0.00    -0.139 A  
ENDBRANCH  20  21
ENDBRANCH   8  20
BRANCH  13  27
HETATM   27  N   UNL     1      -7.479  11.814  68.968  1.00  0.00    -0.276 NA 
HETATM   28  H   UNL     1      -7.139  12.004  69.910  1.00  0.00     0.000 HD 
BRANCH  27  29
HETATM   29  C   UNL     1      -7.773  12.745  68.122  1.00  0.00    -0.137 C  
HETATM   30  H   UNL     1      -8.471  13.123  66.282  1.00  0.00     0.000 HD 
HETATM   31  O   UNL     1      -8.255  12.439  66.904  1.00  0.00    -0.164 OA 
BRANCH  29  32
HETATM   32  C   UNL     1      -7.621  14.260  68.267  1.00  0.00    -0.130 C  
HETATM   33  C   UNL     1      -7.722  15.076  66.980  1.00  0.00    -0.084 C  
HETATM   34  N   UNL     1      -7.834  16.509  67.317  1.00  0.00    -0.146 NA 
HETATM   35  C   UNL     1      -9.093  16.896  68.039  1.00  0.00    -0.234 C  
HETATM   36  C   UNL     1      -7.449  17.382  66.223  1.00  0.00    -0.319 C  
HETATM   37  C   UNL     1     -10.207  17.611  67.187  1.00  0.00    -0.342 C  
HETATM   38  C   UNL     1     -10.770  16.607  66.254  1.00  0.00    -0.119 A  
HETATM   39  C   UNL     1     -10.955  16.567  64.894  1.00  0.00    -0.209 A  
HETATM   40  N   UNL     1     -11.239  15.257  64.558  1.00  0.00    -0.667 NA 
HETATM   41  C   UNL     1     -11.268  14.463  65.689  1.00  0.00    -0.323 A  
HETATM   42  H   UNL     1     -11.405  14.922  63.609  1.00  0.00     0.000 HD 
HETATM   43  C   UNL     1     -11.372  13.085  65.874  1.00  0.00    -0.344 A  
HETATM   44  C   UNL     1     -11.253  12.608  67.192  1.00  0.00    -0.348 A  
HETATM   45  C   UNL     1     -10.909  13.452  68.257  1.00  0.00    -0.275 A  
HETATM   46  C   UNL     1     -10.623  14.798  68.008  1.00  0.00    -0.244 A  
HETATM   47  C   UNL     1      -9.705  15.670  68.865  1.00  0.00    -0.220 C  
HETATM   48  C   UNL     1     -10.980  15.301  66.746  1.00  0.00    -0.306 A  
HETATM   49  C   UNL     1      -8.494  14.879  69.406  1.00  0.00    -0.064 C  
ENDBRANCH  29  32
ENDBRANCH  27  29
ENDBRANCH  13  27
TORSDOF 5
ENDMDL
MODEL       85
REMARK 921   NORMALIZED FREE ENERGY PREDICTED BY IDOCK:   -4.34 KCAL/MOL
REMARK 922        TOTAL FREE ENERGY PREDICTED BY IDOCK:   -7.46 KCAL/MOL
REMARK 923 INTER-LIGAND FREE ENERGY PREDICTED BY IDOCK:   -6.66 KCAL/MOL
REMARK 924 INTRA-LIGAND FREE ENERGY PREDICTED BY IDOCK:   -0.80 KCAL/MOL
REMARK 927      BINDING AFFINITY PREDICTED BY RF-SCORE:    0.00 PKD
ROOT
HETATM    1  C   UNL     1      -9.987  10.977  65.055  1.00  0.00    -0.285 C  
HETATM    2  C   UNL     1      -9.186  10.509  63.846  1.00  0.00    -0.287 C  
HETATM    3  C   UNL     1      -9.669  11.469  62.720  1.00  0.00    -0.184 C  
HETATM    4  C   UNL     1     -10.929  12.142  63.248  1.00  0.00    -0.330 C  
HETATM    5  N   UNL     1     -11.199  11.484  64.504  1.00  0.00    -0.275 N  
HETATM    6  C   UNL     1     -12.061  12.137  65.347  1.00  0.00    -0.160 C  
HETATM    7  O   UNL     1     -13.045  12.688  64.865  1.00  0.00    -0.850 OA 
HETATM    8  C   UNL     1     -11.736  12.010  66.884  1.00  0.00    -0.266 C  
HETATM    9  C   UNL     1     -10.037  10.386  66.520  1.00  0.00    -0.228 C  
HETATM   10  N   UNL     1     -10.266  11.588  67.243  1.00  0.00    -0.199 N  
HETATM   11  C   UNL     1      -9.881  11.082  68.491  1.00  0.00    -0.192 C  
HETATM   12  H   UNL     1      -8.787   9.452  67.597  1.00  0.00     0.000 HD 
HETATM   13  C   UNL     1     -10.771   9.836  68.765  1.00  0.00    -0.215 C  
HETATM   14  O   UNL     1      -8.965  11.539  69.148  1.00  0.00     0.071 OA 
HETATM   15  O   UNL     1      -8.757   9.807  66.716  1.00  0.00    -0.130 OA 
HETATM   16  O   UNL     1     -11.023   9.585  67.243  1.00  0.00    -0.203 OA 
HETATM   17  C   UNL     1     -11.190  11.269  71.074  1.00  0.00     1.241 C  
HETATM   18  C   UNL     1     -13.216  10.173  70.099  1.00  0.00     0.296 C  
HETATM   19  C   UNL     1     -11.795  10.641  69.773  1.00  0.00    -0.377 C  
ENDROOT
BRANCH   8  20
HETATM   20  C   UNL     1     -12.339  13.246  67.577  1.00  0.00    -0.038 C  
BRANCH  20  21
HETATM   21  C   UNL     1     -11.593  14.536  67.165  1.00  0.00    -0.406 A  
HETATM   22  C   UNL     1     -10.386  16.446  68.034  1.00  0.00    -0.288 A  
HETATM   23  C   UNL     1      -9.831  15.596  65.868  1.00  0.00    -0.382 A  
HETATM   24  C   UNL     1     -10.856  14.661  65.965  1.00  0.00    -0.318 A  
HETATM   25  C   UNL     1      -9.559  16.460  66.909  1.00  0.00    -0.255 A  
HETATM   26  C   UNL     1     -11.396  15.497  68.162  1.00  0.00    -0.348 A  
ENDBRANCH  20  21
ENDBRANCH   8  20
BRANCH  13  27
HETATM   27  N   UNL     1     -10.092   8.641  69.330  1.00  0.00    -0.196 NA 
HETATM   28  H   UNL     1      -9.432   8.690  70.105  1.00  0.00     0.000 HD 
BRANCH  27  29
HETATM   29  C   UNL     1     -10.415   7.535  68.747  1.00  0.00    -0.194 C  
HETATM   30  H   UNL     1     -11.883   6.198  68.472  1.00  0.00     0.000 HD 
HETATM   31  O   UNL     1     -11.644   7.011  68.901  1.00  0.00     0.149 OA 
BRANCH  29  32
HETATM   32  C   UNL     1      -9.558   6.624  67.866  1.00  0.00    -0.121 C  
HETATM   33  C   UNL     1      -8.048   6.699  68.083  1.00  0.00    -0.111 C  
HETATM   34  N   UNL     1      -7.395   5.581  67.373  1.00  0.00    -0.075 NA 
HETATM   35  C   UNL     1      -7.725   4.214  67.900  1.00  0.00    -0.071 C  
HETATM   36  C   UNL     1      -5.990   5.824  67.102  1.00  0.00    -0.018 C  
HETATM   37  C   UNL     1      -6.630   3.516  68.790  1.00  0.00    -0.040 C  
HETATM   38  C   UNL     1      -6.561   4.252  70.075  1.00  0.00    -0.033 A  
HETATM   39  C   UNL     1      -5.543   4.840  70.783  1.00  0.00    -0.015 A  
HETATM   40  N   UNL     1      -6.124   5.638  71.749  1.00  0.00    -0.033 NA 
HETATM   41  C   UNL     1      -7.502   5.547  71.687  1.00  0.00    -0.093 A  
HETATM   42  H   UNL     1      -5.609   6.214  72.416  1.00  0.00     0.000 HD 
HETATM   43  C   UNL     1      -8.525   6.239  72.335  1.00  0.00    -0.114 A  
HETATM   44  C   UNL     1      -9.843   5.951  71.933  1.00  0.00    -0.188 A  
HETATM   45  C   UNL     1     -10.118   5.113  70.845  1.00  0.00    -0.302 A  
HETATM   46  C   UNL     1      -9.064   4.584  70.094  1.00  0.00    -0.160 A  
HETATM   47  C   UNL     1      -9.153   4.183  68.621  1.00  0.00    -0.185 C  
HETATM   48  C   UNL     1      -7.776   4.683  70.649  1.00  0.00    -0.054 A  
HETATM   49  C   UNL     1     -10.054   5.143  67.814  1.00  0.00    -0.197 C  
ENDBRANCH  29  32
ENDBRANCH  27  29
ENDBRANCH  13  27
TORSDOF 5
ENDMDL
MODEL       86
REMARK 921   NORMALIZED FREE ENERGY PREDICTED BY IDOCK:   -4.34 KCAL/MOL
REMARK 922        TOTAL FREE ENERGY PREDICTED BY IDOCK:   -7.46 KCAL/MOL
REMARK 923 INTER-LIGAND FREE ENERGY PREDICTED BY IDOCK:   -8.19 KCAL/MOL
REMARK 924 INTRA-LIGAND FREE ENERGY PREDICTED BY IDOCK:    0.73 KCAL/MOL
REMARK 927      BINDING AFFINITY PREDICTED BY RF-SCORE:    0.00 PKD
ROOT
HETATM    1  C   UNL     1     -10.931  13.038  68.751  1.00  0.00    -0.258 C  
HETATM    2  C   UNL     1     -11.955  13.988  69.362  1.00  0.00    -0.390 C  
HETATM    3  C   UNL     1     -11.506  15.375  68.817  1.00  0.00    -0.352 C  
HETATM    4  C   UNL     1     -10.101  15.179  68.264  1.00  0.00    -0.223 C  
HETATM    5  N   UNL     1      -9.750  13.825  68.620  1.00  0.00    -0.186 N  
HETATM    6  C   UNL     1      -8.693  13.282  67.936  1.00  0.00    -0.192 C  
HETATM    7  O   UNL     1      -7.719  13.992  67.706  1.00  0.00    -0.139 OA 
HETATM    8  C   UNL     1      -8.810  11.744  67.611  1.00  0.00    -0.162 C  
HETATM    9  C   UNL     1     -10.756  11.480  68.952  1.00  0.00    -0.207 C  
HETATM   10  N   UNL     1     -10.258  11.139  67.665  1.00  0.00    -0.178 N  
HETATM   11  C   UNL     1     -10.529   9.768  67.764  1.00  0.00    -0.246 C  
HETATM   12  H   UNL     1     -11.959  10.070  69.350  1.00  0.00     0.000 HD 
HETATM   13  C   UNL     1      -9.795   9.256  69.036  1.00  0.00    -0.166 C  
HETATM   14  O   UNL     1     -11.268   9.173  67.003  1.00  0.00     0.219 OA 
HETATM   15  O   UNL     1     -12.064  11.007  69.229  1.00  0.00    -0.339 OA 
HETATM   16  O   UNL     1      -9.801  10.668  69.703  1.00  0.00    -0.158 OA 
HETATM   17  C   UNL     1      -8.851   7.478  67.162  1.00  0.00    -0.127 C  
HETATM   18  C   UNL     1      -7.162   8.316  68.805  1.00  0.00    -0.079 C  
HETATM   19  C   UNL     1      -8.534   8.613  68.194  1.00  0.00    -0.131 C  
ENDROOT
BRANCH   8  20
HETATM   20  C   UNL     1      -7.945  11.479  66.366  1.00  0.00    -0.046 C  
BRANCH  20  21
HETATM   21  C   UNL     1      -8.797  10.922  65.202  1.00  0.00    -0.167 A  
HETATM   22  C   UNL     1     -10.388  11.542  63.486  1.00  0.00    -0.484 A  
HETATM   23  C   UNL     1      -8.905   9.705  63.099  1.00  0.00    -0.254 A  
HETATM   24  C   UNL     1      -8.389   9.844  64.384  1.00  0.00    -0.169 A  
HETATM   25  C   UNL     1      -9.869  10.573  62.626  1.00  0.00    -0.115 A  
HETATM   26  C   UNL     1      -9.862  11.715  64.763  1.00  0.00    -0.261 A  
ENDBRANCH  20  21
ENDBRANCH   8  20
BRANCH  13  27
HETATM   27  N   UNL     1     -10.549   8.321  69.912  1.00  0.00    -0.231 NA 
HETATM   28  H   UNL     1     -11.544   8.424  70.110  1.00  0.00     0.000 HD 
BRANCH  27  29
HETATM   29  C   UNL     1      -9.827   7.366  70.397  1.00  0.00    -0.183 C  
HETATM   30  H   UNL     1      -8.021   6.886  71.121  1.00  0.00     0.000 HD 
HETATM   31  O   UNL     1      -8.552   7.588  70.764  1.00  0.00    -0.132 OA 
BRANCH  29  32
HETATM   32  C   UNL     1     -10.192   5.896  70.612  1.00  0.00    -0.268 C  
HETATM   33  C   UNL     1      -9.035   4.950  70.925  1.00  0.00    -0.132 C  
HETATM   34  N   UNL     1      -9.573   3.651  71.373  1.00  0.00    -0.158 NA 
HETATM   35  C   UNL     1     -10.318   3.686  72.677  1.00  0.00    -0.147 C  
HETATM   36  C   UNL     1      -8.625   2.562  71.225  1.00  0.00    -0.063 C  
HETATM   37  C   UNL     1      -9.555   3.143  73.943  1.00  0.00    -0.123 C  
HETATM   38  C   UNL     1      -8.475   4.107  74.263  1.00  0.00    -0.097 A  
HETATM   39  C   UNL     1      -7.120   3.992  74.452  1.00  0.00    -0.061 A  
HETATM   40  N   UNL     1      -6.594   5.269  74.419  1.00  0.00    -0.073 NA 
HETATM   41  C   UNL     1      -7.597   6.202  74.239  1.00  0.00    -0.092 A  
HETATM   42  H   UNL     1      -5.602   5.492  74.513  1.00  0.00     0.000 HD 
HETATM   43  C   UNL     1      -7.579   7.577  74.006  1.00  0.00    -0.155 A  
HETATM   44  C   UNL     1      -8.817   8.198  73.756  1.00  0.00    -0.265 A  
HETATM   45  C   UNL     1      -9.998   7.459  73.609  1.00  0.00    -0.379 A  
HETATM   46  C   UNL     1      -9.952   6.063  73.658  1.00  0.00    -0.199 A  
HETATM   47  C   UNL     1     -10.945   5.130  72.964  1.00  0.00    -0.355 C  
HETATM   48  C   UNL     1      -8.769   5.482  74.145  1.00  0.00    -0.119 A  
HETATM   49  C   UNL     1     -11.391   5.677  71.590  1.00  0.00    -0.150 C  
ENDBRANCH  29  32
ENDBRANCH  27  29
ENDBRANCH  13  27
TORSDOF 5
ENDMDL
MODEL       87
REMARK 921   NORMALIZED FREE ENERGY PREDICTED BY IDOCK:   -4.31 KCAL/MOL
REMARK 922        TOTAL FREE ENERGY PREDICTED BY IDOCK:   -7.41 KCAL/MOL
REMARK 923 INTER-LIGAND FREE ENERGY PREDICTED BY IDOCK:   -8.62 KCAL/MOL
REMARK 924 INTRA-LIGAND FREE ENERGY PREDICTED BY IDOCK:    1.21 KCAL/MOL
REMARK 927      BINDING AFFINITY PREDICTED BY RF-SCORE:    0.00 PKD
ROOT
HETATM    1  C   UNL     1     -10.757  12.749  66.591  1.00  0.00    -0.261 C  
HETATM    2  C   UNL     1     -12.081  12.623  65.847  1.00  0.00    -0.459 C  
HETATM    3  C   UNL     1     -12.632  14.078  65.876  1.00  0.00    -0.484 C  
HETATM    4  C   UNL     1     -11.804  14.825  66.913  1.00  0.00    -0.262 C  
HETATM    5  N   UNL     1     -10.968  13.814  67.514  1.00  0.00    -0.268 N  
HETATM    6  C   UNL     1      -9.884  14.275  68.217  1.00  0.00    -0.235 C  
HETATM    7  O   UNL     1     -10.023  15.271  68.918  1.00  0.00    -0.207 OA 
HETATM    8  C   UNL     1      -8.584  13.388  68.121  1.00  0.00    -0.174 C  
HETATM    9  C   UNL     1      -9.714  11.630  66.988  1.00  0.00    -0.186 C  
HETATM   10  N   UNL     1      -8.518  12.395  66.907  1.00  0.00    -0.177 N  
HETATM   11  C   UNL     1      -7.650  11.297  66.842  1.00  0.00    -0.148 C  
HETATM   12  H   UNL     1      -9.228   9.965  66.222  1.00  0.00     0.000 HD 
HETATM   13  C   UNL     1      -7.927  10.429  68.103  1.00  0.00    -0.110 C  
HETATM   14  O   UNL     1      -6.898  11.090  65.908  1.00  0.00    -0.078 OA 
HETATM   15  O   UNL     1      -9.856  10.638  65.983  1.00  0.00    -0.208 OA 
HETATM   16  O   UNL     1      -9.386  10.968  68.249  1.00  0.00    -0.159 OA 
HETATM   17  C   UNL     1      -5.204  10.754  68.307  1.00  0.00    -0.036 C  
HETATM   18  C   UNL     1      -6.478  10.933  70.451  1.00  0.00    -0.040 C  
HETATM   19  C   UNL     1      -6.620  10.998  68.929  1.00  0.00    -0.058 C  
ENDROOT
BRANCH   8  20
HETATM   20  C   UNL     1      -7.384  14.318  68.380  1.00  0.00    -0.119 C  
BRANCH  20  21
HETATM   21  C   UNL     1      -7.690  15.764  67.927  1.00  0.00    -0.144 A  
HETATM   22  C   UNL     1      -7.234  18.091  68.413  1.00  0.00    -0.255 A  
HETATM   23  C   UNL     1      -7.693  17.433  66.159  1.00  0.00    -0.311 A  
HETATM   24  C   UNL     1      -7.919  16.127  66.580  1.00  0.00    -0.294 A  
HETATM   25  C   UNL     1      -7.309  18.410  67.056  1.00  0.00    -0.223 A  
HETATM   26  C   UNL     1      -7.426  16.783  68.848  1.00  0.00    -0.240 A  
ENDBRANCH  20  21
ENDBRANCH   8  20
BRANCH  13  27
HETATM   27  N   UNL     1      -7.990   8.958  67.900  1.00  0.00    -0.102 NA 
HETATM   28  H   UNL     1      -7.305   8.442  67.348  1.00  0.00     0.000 HD 
BRANCH  27  29
HETATM   29  C   UNL     1      -8.993   8.395  68.487  1.00  0.00    -0.136 C  
HETATM   30  H   UNL     1     -10.299   6.877  68.400  1.00  0.00     0.000 HD 
HETATM   31  O   UNL     1      -9.562   7.292  67.968  1.00  0.00    -0.138 OA 
BRANCH  29  32
HETATM   32  C   UNL     1      -9.729   8.823  69.758  1.00  0.00    -0.179 C  
HETATM   33  C   UNL     1     -10.850   7.900  70.234  1.00  0.00    -0.241 C  
HETATM   34  N   UNL     1     -11.263   8.296  71.595  1.00  0.00    -0.256 NA 
HETATM   35  C   UNL     1     -10.219   8.104  72.657  1.00  0.00    -0.318 C  
HETATM   36  C   UNL     1     -12.596   7.836  71.940  1.00  0.00    -0.311 C  
HETATM   37  C   UNL     1     -10.390   6.856  73.601  1.00  0.00    -0.397 C  
HETATM   38  C   UNL     1     -10.127   5.642  72.792  1.00  0.00    -0.205 A  
HETATM   39  C   UNL     1     -10.827   4.487  72.551  1.00  0.00    -0.070 A  
HETATM   40  N   UNL     1     -10.224   3.860  71.477  1.00  0.00    -0.065 NA 
HETATM   41  C   UNL     1      -9.129   4.584  71.047  1.00  0.00    -0.132 A  
HETATM   42  H   UNL     1     -10.542   2.984  71.061  1.00  0.00     0.000 HD 
HETATM   43  C   UNL     1      -8.286   4.457  69.942  1.00  0.00    -0.075 A  
HETATM   44  C   UNL     1      -7.322   5.465  69.757  1.00  0.00    -0.065 A  
HETATM   45  C   UNL     1      -7.290   6.615  70.557  1.00  0.00    -0.081 A  
HETATM   46  C   UNL     1      -8.271   6.804  71.536  1.00  0.00    -0.111 A  
HETATM   47  C   UNL     1      -8.738   8.165  72.054  1.00  0.00    -0.221 C  
HETATM   48  C   UNL     1      -9.064   5.692  71.865  1.00  0.00    -0.147 A  
HETATM   49  C   UNL     1      -8.782   9.227  70.933  1.00  0.00    -0.234 C  
ENDBRANCH  29  32
ENDBRANCH  27  29
ENDBRANCH  13  27
TORSDOF 5
ENDMDL
MODEL       88
REMARK 921   NORMALIZED FREE ENERGY PREDICTED BY IDOCK:   -4.31 KCAL/MOL
REMARK 922        TOTAL FREE ENERGY PREDICTED BY IDOCK:   -7.41 KCAL/MOL
REMARK 923 INTER-LIGAND FREE ENERGY PREDICTED BY IDOCK:   -8.01 KCAL/MOL
REMARK 924 INTRA-LIGAND FREE ENERGY PREDICTED BY IDOCK:    0.60 KCAL/MOL
REMARK 927      BINDING AFFINITY PREDICTED BY RF-SCORE:    0.00 PKD
ROOT
HETATM    1  C   UNL     1      -7.173  16.159  68.885  1.00  0.00    -0.178 C  
HETATM    2  C   UNL     1      -5.987  16.437  69.801  1.00  0.00    -0.201 C  
HETATM    3  C   UNL     1      -5.462  17.806  69.279  1.00  0.00    -0.195 C  
HETATM    4  C   UNL     1      -6.121  18.025  67.924  1.00  0.00    -0.162 C  
HETATM    5  N   UNL     1      -6.832  16.797  67.657  1.00  0.00    -0.130 N  
HETATM    6  C   UNL     1      -7.793  16.862  66.682  1.00  0.00    -0.263 C  
HETATM    7  O   UNL     1      -7.557  17.517  65.672  1.00  0.00    -0.480 OA 
HETATM    8  C   UNL     1      -9.076  15.981  66.931  1.00  0.00    -0.228 C  
HETATM    9  C   UNL     1      -8.119  14.895  68.817  1.00  0.00    -0.162 C  
HETATM   10  N   UNL     1      -9.324  15.533  68.416  1.00  0.00    -0.188 N  
HETATM   11  C   UNL     1     -10.173  14.482  68.783  1.00  0.00    -0.244 C  
HETATM   12  H   UNL     1      -8.696  13.624  70.100  1.00  0.00     0.000 HD 
HETATM   13  C   UNL     1      -9.679  13.218  68.022  1.00  0.00    -0.223 C  
HETATM   14  O   UNL     1     -11.064  14.593  69.604  1.00  0.00    -0.257 OA 
HETATM   15  O   UNL     1      -8.127  14.384  70.141  1.00  0.00     0.612 OA 
HETATM   16  O   UNL     1      -8.225  13.773  67.887  1.00  0.00    -0.139 OA 
HETATM   17  C   UNL     1     -12.337  13.222  67.316  1.00  0.00    -0.126 C  
HETATM   18  C   UNL     1     -10.732  12.656  65.484  1.00  0.00    -0.303 C  
HETATM   19  C   UNL     1     -10.842  13.317  66.860  1.00  0.00    -0.286 C  
ENDROOT
BRANCH   8  20
HETATM   20  C   UNL     1     -10.233  16.640  66.157  1.00  0.00    -0.360 C  
BRANCH  20  21
HETATM   21  C   UNL     1     -10.566  18.036  66.730  1.00  0.00    -0.281 A  
HETATM   22  C   UNL     1     -10.073  19.562  68.544  1.00  0.00    -0.543 A  
HETATM   23  C   UNL     1     -10.688  20.443  66.407  1.00  0.00     0.118 A  
HETATM   24  C   UNL     1     -10.887  19.153  65.925  1.00  0.00    -0.316 A  
HETATM   25  C   UNL     1     -10.240  20.657  67.695  1.00  0.00    -0.224 A  
HETATM   26  C   UNL     1     -10.236  18.263  68.071  1.00  0.00    -0.402 A  
ENDBRANCH  20  21
ENDBRANCH   8  20
BRANCH  13  27
HETATM   27  N   UNL     1      -9.627  11.950  68.797  1.00  0.00    -0.393 NA 
HETATM   28  H   UNL     1      -9.454  11.918  69.801  1.00  0.00     0.000 HD 
BRANCH  27  29
HETATM   29  C   UNL     1      -9.820  10.894  68.079  1.00  0.00    -0.171 C  
HETATM   30  H   UNL     1      -9.606  10.093  66.254  1.00  0.00     0.000 HD 
HETATM   31  O   UNL     1      -9.463  10.870  66.782  1.00  0.00    -0.173 OA 
BRANCH  29  32
HETATM   32  C   UNL     1     -10.473   9.568  68.474  1.00  0.00    -0.247 C  
HETATM   33  C   UNL     1     -10.412   8.448  67.437  1.00  0.00    -0.283 C  
HETATM   34  N   UNL     1     -10.827   7.178  68.064  1.00  0.00    -0.166 NA 
HETATM   35  C   UNL     1      -9.908   6.669  69.137  1.00  0.00    -0.148 C  
HETATM   36  C   UNL     1     -11.271   6.188  67.100  1.00  0.00    -0.095 C  
HETATM   37  C   UNL     1      -8.950   5.483  68.744  1.00  0.00    -0.120 C  
HETATM   38  C   UNL     1      -7.937   6.019  67.803  1.00  0.00    -0.105 A  
HETATM   39  C   UNL     1      -7.511   5.651  66.550  1.00  0.00    -0.087 A  
HETATM   40  N   UNL     1      -6.767   6.702  66.048  1.00  0.00    -0.047 NA 
HETATM   41  C   UNL     1      -6.687   7.724  66.973  1.00  0.00    -0.068 A  
HETATM   42  H   UNL     1      -6.337   6.719  65.123  1.00  0.00     0.000 HD 
HETATM   43  C   UNL     1      -6.181   9.023  66.906  1.00  0.00    -0.059 A  
HETATM   44  C   UNL     1      -6.374   9.841  68.034  1.00  0.00    -0.056 A  
HETATM   45  C   UNL     1      -7.153   9.429  69.123  1.00  0.00    -0.062 A  
HETATM   46  C   UNL     1      -7.807   8.193  69.078  1.00  0.00    -0.108 A  
HETATM   47  C   UNL     1      -9.092   7.856  69.834  1.00  0.00    -0.146 C  
HETATM   48  C   UNL     1      -7.411   7.301  68.067  1.00  0.00    -0.102 A  
HETATM   49  C   UNL     1     -10.062   9.057  69.892  1.00  0.00    -0.213 C  
ENDBRANCH  29  32
ENDBRANCH  27  29
ENDBRANCH  13  27
TORSDOF 5
ENDMDL
MODEL       89
REMARK 921   NORMALIZED FREE ENERGY PREDICTED BY IDOCK:   -4.25 KCAL/MOL
REMARK 922        TOTAL FREE ENERGY PREDICTED BY IDOCK:   -7.33 KCAL/MOL
REMARK 923 INTER-LIGAND FREE ENERGY PREDICTED BY IDOCK:   -6.85 KCAL/MOL
REMARK 924 INTRA-LIGAND FREE ENERGY PREDICTED BY IDOCK:   -0.48 KCAL/MOL
REMARK 927      BINDING AFFINITY PREDICTED BY RF-SCORE:    0.00 PKD
ROOT
HETATM    1  C   UNL     1     -12.183  10.920  71.016  1.00  0.00    -0.358 C  
HETATM    2  C   UNL     1     -12.524  12.401  71.139  1.00  0.00    -0.323 C  
HETATM    3  C   UNL     1     -13.654  12.407  72.209  1.00  0.00    -0.371 C  
HETATM    4  C   UNL     1     -14.120  10.964  72.343  1.00  0.00     0.920 C  
HETATM    5  N   UNL     1     -13.404  10.249  71.312  1.00  0.00    -0.332 N  
HETATM    6  C   UNL     1     -13.368   8.885  71.447  1.00  0.00    -0.261 C  
HETATM    7  O   UNL     1     -14.382   8.308  71.825  1.00  0.00    -0.431 OA 
HETATM    8  C   UNL     1     -12.029   8.192  70.987  1.00  0.00    -0.240 C  
HETATM    9  C   UNL     1     -11.164  10.198  70.048  1.00  0.00    -0.299 C  
HETATM   10  N   UNL     1     -10.770   9.125  70.893  1.00  0.00    -0.250 N  
HETATM   11  C   UNL     1      -9.608   8.800  70.181  1.00  0.00    -0.173 C  
HETATM   12  H   UNL     1      -9.543  10.731  69.222  1.00  0.00     0.000 HD 
HETATM   13  C   UNL     1     -10.045   8.508  68.716  1.00  0.00    -0.196 C  
HETATM   14  O   UNL     1      -8.492   8.831  70.664  1.00  0.00    -0.137 OA 
HETATM   15  O   UNL     1     -10.156  11.166  69.804  1.00  0.00     0.132 OA 
HETATM   16  O   UNL     1     -11.330   9.388  68.843  1.00  0.00     0.058 OA 
HETATM   17  C   UNL     1      -8.622   6.224  69.279  1.00  0.00    -0.124 C  
HETATM   18  C   UNL     1     -10.743   5.888  67.998  1.00  0.00    -0.332 C  
HETATM   19  C   UNL     1      -9.997   6.872  68.902  1.00  0.00    -0.158 C  
ENDROOT
BRANCH   8  20
HETATM   20  C   UNL     1     -11.913   6.871  71.771  1.00  0.00    -0.372 C  
BRANCH  20  21
HETATM   21  C   UNL     1     -10.522   6.735  72.432  1.00  0.00    -0.230 A  
HETATM   22  C   UNL     1      -9.246   7.299  74.410  1.00  0.00    -0.169 A  
HETATM   23  C   UNL     1      -8.719   5.300  73.207  1.00  0.00    -0.115 A  
HETATM   24  C   UNL     1      -9.680   5.614  72.252  1.00  0.00    -0.177 A  
HETATM   25  C   UNL     1      -8.525   6.108  74.309  1.00  0.00    -0.116 A  
HETATM   26  C   UNL     1     -10.233   7.615  73.481  1.00  0.00    -0.332 A  
ENDBRANCH  20  21
ENDBRANCH   8  20
BRANCH  13  27
HETATM   27  N   UNL     1      -9.193   9.077  67.639  1.00  0.00    -0.135 NA 
HETATM   28  H   UNL     1      -8.268   9.469  67.810  1.00  0.00     0.000 HD 
BRANCH  27  29
HETATM   29  C   UNL     1      -9.735   9.027  66.468  1.00  0.00    -0.244 C  
HETATM   30  H   UNL     1     -10.039   7.881  64.852  1.00  0.00     0.000 HD 
HETATM   31  O   UNL     1      -9.640   7.918  65.714  1.00  0.00     0.049 OA 
BRANCH  29  32
HETATM   32  C   UNL     1     -10.497  10.117  65.713  1.00  0.00    -0.128 C  
HETATM   33  C   UNL     1     -11.078  11.248  66.560  1.00  0.00    -0.216 C  
HETATM   34  N   UNL     1     -11.529  12.340  65.675  1.00  0.00    -0.355 NA 
HETATM   35  C   UNL     1     -10.436  13.038  64.918  1.00  0.00    -0.339 C  
HETATM   36  C   UNL     1     -12.509  13.209  66.301  1.00  0.00    -0.140 C  
HETATM   37  C   UNL     1      -9.992  14.449  65.458  1.00  0.00    -0.359 C  
HETATM   38  C   UNL     1      -9.286  14.234  66.744  1.00  0.00    -0.290 A  
HETATM   39  C   UNL     1      -9.436  14.745  68.009  1.00  0.00    -0.204 A  
HETATM   40  N   UNL     1      -8.695  13.948  68.861  1.00  0.00    -0.371 NA 
HETATM   41  C   UNL     1      -8.049  12.953  68.153  1.00  0.00    -0.158 A  
HETATM   42  H   UNL     1      -8.632  14.077  69.871  1.00  0.00     0.000 HD 
HETATM   43  C   UNL     1      -7.309  11.839  68.549  1.00  0.00    -0.103 A  
HETATM   44  C   UNL     1      -6.886  10.961  67.535  1.00  0.00    -0.079 A  
HETATM   45  C   UNL     1      -7.299  11.113  66.205  1.00  0.00    -0.007 A  
HETATM   46  C   UNL     1      -8.198  12.131  65.871  1.00  0.00     0.689 A  
HETATM   47  C   UNL     1      -9.169  12.088  64.691  1.00  0.00     0.374 C  
HETATM   48  C   UNL     1      -8.413  13.130  66.835  1.00  0.00    -0.081 A  
HETATM   49  C   UNL     1      -9.740  10.671  64.463  1.00  0.00    -0.367 C  
ENDBRANCH  29  32
ENDBRANCH  27  29
ENDBRANCH  13  27
TORSDOF 5
ENDMDL
MODEL       90
REMARK 921   NORMALIZED FREE ENERGY PREDICTED BY IDOCK:   -4.24 KCAL/MOL
REMARK 922        TOTAL FREE ENERGY PREDICTED BY IDOCK:   -7.32 KCAL/MOL
REMARK 923 INTER-LIGAND FREE ENERGY PREDICTED BY IDOCK:   -7.72 KCAL/MOL
REMARK 924 INTRA-LIGAND FREE ENERGY PREDICTED BY IDOCK:    0.40 KCAL/MOL
REMARK 927      BINDING AFFINITY PREDICTED BY RF-SCORE:    0.00 PKD
ROOT
HETATM    1  C   UNL     1      -9.639  18.002  67.662  1.00  0.00    -0.271 C  
HETATM    2  C   UNL     1     -10.987  18.540  67.196  1.00  0.00    -0.149 C  
HETATM    3  C   UNL     1     -10.751  20.077  67.160  1.00  0.00    -0.358 C  
HETATM    4  C   UNL     1      -9.463  20.328  67.932  1.00  0.00    -0.271 C  
HETATM    5  N   UNL     1      -9.106  19.041  68.479  1.00  0.00    -0.346 N  
HETATM    6  C   UNL     1      -7.810  18.914  68.911  1.00  0.00    -0.279 C  
HETATM    7  O   UNL     1      -7.298  19.855  69.507  1.00  0.00    -0.250 OA 
HETATM    8  C   UNL     1      -7.151  17.501  68.678  1.00  0.00    -0.243 C  
HETATM    9  C   UNL     1      -9.202  16.518  67.983  1.00  0.00    -0.214 C  
HETATM   10  N   UNL     1      -7.837  16.593  67.595  1.00  0.00    -0.170 N  
HETATM   11  C   UNL     1      -7.638  15.210  67.496  1.00  0.00    -0.192 C  
HETATM   12  H   UNL     1      -9.754  14.824  67.337  1.00  0.00     0.000 HD 
HETATM   13  C   UNL     1      -8.015  14.602  68.878  1.00  0.00    -0.149 C  
HETATM   14  O   UNL     1      -7.303  14.651  66.469  1.00  0.00     0.562 OA 
HETATM   15  O   UNL     1     -10.017  15.716  67.143  1.00  0.00    -0.235 OA 
HETATM   16  O   UNL     1      -8.965  15.791  69.229  1.00  0.00    -0.243 OA 
HETATM   17  C   UNL     1      -5.500  13.545  68.534  1.00  0.00    -0.089 C  
HETATM   18  C   UNL     1      -6.030  14.346  70.842  1.00  0.00    -0.185 C  
HETATM   19  C   UNL     1      -6.451  14.461  69.376  1.00  0.00    -0.132 C  
ENDROOT
BRANCH   8  20
HETATM   20  C   UNL     1      -5.629  17.720  68.601  1.00  0.00    -0.161 C  
BRANCH  20  21
HETATM   21  C   UNL     1      -5.229  18.395  67.269  1.00  0.00    -0.140 A  
HETATM   22  C   UNL     1      -5.343  18.166  64.861  1.00  0.00    -0.045 A  
HETATM   23  C   UNL     1      -5.289  20.353  65.828  1.00  0.00    -0.203 A  
HETATM   24  C   UNL     1      -5.155  19.796  67.096  1.00  0.00    -0.157 A  
HETATM   25  C   UNL     1      -5.428  19.551  64.713  1.00  0.00    -0.225 A  
HETATM   26  C   UNL     1      -5.242  17.590  66.124  1.00  0.00    -0.215 A  
ENDBRANCH  20  21
ENDBRANCH   8  20
BRANCH  13  27
HETATM   27  N   UNL     1      -8.818  13.351  68.860  1.00  0.00    -0.370 NA 
HETATM   28  H   UNL     1      -9.823  13.332  69.028  1.00  0.00     0.000 HD 
BRANCH  27  29
HETATM   29  C   UNL     1      -8.123  12.291  68.611  1.00  0.00    -0.029 C  
HETATM   30  H   UNL     1      -6.887  10.922  69.395  1.00  0.00     0.000 HD 
HETATM   31  O   UNL     1      -7.398  11.702  69.578  1.00  0.00     0.017 OA 
BRANCH  29  32
HETATM   32  C   UNL     1      -7.940  11.549  67.285  1.00  0.00    -0.153 C  
HETATM   33  C   UNL     1      -7.263  10.183  67.363  1.00  0.00    -0.088 C  
HETATM   34  N   UNL     1      -7.412   9.489  66.068  1.00  0.00    -0.099 NA 
HETATM   35  C   UNL     1      -8.821   9.125  65.700  1.00  0.00    -0.185 C  
HETATM   36  C   UNL     1      -6.424   8.444  65.867  1.00  0.00    -0.053 C  
HETATM   37  C   UNL     1      -9.236   7.618  65.889  1.00  0.00    -0.053 C  
HETATM   38  C   UNL     1      -9.297   7.350  67.346  1.00  0.00    -0.154 A  
HETATM   39  C   UNL     1      -8.725   6.409  68.167  1.00  0.00    -0.116 A  
HETATM   40  N   UNL     1      -8.899   6.842  69.467  1.00  0.00    -0.133 NA 
HETATM   41  C   UNL     1      -9.600   8.033  69.491  1.00  0.00    -0.164 A  
HETATM   42  H   UNL     1      -8.558   6.352  70.294  1.00  0.00     0.000 HD 
HETATM   43  C   UNL     1      -9.908   8.928  70.516  1.00  0.00    -0.242 A  
HETATM   44  C   UNL     1     -10.557  10.121  70.146  1.00  0.00    -0.337 A  
HETATM   45  C   UNL     1     -10.765  10.465  68.804  1.00  0.00    -0.255 A  
HETATM   46  C   UNL     1     -10.273   9.635  67.792  1.00  0.00    -0.253 A  
HETATM   47  C   UNL     1      -9.886  10.101  66.388  1.00  0.00    -0.279 C  
HETATM   48  C   UNL     1      -9.852   8.349  68.173  1.00  0.00    -0.196 A  
HETATM   49  C   UNL     1      -9.229  11.499  66.404  1.00  0.00    -0.218 C  
ENDBRANCH  29  32
ENDBRANCH  27  29
ENDBRANCH  13  27
TORSDOF 5
ENDMDL
MODEL       91
REMARK 921   NORMALIZED FREE ENERGY PREDICTED BY IDOCK:   -4.22 KCAL/MOL
REMARK 922        TOTAL FREE ENERGY PREDICTED BY IDOCK:   -7.30 KCAL/MOL
REMARK 923 INTER-LIGAND FREE ENERGY PREDICTED BY IDOCK:   -7.34 KCAL/MOL
REMARK 924 INTRA-LIGAND FREE ENERGY PREDICTED BY IDOCK:    0.03 KCAL/MOL
REMARK 927      BINDING AFFINITY PREDICTED BY RF-SCORE:    0.00 PKD
ROOT
HETATM    1  C   UNL     1      -6.730   8.358  69.064  1.00  0.00    -0.052 C  
HETATM    2  C   UNL     1      -5.635   8.340  70.124  1.00  0.00    -0.022 C  
HETATM    3  C   UNL     1      -5.757   6.909  70.722  1.00  0.00    -0.027 C  
HETATM    4  C   UNL     1      -7.096   6.362  70.246  1.00  0.00    -0.078 C  
HETATM    5  N   UNL     1      -7.725   7.470  69.567  1.00  0.00    -0.102 N  
HETATM    6  C   UNL     1      -8.771   7.148  68.741  1.00  0.00    -0.124 C  
HETATM    7  O   UNL     1      -9.565   6.290  69.110  1.00  0.00    -0.135 OA 
HETATM    8  C   UNL     1      -8.894   8.014  67.429  1.00  0.00    -0.131 C  
HETATM    9  C   UNL     1      -7.206   9.537  68.126  1.00  0.00    -0.080 C  
HETATM   10  N   UNL     1      -7.595   8.779  66.988  1.00  0.00    -0.087 N  
HETATM   11  C   UNL     1      -7.590   9.855  66.090  1.00  0.00    -0.104 C  
HETATM   12  H   UNL     1      -6.334  11.045  67.378  1.00  0.00     0.000 HD 
HETATM   13  C   UNL     1      -8.555  10.929  66.669  1.00  0.00    -0.148 C  
HETATM   14  O   UNL     1      -6.883   9.901  65.101  1.00  0.00    -0.109 OA 
HETATM   15  O   UNL     1      -6.048  10.336  67.942  1.00  0.00    -0.051 OA 
HETATM   16  O   UNL     1      -8.376  10.413  68.133  1.00  0.00    -0.113 OA 
HETATM   17  C   UNL     1      -9.566  10.666  64.125  1.00  0.00    -0.353 C  
HETATM   18  C   UNL     1     -11.265  10.857  65.950  1.00  0.00     0.163 C  
HETATM   19  C   UNL     1      -9.798  10.524  65.668  1.00  0.00    -0.311 C  
ENDROOT
BRANCH   8  20
HETATM   20  C   UNL     1      -9.633   7.154  66.388  1.00  0.00    -0.161 C  
BRANCH  20  21
HETATM   21  C   UNL     1      -8.860   5.849  66.091  1.00  0.00    -0.149 A  
HETATM   22  C   UNL     1      -9.127   3.542  65.406  1.00  0.00    -0.145 A  
HETATM   23  C   UNL     1      -7.112   4.704  64.847  1.00  0.00    -0.062 A  
HETATM   24  C   UNL     1      -7.556   5.823  65.544  1.00  0.00    -0.083 A  
HETATM   25  C   UNL     1      -7.904   3.579  64.734  1.00  0.00    -0.082 A  
HETATM   26  C   UNL     1      -9.602   4.663  66.081  1.00  0.00    -0.187 A  
ENDBRANCH  20  21
ENDBRANCH   8  20
BRANCH  13  27
HETATM   27  N   UNL     1      -8.093  12.341  66.612  1.00  0.00    -0.393 NA 
HETATM   28  H   UNL     1      -7.576  12.727  65.822  1.00  0.00     0.000 HD 
BRANCH  27  29
HETATM   29  C   UNL     1      -8.410  13.034  67.655  1.00  0.00    -0.181 C  
HETATM   30  H   UNL     1      -9.501  13.056  69.336  1.00  0.00     0.000 HD 
HETATM   31  O   UNL     1      -9.268  12.547  68.568  1.00  0.00    -0.168 OA 
BRANCH  29  32
HETATM   32  C   UNL     1      -7.966  14.446  68.044  1.00  0.00    -0.139 C  
HETATM   33  C   UNL     1      -7.862  15.460  66.907  1.00  0.00    -0.161 C  
HETATM   34  N   UNL     1      -7.700  16.814  67.472  1.00  0.00    -0.164 NA 
HETATM   35  C   UNL     1      -8.881  17.324  68.248  1.00  0.00    -0.258 C  
HETATM   36  C   UNL     1      -7.115  17.754  66.535  1.00  0.00    -0.240 C  
HETATM   37  C   UNL     1      -9.803  18.375  67.522  1.00  0.00    -0.327 C  
HETATM   38  C   UNL     1     -10.523  17.665  66.438  1.00  0.00    -0.286 A  
HETATM   39  C   UNL     1     -10.667  17.880  65.090  1.00  0.00     0.507 A  
HETATM   40  N   UNL     1     -11.193  16.723  64.546  1.00  0.00    -1.112 NA 
HETATM   41  C   UNL     1     -11.415  15.782  65.533  1.00  0.00     0.147 A  
HETATM   42  H   UNL     1     -11.390  16.584  63.555  1.00  0.00     0.000 HD 
HETATM   43  C   UNL     1     -11.795  14.441  65.491  1.00  0.00    -0.357 A  
HETATM   44  C   UNL     1     -11.816  13.746  66.714  1.00  0.00    -0.454 A  
HETATM   45  C   UNL     1     -11.347  14.323  67.902  1.00  0.00    -0.320 A  
HETATM   46  C   UNL     1     -10.793  15.607  67.875  1.00  0.00    -0.306 A  
HETATM   47  C   UNL     1      -9.750  16.130  68.863  1.00  0.00    -0.242 C  
HETATM   48  C   UNL     1     -11.002  16.366  66.711  1.00  0.00     0.011 A  
HETATM   49  C   UNL     1      -8.737  15.037  69.268  1.00  0.00    -0.161 C  
ENDBRANCH  29  32
ENDBRANCH  27  29
ENDBRANCH  13  27
TORSDOF 5
ENDMDL
MODEL       92
REMARK 921   NORMALIZED FREE ENERGY PREDICTED BY IDOCK:   -4.18 KCAL/MOL
REMARK 922        TOTAL FREE ENERGY PREDICTED BY IDOCK:   -7.24 KCAL/MOL
REMARK 923 INTER-LIGAND FREE ENERGY PREDICTED BY IDOCK:  -10.00 KCAL/MOL
REMARK 924 INTRA-LIGAND FREE ENERGY PREDICTED BY IDOCK:    2.76 KCAL/MOL
REMARK 927      BINDING AFFINITY PREDICTED BY RF-SCORE:    0.00 PKD
ROOT
HETATM    1  C   UNL     1     -11.346  12.054  65.196  1.00  0.00    -0.304 C  
HETATM    2  C   UNL     1     -11.755  11.933  63.732  1.00  0.00    -0.554 C  
HETATM    3  C   UNL     1     -12.193  13.384  63.376  1.00  0.00    -0.419 C  
HETATM    4  C   UNL     1     -12.353  14.116  64.701  1.00  0.00    -0.410 C  
HETATM    5  N   UNL     1     -12.167  13.099  65.709  1.00  0.00    -0.448 N  
HETATM    6  C   UNL     1     -11.905  13.554  66.976  1.00  0.00    -0.402 C  
HETATM    7  O   UNL     1     -12.518  14.536  67.383  1.00  0.00    -0.129 OA 
HETATM    8  C   UNL     1     -10.902  12.679  67.819  1.00  0.00    -0.221 C  
HETATM    9  C   UNL     1     -10.868  10.934  66.203  1.00  0.00    -0.098 C  
HETATM   10  N   UNL     1      -9.979  11.709  66.998  1.00  0.00    -0.202 N  
HETATM   11  C   UNL     1      -9.299  10.619  67.556  1.00  0.00    -0.146 C  
HETATM   12  H   UNL     1      -9.952   9.288  65.990  1.00  0.00     0.000 HD 
HETATM   13  C   UNL     1     -10.369   9.725  68.245  1.00  0.00    -0.198 C  
HETATM   14  O   UNL     1      -8.103  10.435  67.425  1.00  0.00    -0.107 OA 
HETATM   15  O   UNL     1     -10.240   9.961  65.384  1.00  0.00    -0.273 OA 
HETATM   16  O   UNL     1     -11.514  10.251  67.322  1.00  0.00    -0.249 OA 
HETATM   17  C   UNL     1      -8.593  10.065  70.316  1.00  0.00     0.068 C  
HETATM   18  C   UNL     1     -11.013  10.193  70.934  1.00  0.00    -0.241 C  
HETATM   19  C   UNL     1     -10.039  10.287  69.757  1.00  0.00    -0.244 C  
ENDROOT
BRANCH   8  20
HETATM   20  C   UNL     1     -10.253  13.611  68.858  1.00  0.00    -0.088 C  
BRANCH  20  21
HETATM   21  C   UNL     1     -11.295  14.119  69.881  1.00  0.00    -0.232 A  
HETATM   22  C   UNL     1     -12.956  13.396  71.487  1.00  0.00    -0.429 A  
HETATM   23  C   UNL     1     -11.800  15.459  71.846  1.00  0.00    -0.505 A  
HETATM   24  C   UNL     1     -11.135  15.304  70.634  1.00  0.00    -0.341 A  
HETATM   25  C   UNL     1     -12.675  14.494  72.302  1.00  0.00    -0.406 A  
HETATM   26  C   UNL     1     -12.277  13.209  70.287  1.00  0.00    -0.376 A  
ENDBRANCH  20  21
ENDBRANCH   8  20
BRANCH  13  27
HETATM   27  N   UNL     1     -10.242   8.257  68.044  1.00  0.00    -0.206 NA 
HETATM   28  H   UNL     1     -10.936   7.588  68.374  1.00  0.00     0.000 HD 
BRANCH  27  29
HETATM   29  C   UNL     1      -9.171   7.910  67.411  1.00  0.00    -0.140 C  
HETATM   30  H   UNL     1      -8.352   7.647  65.601  1.00  0.00     0.000 HD 
HETATM   31  O   UNL     1      -9.140   7.902  66.066  1.00  0.00    -0.174 OA 
BRANCH  29  32
HETATM   32  C   UNL     1      -7.831   7.433  67.975  1.00  0.00    -0.118 C  
HETATM   33  C   UNL     1      -7.461   7.946  69.365  1.00  0.00    -0.091 C  
HETATM   34  N   UNL     1      -6.301   7.189  69.873  1.00  0.00    -0.034 NA 
HETATM   35  C   UNL     1      -6.555   5.731  70.128  1.00  0.00    -0.047 C  
HETATM   36  C   UNL     1      -5.579   7.890  70.920  1.00  0.00    -0.030 C  
HETATM   37  C   UNL     1      -6.751   5.299  71.630  1.00  0.00    -0.048 C  
HETATM   38  C   UNL     1      -8.049   5.848  72.088  1.00  0.00    -0.107 A  
HETATM   39  C   UNL     1      -8.433   6.626  73.152  1.00  0.00    -0.116 A  
HETATM   40  N   UNL     1      -9.714   7.072  72.890  1.00  0.00    -0.155 NA 
HETATM   41  C   UNL     1     -10.167   6.565  71.687  1.00  0.00    -0.193 A  
HETATM   42  H   UNL     1     -10.252   7.688  73.500  1.00  0.00     0.000 HD 
HETATM   43  C   UNL     1     -11.309   6.815  70.926  1.00  0.00    -0.363 A  
HETATM   44  C   UNL     1     -11.387   6.185  69.670  1.00  0.00    -0.442 A  
HETATM   45  C   UNL     1     -10.317   5.452  69.141  1.00  0.00    -0.300 A  
HETATM   46  C   UNL     1      -9.112   5.379  69.847  1.00  0.00    -0.165 A  
HETATM   47  C   UNL     1      -7.738   5.164  69.213  1.00  0.00    -0.076 C  
HETATM   48  C   UNL     1      -9.134   5.800  71.187  1.00  0.00    -0.157 A  
HETATM   49  C   UNL     1      -7.607   5.891  67.856  1.00  0.00    -0.086 C  
ENDBRANCH  29  32
ENDBRANCH  27  29
ENDBRANCH  13  27
TORSDOF 5
ENDMDL
MODEL       93
REMARK 921   NORMALIZED FREE ENERGY PREDICTED BY IDOCK:   -4.12 KCAL/MOL
REMARK 922        TOTAL FREE ENERGY PREDICTED BY IDOCK:   -7.16 KCAL/MOL
REMARK 923 INTER-LIGAND FREE ENERGY PREDICTED BY IDOCK:   -6.52 KCAL/MOL
REMARK 924 INTRA-LIGAND FREE ENERGY PREDICTED BY IDOCK:   -0.64 KCAL/MOL
REMARK 927      BINDING AFFINITY PREDICTED BY RF-SCORE:    0.00 PKD
ROOT
HETATM    1  C   UNL     1      -7.005  10.831  65.462  1.00  0.00     0.022 C  
HETATM    2  C   UNL     1      -5.575  10.632  64.973  1.00  0.00    -0.116 C  
HETATM    3  C   UNL     1      -5.734  10.655  63.425  1.00  0.00    -0.089 C  
HETATM    4  C   UNL     1      -7.223  10.495  63.149  1.00  0.00     0.003 C  
HETATM    5  N   UNL     1      -7.813  10.248  64.443  1.00  0.00    -0.145 N  
HETATM    6  C   UNL     1      -9.171  10.425  64.524  1.00  0.00    -0.246 C  
HETATM    7  O   UNL     1      -9.867  10.040  63.591  1.00  0.00    -0.140 OA 
HETATM    8  C   UNL     1      -9.699  11.019  65.885  1.00  0.00    -0.224 C  
HETATM    9  C   UNL     1      -7.574  10.835  66.937  1.00  0.00    -0.123 C  
HETATM   10  N   UNL     1      -8.635  11.765  66.768  1.00  0.00    -0.183 N  
HETATM   11  C   UNL     1      -8.805  12.039  68.131  1.00  0.00    -0.182 C  
HETATM   12  H   UNL     1      -6.838  11.303  68.620  1.00  0.00     0.000 HD 
HETATM   13  C   UNL     1      -9.077  10.678  68.833  1.00  0.00    -0.176 C  
HETATM   14  O   UNL     1      -8.678  13.148  68.614  1.00  0.00    -0.091 OA 
HETATM   15  O   UNL     1      -6.496  11.300  67.733  1.00  0.00    -0.057 OA 
HETATM   16  O   UNL     1      -8.343   9.868  67.716  1.00  0.00    -0.114 OA 
HETATM   17  C   UNL     1     -11.222  12.143  69.734  1.00  0.00    -0.072 C  
HETATM   18  C   UNL     1     -11.721   9.779  69.089  1.00  0.00     0.261 C  
HETATM   19  C   UNL     1     -10.705  10.911  68.918  1.00  0.00    -0.252 C  
ENDROOT
BRANCH   8  20
HETATM   20  C   UNL     1     -11.032  11.726  65.581  1.00  0.00    -0.348 C  
BRANCH  20  21
HETATM   21  C   UNL     1     -10.917  13.252  65.797  1.00  0.00    -0.284 A  
HETATM   22  C   UNL     1     -11.401  15.038  67.359  1.00  0.00    -0.338 A  
HETATM   23  C   UNL     1      -9.520  15.240  65.894  1.00  0.00    -0.351 A  
HETATM   24  C   UNL     1      -9.854  14.033  65.288  1.00  0.00    -0.186 A  
HETATM   25  C   UNL     1     -10.256  15.728  66.955  1.00  0.00    -0.280 A  
HETATM   26  C   UNL     1     -11.733  13.814  66.785  1.00  0.00    -0.420 A  
ENDBRANCH  20  21
ENDBRANCH   8  20
BRANCH  13  27
HETATM   27  N   UNL     1      -8.375  10.439  70.122  1.00  0.00    -0.345 NA 
HETATM   28  H   UNL     1      -7.975  11.189  70.685  1.00  0.00     0.000 HD 
BRANCH  27  29
HETATM   29  C   UNL     1      -8.320   9.194  70.461  1.00  0.00    -0.194 C  
HETATM   30  H   UNL     1      -9.398   7.604  71.031  1.00  0.00     0.000 HD 
HETATM   31  O   UNL     1      -9.438   8.520  70.782  1.00  0.00    -0.162 OA 
BRANCH  29  32
HETATM   32  C   UNL     1      -7.095   8.289  70.606  1.00  0.00    -0.042 C  
HETATM   33  C   UNL     1      -7.297   6.999  71.398  1.00  0.00    -0.080 C  
HETATM   34  N   UNL     1      -6.124   6.122  71.211  1.00  0.00    -0.031 NA 
HETATM   35  C   UNL     1      -5.929   5.610  69.813  1.00  0.00    -0.021 C  
HETATM   36  C   UNL     1      -5.982   5.133  72.264  1.00  0.00    -0.025 C  
HETATM   37  C   UNL     1      -6.353   4.118  69.540  1.00  0.00    -0.028 C  
HETATM   38  C   UNL     1      -7.832   4.053  69.609  1.00  0.00    -0.052 A  
HETATM   39  C   UNL     1      -8.720   3.280  70.316  1.00  0.00    -0.069 A  
HETATM   40  N   UNL     1      -9.961   3.877  70.204  1.00  0.00    -0.082 NA 
HETATM   41  C   UNL     1      -9.884   5.006  69.410  1.00  0.00    -0.203 A  
HETATM   42  H   UNL     1     -10.814   3.533  70.644  1.00  0.00     0.000 HD 
HETATM   43  C   UNL     1     -10.802   6.012  69.106  1.00  0.00    -0.422 A  
HETATM   44  C   UNL     1     -10.333   7.091  68.335  1.00  0.00    -0.216 A  
HETATM   45  C   UNL     1      -8.979   7.228  68.000  1.00  0.00    -0.131 A  
HETATM   46  C   UNL     1      -8.050   6.302  68.483  1.00  0.00    -0.109 A  
HETATM   47  C   UNL     1      -6.569   6.593  68.725  1.00  0.00    -0.051 C  
HETATM   48  C   UNL     1      -8.562   5.116  69.037  1.00  0.00    -0.093 A  
HETATM   49  C   UNL     1      -6.341   8.023  69.263  1.00  0.00    -0.035 C  
ENDBRANCH  29  32
ENDBRANCH  27  29
ENDBRANCH  13  27
TORSDOF 5
ENDMDL
MODEL       94
REMARK 921   NORMALIZED FREE ENERGY PREDICTED BY IDOCK:   -4.03 KCAL/MOL
REMARK 922        TOTAL FREE ENERGY PREDICTED BY IDOCK:   -7.05 KCAL/MOL
REMARK 923 INTER-LIGAND FREE ENERGY PREDICTED BY IDOCK:   -7.43 KCAL/MOL
REMARK 924 INTRA-LIGAND FREE ENERGY PREDICTED BY IDOCK:    0.38 KCAL/MOL
REMARK 927      BINDING AFFINITY PREDICTED BY RF-SCORE:    0.00 PKD
ROOT
HETATM    1  C   UNL     1      -8.187  10.238  67.837  1.00  0.00    -0.109 C  
HETATM    2  C   UNL     1      -7.144   9.860  66.791  1.00  0.00    -0.090 C  
HETATM    3  C   UNL     1      -6.501   8.578  67.394  1.00  0.00    -0.058 C  
HETATM    4  C   UNL     1      -6.940   8.527  68.851  1.00  0.00    -0.062 C  
HETATM    5  N   UNL     1      -7.643   9.769  69.067  1.00  0.00    -0.079 N  
HETATM    6  C   UNL     1      -8.443   9.817  70.180  1.00  0.00    -0.174 C  
HETATM    7  O   UNL     1      -8.036   9.302  71.215  1.00  0.00    -0.322 OA 
HETATM    8  C   UNL     1      -9.778  10.640  70.023  1.00  0.00     0.458 C  
HETATM    9  C   UNL     1      -9.154  11.488  67.890  1.00  0.00    -0.167 C  
HETATM   10  N   UNL     1     -10.262  10.889  68.550  1.00  0.00    -0.177 N  
HETATM   11  C   UNL     1     -11.192  11.873  68.189  1.00  0.00    -0.258 C  
HETATM   12  H   UNL     1      -9.960  12.574  66.563  1.00  0.00     0.000 HD 
HETATM   13  C   UNL     1     -10.631  13.231  68.700  1.00  0.00    -0.246 C  
HETATM   14  O   UNL     1     -12.192  11.644  67.536  1.00  0.00    -0.501 OA 
HETATM   15  O   UNL     1      -9.379  11.823  66.531  1.00  0.00    -0.198 OA 
HETATM   16  O   UNL     1      -9.156  12.719  68.678  1.00  0.00    -0.095 OA 
HETATM   17  C   UNL     1     -13.150  13.282  69.802  1.00  0.00     1.063 C  
HETATM   18  C   UNL     1     -11.306  14.101  71.279  1.00  0.00     0.672 C  
HETATM   19  C   UNL     1     -11.601  13.267  70.031  1.00  0.00    -0.212 C  
ENDROOT
BRANCH   8  20
HETATM   20  C   UNL     1     -10.781  10.072  71.043  1.00  0.00    -0.101 C  
BRANCH  20  21
HETATM   21  C   UNL     1     -10.574   8.553  71.243  1.00  0.00    -0.296 A  
HETATM   22  C   UNL     1     -10.676   6.776  72.884  1.00  0.00    -0.291 A  
HETATM   23  C   UNL     1     -11.116   6.275  70.586  1.00  0.00    -0.389 A  
HETATM   24  C   UNL     1     -10.833   7.592  70.239  1.00  0.00    -0.253 A  
HETATM   25  C   UNL     1     -11.085   5.868  71.905  1.00  0.00    -0.325 A  
HETATM   26  C   UNL     1     -10.420   8.105  72.559  1.00  0.00    -0.409 A  
ENDBRANCH  20  21
ENDBRANCH   8  20
BRANCH  13  27
HETATM   27  N   UNL     1     -10.739  14.389  67.773  1.00  0.00    -0.246 NA 
HETATM   28  H   UNL     1     -11.110  14.313  66.827  1.00  0.00     0.000 HD 
BRANCH  27  29
HETATM   29  C   UNL     1     -10.318  15.500  68.280  1.00  0.00    -0.235 C  
HETATM   30  H   UNL     1      -9.130  16.319  69.670  1.00  0.00     0.000 HD 
HETATM   31  O   UNL     1      -9.440  15.502  69.298  1.00  0.00    -0.229 OA 
BRANCH  29  32
HETATM   32  C   UNL     1     -10.707  16.934  67.913  1.00  0.00    -0.344 C  
HETATM   33  C   UNL     1     -10.167  18.035  68.822  1.00  0.00    -0.354 C  
HETATM   34  N   UNL     1     -10.392  19.348  68.186  1.00  0.00    -0.422 NA 
HETATM   35  C   UNL     1      -9.625  19.579  66.915  1.00  0.00    -0.347 C  
HETATM   36  C   UNL     1     -10.376  20.448  69.133  1.00  0.00     0.234 C  
HETATM   37  C   UNL     1      -8.353  20.502  67.014  1.00  0.00    -0.313 C  
HETATM   38  C   UNL     1      -7.321  19.762  67.779  1.00  0.00    -0.314 A  
HETATM   39  C   UNL     1      -6.567  20.052  68.889  1.00  0.00    -0.315 A  
HETATM   40  N   UNL     1      -6.004  18.866  69.321  1.00  0.00    -0.230 NA 
HETATM   41  C   UNL     1      -6.364  17.827  68.485  1.00  0.00    -0.187 A  
HETATM   42  H   UNL     1      -5.406  18.772  70.142  1.00  0.00     0.000 HD 
HETATM   43  C   UNL     1      -6.177  16.446  68.559  1.00  0.00    -0.128 A  
HETATM   44  C   UNL     1      -6.790  15.666  67.561  1.00  0.00    -0.221 A  
HETATM   45  C   UNL     1      -7.661  16.224  66.616  1.00  0.00    -0.268 A  
HETATM   46  C   UNL     1      -7.979  17.584  66.686  1.00  0.00    -0.288 A  
HETATM   47  C   UNL     1      -9.278  18.206  66.172  1.00  0.00    -0.136 C  
HETATM   48  C   UNL     1      -7.181  18.382  67.523  1.00  0.00    -0.211 A  
HETATM   49  C   UNL     1     -10.494  17.281  66.404  1.00  0.00    -0.263 C  
ENDBRANCH  29  32
ENDBRANCH  27  29
ENDBRANCH  13  27
TORSDOF 5
ENDMDL
MODEL       95
REMARK 921   NORMALIZED FREE ENERGY PREDICTED BY IDOCK:   -3.97 KCAL/MOL
REMARK 922        TOTAL FREE ENERGY PREDICTED BY IDOCK:   -6.98 KCAL/MOL
REMARK 923 INTER-LIGAND FREE ENERGY PREDICTED BY IDOCK:   -7.17 KCAL/MOL
REMARK 924 INTRA-LIGAND FREE ENERGY PREDICTED BY IDOCK:    0.19 KCAL/MOL
REMARK 927      BINDING AFFINITY PREDICTED BY RF-SCORE:    0.00 PKD
ROOT
HETATM    1  C   UNL     1      -9.354   8.279  70.322  1.00  0.00    -0.159 C  
HETATM    2  C   UNL     1      -9.309   8.322  71.845  1.00  0.00    -0.282 C  
HETATM    3  C   UNL     1      -9.839   6.914  72.244  1.00  0.00    -0.163 C  
HETATM    4  C   UNL     1     -10.476   6.329  70.991  1.00  0.00    -0.225 C  
HETATM    5  N   UNL     1     -10.434   7.399  70.022  1.00  0.00    -0.220 N  
HETATM    6  C   UNL     1     -10.613   7.028  68.714  1.00  0.00    -0.212 C  
HETATM    7  O   UNL     1     -11.455   6.174  68.459  1.00  0.00    -0.180 OA 
HETATM    8  C   UNL     1      -9.770   7.837  67.657  1.00  0.00    -0.155 C  
HETATM    9  C   UNL     1      -9.019   9.413  69.272  1.00  0.00    -0.154 C  
HETATM   10  N   UNL     1      -8.518   8.603  68.216  1.00  0.00    -0.130 N  
HETATM   11  C   UNL     1      -7.869   9.641  67.535  1.00  0.00    -0.095 C  
HETATM   12  H   UNL     1      -7.845  10.901  69.285  1.00  0.00     0.000 HD 
HETATM   13  C   UNL     1      -8.944  10.724  67.234  1.00  0.00    -0.140 C  
HETATM   14  O   UNL     1      -6.672   9.656  67.319  1.00  0.00    -0.070 OA 
HETATM   15  O   UNL     1      -8.047  10.220  69.917  1.00  0.00    -0.157 OA 
HETATM   16  O   UNL     1      -9.846  10.270  68.426  1.00  0.00    -0.149 OA 
HETATM   17  C   UNL     1      -7.899  10.341  64.719  1.00  0.00    -0.130 C  
HETATM   18  C   UNL     1     -10.386  10.583  64.832  1.00  0.00    -0.307 C  
HETATM   19  C   UNL     1      -9.144  10.260  65.666  1.00  0.00    -0.208 C  
ENDROOT
BRANCH   8  20
HETATM   20  C   UNL     1      -9.589   6.925  66.430  1.00  0.00    -0.152 C  
BRANCH  20  21
HETATM   21  C   UNL     1      -8.102   6.556  66.222  1.00  0.00    -0.115 A  
HETATM   22  C   UNL     1      -6.371   5.003  66.894  1.00  0.00    -0.040 A  
HETATM   23  C   UNL     1      -6.299   5.961  64.703  1.00  0.00    -0.033 A  
HETATM   24  C   UNL     1      -7.420   6.731  64.996  1.00  0.00    -0.092 A  
HETATM   25  C   UNL     1      -5.795   5.065  65.624  1.00  0.00    -0.018 A  
HETATM   26  C   UNL     1      -7.511   5.742  67.195  1.00  0.00    -0.081 A  
ENDBRANCH  20  21
ENDBRANCH   8  20
BRANCH  13  27
HETATM   27  N   UNL     1      -8.548  12.139  67.458  1.00  0.00    -0.162 NA 
HETATM   28  H   UNL     1      -7.736  12.567  67.016  1.00  0.00     0.000 HD 
BRANCH  27  29
HETATM   29  C   UNL     1      -9.329  12.775  68.267  1.00  0.00    -0.194 C  
HETATM   30  H   UNL     1     -11.180  12.852  69.033  1.00  0.00     0.000 HD 
HETATM   31  O   UNL     1     -10.605  12.385  68.438  1.00  0.00    -0.223 OA 
BRANCH  29  32
HETATM   32  C   UNL     1      -9.039  14.021  69.106  1.00  0.00     0.282 C  
HETATM   33  C   UNL     1      -8.354  15.179  68.383  1.00  0.00    -0.154 C  
HETATM   34  N   UNL     1      -8.397  16.382  69.236  1.00  0.00    -0.176 NA 
HETATM   35  C   UNL     1      -9.771  16.933  69.490  1.00  0.00     0.101 C  
HETATM   36  C   UNL     1      -7.386  17.363  68.886  1.00  0.00    -0.244 C  
HETATM   37  C   UNL     1     -10.182  18.214  68.672  1.00  0.00    -0.382 C  
HETATM   38  C   UNL     1     -10.349  17.808  67.256  1.00  0.00    -0.364 A  
HETATM   39  C   UNL     1      -9.831  18.258  66.068  1.00  0.00    -0.156 A  
HETATM   40  N   UNL     1     -10.107  17.299  65.112  1.00  0.00    -0.109 NA 
HETATM   41  C   UNL     1     -10.821  16.254  65.668  1.00  0.00    -0.208 A  
HETATM   42  H   UNL     1      -9.824  17.354  64.134  1.00  0.00     0.000 HD 
HETATM   43  C   UNL     1     -11.215  15.011  65.174  1.00  0.00    -0.391 A  
HETATM   44  C   UNL     1     -11.847  14.137  66.077  1.00  0.00    -0.409 A  
HETATM   45  C   UNL     1     -11.958  14.437  67.442  1.00  0.00    -0.407 A  
HETATM   46  C   UNL     1     -11.382  15.609  67.942  1.00  0.00    -0.302 A  
HETATM   47  C   UNL     1     -10.896  15.800  69.379  1.00  0.00    -0.269 C  
HETATM   48  C   UNL     1     -10.976  16.570  67.001  1.00  0.00    -0.012 A  
HETATM   49  C   UNL     1     -10.257  14.515  69.950  1.00  0.00     0.276 C  
ENDBRANCH  29  32
ENDBRANCH  27  29
ENDBRANCH  13  27
TORSDOF 5
ENDMDL
MODEL       96
REMARK 921   NORMALIZED FREE ENERGY PREDICTED BY IDOCK:   -3.91 KCAL/MOL
REMARK 922        TOTAL FREE ENERGY PREDICTED BY IDOCK:   -6.90 KCAL/MOL
REMARK 923 INTER-LIGAND FREE ENERGY PREDICTED BY IDOCK:   -7.00 KCAL/MOL
REMARK 924 INTRA-LIGAND FREE ENERGY PREDICTED BY IDOCK:    0.11 KCAL/MOL
REMARK 927      BINDING AFFINITY PREDICTED BY RF-SCORE:    0.00 PKD
ROOT
HETATM    1  C   UNL     1      -9.259   9.774  64.694  1.00  0.00    -0.255 C  
HETATM    2  C   UNL     1      -9.371  10.379  63.299  1.00  0.00    -0.335 C  
HETATM    3  C   UNL     1      -8.982   9.189  62.375  1.00  0.00    -0.163 C  
HETATM    4  C   UNL     1      -8.340   8.143  63.276  1.00  0.00    -0.004 C  
HETATM    5  N   UNL     1      -8.246   8.779  64.569  1.00  0.00    -0.160 N  
HETATM    6  C   UNL     1      -8.039   7.940  65.634  1.00  0.00    -0.130 C  
HETATM    7  O   UNL     1      -7.262   7.002  65.496  1.00  0.00    -0.066 OA 
HETATM    8  C   UNL     1      -8.760   8.352  66.974  1.00  0.00    -0.126 C  
HETATM    9  C   UNL     1      -9.447  10.456  66.106  1.00  0.00    -0.181 C  
HETATM   10  N   UNL     1      -9.966   9.347  66.828  1.00  0.00    -0.220 N  
HETATM   11  C   UNL     1     -10.492  10.097  67.887  1.00  0.00    -0.222 C  
HETATM   12  H   UNL     1     -10.489  11.914  66.725  1.00  0.00     0.000 HD 
HETATM   13  C   UNL     1      -9.316  10.922  68.482  1.00  0.00    -0.181 C  
HETATM   14  O   UNL     1     -11.673  10.106  68.182  1.00  0.00    -0.199 OA 
HETATM   15  O   UNL     1     -10.376  11.504  65.876  1.00  0.00    -0.232 OA 
HETATM   16  O   UNL     1      -8.512  10.887  67.143  1.00  0.00    -0.125 OA 
HETATM   17  C   UNL     1     -10.272   9.703  70.754  1.00  0.00    -0.330 C  
HETATM   18  C   UNL     1      -7.782   9.813  70.552  1.00  0.00    -0.094 C  
HETATM   19  C   UNL     1      -9.084   9.900  69.753  1.00  0.00    -0.249 C  
ENDROOT
BRANCH   8  20
HETATM   20  C   UNL     1      -8.961   7.063  67.792  1.00  0.00    -0.121 C  
BRANCH  20  21
HETATM   21  C   UNL     1      -7.782   6.829  68.764  1.00  0.00    -0.110 A  
HETATM   22  C   UNL     1      -6.809   5.220  70.290  1.00  0.00    -0.048 A  
HETATM   23  C   UNL     1      -5.381   6.760  69.143  1.00  0.00    -0.014 A  
HETATM   24  C   UNL     1      -6.491   7.370  68.567  1.00  0.00    -0.041 A  
HETATM   25  C   UNL     1      -5.525   5.661  69.967  1.00  0.00    -0.005 A  
HETATM   26  C   UNL     1      -7.929   5.798  69.699  1.00  0.00    -0.100 A  
ENDBRANCH  20  21
ENDBRANCH   8  20
BRANCH  13  27
HETATM   27  N   UNL     1      -9.600  12.342  68.820  1.00  0.00    -0.406 NA 
HETATM   28  H   UNL     1     -10.190  12.621  69.603  1.00  0.00     0.000 HD 
BRANCH  27  29
HETATM   29  C   UNL     1      -9.028  13.188  68.030  1.00  0.00    -0.195 C  
HETATM   30  H   UNL     1      -9.167  14.136  66.269  1.00  0.00     0.000 HD 
HETATM   31  O   UNL     1      -9.587  13.513  66.851  1.00  0.00    -0.241 OA 
BRANCH  29  32
HETATM   32  C   UNL     1      -7.695  13.919  68.203  1.00  0.00    -0.142 C  
HETATM   33  C   UNL     1      -7.425  15.071  67.238  1.00  0.00    -0.181 C  
HETATM   34  N   UNL     1      -6.252  15.836  67.706  1.00  0.00    -0.142 NA 
HETATM   35  C   UNL     1      -6.440  16.553  69.012  1.00  0.00    -0.182 C  
HETATM   36  C   UNL     1      -5.624  16.613  66.652  1.00  0.00     0.114 C  
HETATM   37  C   UNL     1      -6.688  18.106  68.938  1.00  0.00    -0.256 C  
HETATM   38  C   UNL     1      -8.036  18.317  68.358  1.00  0.00    -0.322 A  
HETATM   39  C   UNL     1      -8.515  19.050  67.301  1.00  0.00    -0.277 A  
HETATM   40  N   UNL     1      -9.804  18.617  67.054  1.00  0.00    -0.313 NA 
HETATM   41  C   UNL     1     -10.166  17.637  67.957  1.00  0.00    -0.362 A  
HETATM   42  H   UNL     1     -10.404  18.972  66.309  1.00  0.00     0.000 HD 
HETATM   43  C   UNL     1     -11.280  16.801  68.050  1.00  0.00    -0.119 A  
HETATM   44  C   UNL     1     -11.261  15.824  69.061  1.00  0.00    -0.319 A  
HETATM   45  C   UNL     1     -10.127  15.600  69.854  1.00  0.00    -0.272 A  
HETATM   46  C   UNL     1      -8.957  16.327  69.609  1.00  0.00     0.238 A  
HETATM   47  C   UNL     1      -7.543  15.841  69.927  1.00  0.00     0.204 C  
HETATM   48  C   UNL     1      -9.070  17.450  68.772  1.00  0.00    -0.227 A  
HETATM   49  C   UNL     1      -7.382  14.325  69.679  1.00  0.00     0.110 C  
ENDBRANCH  29  32
ENDBRANCH  27  29
ENDBRANCH  13  27
TORSDOF 5
ENDMDL
MODEL       97
REMARK 921   NORMALIZED FREE ENERGY PREDICTED BY IDOCK:   -3.86 KCAL/MOL
REMARK 922        TOTAL FREE ENERGY PREDICTED BY IDOCK:   -6.83 KCAL/MOL
REMARK 923 INTER-LIGAND FREE ENERGY PREDICTED BY IDOCK:   -6.96 KCAL/MOL
REMARK 924 INTRA-LIGAND FREE ENERGY PREDICTED BY IDOCK:    0.12 KCAL/MOL
REMARK 927      BINDING AFFINITY PREDICTED BY RF-SCORE:    0.00 PKD
ROOT
HETATM    1  C   UNL     1      -6.921   6.501  72.851  1.00  0.00    -0.073 C  
HETATM    2  C   UNL     1      -5.666   6.896  73.620  1.00  0.00    -0.054 C  
HETATM    3  C   UNL     1      -5.441   5.678  74.563  1.00  0.00    -0.036 C  
HETATM    4  C   UNL     1      -6.736   4.877  74.536  1.00  0.00    -0.071 C  
HETATM    5  N   UNL     1      -7.650   5.680  73.759  1.00  0.00    -0.097 N  
HETATM    6  C   UNL     1      -8.760   5.029  73.283  1.00  0.00    -0.111 C  
HETATM    7  O   UNL     1      -9.323   4.222  74.015  1.00  0.00    -0.105 OA 
HETATM    8  C   UNL     1      -9.256   5.485  71.858  1.00  0.00    -0.141 C  
HETATM    9  C   UNL     1      -7.744   7.318  71.778  1.00  0.00    -0.087 C  
HETATM   10  N   UNL     1      -8.202   6.240  70.973  1.00  0.00    -0.121 N  
HETATM   11  C   UNL     1      -8.534   7.022  69.859  1.00  0.00    -0.140 C  
HETATM   12  H   UNL     1      -7.280   8.651  70.512  1.00  0.00     0.000 HD 
HETATM   13  C   UNL     1      -9.542   8.100  70.351  1.00  0.00    -0.170 C  
HETATM   14  O   UNL     1      -8.033   6.874  68.760  1.00  0.00    -0.116 OA 
HETATM   15  O   UNL     1      -6.785   8.160  71.158  1.00  0.00    -0.040 OA 
HETATM   16  O   UNL     1      -9.022   8.026  71.822  1.00  0.00    -0.127 OA 
HETATM   17  C   UNL     1     -10.936   7.040  68.231  1.00  0.00    -0.148 C  
HETATM   18  C   UNL     1     -12.288   7.533  70.276  1.00  0.00     0.364 C  
HETATM   19  C   UNL     1     -10.861   7.301  69.773  1.00  0.00    -0.251 C  
ENDROOT
BRANCH   8  20
HETATM   20  C   UNL     1     -10.019   4.296  71.245  1.00  0.00    -0.230 C  
BRANCH  20  21
HETATM   21  C   UNL     1      -9.147   3.547  70.211  1.00  0.00    -0.202 A  
HETATM   22  C   UNL     1      -7.892   1.511  69.837  1.00  0.00    -0.047 A  
HETATM   23  C   UNL     1      -8.905   2.620  67.976  1.00  0.00    -0.163 A  
HETATM   24  C   UNL     1      -9.340   3.642  68.814  1.00  0.00    -0.231 A  
HETATM   25  C   UNL     1      -8.222   1.533  68.481  1.00  0.00    -0.067 A  
HETATM   26  C   UNL     1      -8.345   2.508  70.696  1.00  0.00    -0.079 A  
ENDBRANCH  20  21
ENDBRANCH   8  20
BRANCH  13  27
HETATM   27  N   UNL     1      -9.337   9.484  69.851  1.00  0.00    -0.207 NA 
HETATM   28  H   UNL     1      -8.676  10.137  70.271  1.00  0.00     0.000 HD 
BRANCH  27  29
HETATM   29  C   UNL     1     -10.074   9.783  68.833  1.00  0.00    -0.183 C  
HETATM   30  H   UNL     1     -10.399   9.430  66.887  1.00  0.00     0.000 HD 
HETATM   31  O   UNL     1      -9.857   9.211  67.636  1.00  0.00    -0.156 OA 
BRANCH  29  32
HETATM   32  C   UNL     1     -11.225  10.787  68.739  1.00  0.00    -0.331 C  
HETATM   33  C   UNL     1     -11.146  11.996  69.670  1.00  0.00    -0.006 C  
HETATM   34  N   UNL     1     -12.161  12.990  69.268  1.00  0.00    -0.249 NA 
HETATM   35  C   UNL     1     -11.941  13.612  67.919  1.00  0.00    -0.347 C  
HETATM   36  C   UNL     1     -12.504  13.913  70.334  1.00  0.00    -0.334 C  
HETATM   37  C   UNL     1     -11.353  15.073  67.901  1.00  0.00    -0.344 C  
HETATM   38  C   UNL     1      -9.944  14.994  68.355  1.00  0.00    -0.225 A  
HETATM   39  C   UNL     1      -9.221  15.629  69.334  1.00  0.00    -0.279 A  
HETATM   40  N   UNL     1      -8.041  14.927  69.492  1.00  0.00    -0.398 NA 
HETATM   41  C   UNL     1      -7.987  13.868  68.606  1.00  0.00    -0.109 A  
HETATM   42  H   UNL     1      -7.312  15.159  70.167  1.00  0.00     0.000 HD 
HETATM   43  C   UNL     1      -7.097  12.804  68.459  1.00  0.00    -0.101 A  
HETATM   44  C   UNL     1      -7.423  11.829  67.498  1.00  0.00    -0.131 A  
HETATM   45  C   UNL     1      -8.646  11.843  66.815  1.00  0.00    -0.181 A  
HETATM   46  C   UNL     1      -9.601  12.817  67.124  1.00  0.00    -0.219 A  
HETATM   47  C   UNL     1     -11.110  12.650  66.948  1.00  0.00    -0.315 C  
HETATM   48  C   UNL     1      -9.168  13.909  67.896  1.00  0.00    -0.198 A  
HETATM   49  C   UNL     1     -11.576  11.214  67.278  1.00  0.00    -0.098 C  
ENDBRANCH  29  32
ENDBRANCH  27  29
ENDBRANCH  13  27
TORSDOF 5
ENDMDL
MODEL       98
REMARK 921   NORMALIZED FREE ENERGY PREDICTED BY IDOCK:   -3.85 KCAL/MOL
REMARK 922        TOTAL FREE ENERGY PREDICTED BY IDOCK:   -6.82 KCAL/MOL
REMARK 923 INTER-LIGAND FREE ENERGY PREDICTED BY IDOCK:   -6.44 KCAL/MOL
REMARK 924 INTRA-LIGAND FREE ENERGY PREDICTED BY IDOCK:   -0.38 KCAL/MOL
REMARK 927      BINDING AFFINITY PREDICTED BY RF-SCORE:    0.00 PKD
ROOT
HETATM    1  C   UNL     1      -6.451   8.930  70.005  1.00  0.00    -0.042 C  
HETATM    2  C   UNL     1      -5.507  10.103  70.242  1.00  0.00    -0.050 C  
HETATM    3  C   UNL     1      -5.144   9.955  71.747  1.00  0.00    -0.077 C  
HETATM    4  C   UNL     1      -6.153   8.976  72.333  1.00  0.00     0.003 C  
HETATM    5  N   UNL     1      -7.090   8.728  71.262  1.00  0.00    -0.085 N  
HETATM    6  C   UNL     1      -7.882   7.618  71.407  1.00  0.00    -0.089 C  
HETATM    7  O   UNL     1      -8.334   7.363  72.518  1.00  0.00    -0.105 OA 
HETATM    8  C   UNL     1      -8.212   6.841  70.076  1.00  0.00    -0.134 C  
HETATM    9  C   UNL     1      -7.251   8.527  68.702  1.00  0.00    -0.080 C  
HETATM   10  N   UNL     1      -7.252   7.115  68.864  1.00  0.00    -0.088 N  
HETATM   11  C   UNL     1      -7.571   6.819  67.532  1.00  0.00    -0.106 C  
HETATM   12  H   UNL     1      -6.934   8.762  66.848  1.00  0.00     0.000 HD 
HETATM   13  C   UNL     1      -8.901   7.559  67.212  1.00  0.00    -0.124 C  
HETATM   14  O   UNL     1      -6.857   6.158  66.802  1.00  0.00    -0.059 OA 
HETATM   15  O   UNL     1      -6.453   9.004  67.631  1.00  0.00    -0.059 OA 
HETATM   16  O   UNL     1      -8.657   8.637  68.317  1.00  0.00    -0.136 OA 
HETATM   17  C   UNL     1      -9.554   5.002  66.440  1.00  0.00    -0.171 C  
HETATM   18  C   UNL     1     -11.337   6.248  67.672  1.00  0.00    -0.001 C  
HETATM   19  C   UNL     1      -9.833   6.214  67.392  1.00  0.00    -0.151 C  
ENDROOT
BRANCH   8  20
HETATM   20  C   UNL     1      -8.508   5.381  70.467  1.00  0.00    -0.122 C  
BRANCH  20  21
HETATM   21  C   UNL     1      -9.909   5.247  71.106  1.00  0.00    -0.250 A  
HETATM   22  C   UNL     1     -11.078   4.509  73.093  1.00  0.00    -0.350 A  
HETATM   23  C   UNL     1     -11.990   6.300  71.795  1.00  0.00    -0.313 A  
HETATM   24  C   UNL     1     -10.965   6.156  70.866  1.00  0.00    -0.359 A  
HETATM   25  C   UNL     1     -12.032   5.515  72.930  1.00  0.00    -0.046 A  
HETATM   26  C   UNL     1     -10.028   4.372  72.190  1.00  0.00    -0.249 A  
ENDBRANCH  20  21
ENDBRANCH   8  20
BRANCH  13  27
HETATM   27  N   UNL     1      -8.982   8.248  65.897  1.00  0.00    -0.222 NA 
HETATM   28  H   UNL     1      -8.423   7.975  65.090  1.00  0.00     0.000 HD 
BRANCH  27  29
HETATM   29  C   UNL     1      -9.827   9.224  65.873  1.00  0.00    -0.265 C  
HETATM   30  H   UNL     1     -11.271  10.165  66.897  1.00  0.00     0.000 HD 
HETATM   31  O   UNL     1     -10.649   9.447  66.914  1.00  0.00    -0.231 OA 
BRANCH  29  32
HETATM   32  C   UNL     1     -10.102  10.233  64.756  1.00  0.00    -0.336 C  
HETATM   33  C   UNL     1     -11.384  11.053  64.885  1.00  0.00     0.294 C  
HETATM   34  N   UNL     1     -11.361  12.153  63.900  1.00  0.00    -0.389 NA 
HETATM   35  C   UNL     1     -10.297  13.188  64.127  1.00  0.00    -0.263 C  
HETATM   36  C   UNL     1     -12.683  12.672  63.599  1.00  0.00    -0.223 C  
HETATM   37  C   UNL     1     -10.760  14.552  64.764  1.00  0.00    -0.414 C  
HETATM   38  C   UNL     1     -11.131  14.284  66.174  1.00  0.00    -0.324 A  
HETATM   39  C   UNL     1     -12.252  14.531  66.927  1.00  0.00    -0.189 A  
HETATM   40  N   UNL     1     -12.139  13.784  68.084  1.00  0.00    -0.433 NA 
HETATM   41  C   UNL     1     -10.947  13.085  68.094  1.00  0.00    -0.244 A  
HETATM   42  H   UNL     1     -12.837  13.754  68.827  1.00  0.00     0.000 HD 
HETATM   43  C   UNL     1     -10.431  12.108  68.946  1.00  0.00    -0.142 A  
HETATM   44  C   UNL     1      -9.205  11.524  68.578  1.00  0.00    -0.167 A  
HETATM   45  C   UNL     1      -8.592  11.803  67.349  1.00  0.00    -0.160 A  
HETATM   46  C   UNL     1      -9.232  12.642  66.431  1.00  0.00    -0.162 A  
HETATM   47  C   UNL     1      -9.041  12.587  64.915  1.00  0.00     0.834 C  
HETATM   48  C   UNL     1     -10.317  13.396  66.908  1.00  0.00    -0.257 A  
HETATM   49  C   UNL     1      -8.877  11.138  64.405  1.00  0.00     0.095 C  
ENDBRANCH  29  32
ENDBRANCH  27  29
ENDBRANCH  13  27
TORSDOF 5
ENDMDL
MODEL       99
REMARK 921   NORMALIZED FREE ENERGY PREDICTED BY IDOCK:   -3.84 KCAL/MOL
REMARK 922        TOTAL FREE ENERGY PREDICTED BY IDOCK:   -6.80 KCAL/MOL
REMARK 923 INTER-LIGAND FREE ENERGY PREDICTED BY IDOCK:   -7.19 KCAL/MOL
REMARK 924 INTRA-LIGAND FREE ENERGY PREDICTED BY IDOCK:    0.38 KCAL/MOL
REMARK 927      BINDING AFFINITY PREDICTED BY RF-SCORE:    0.00 PKD
ROOT
HETATM    1  C   UNL     1      -8.978   8.808  66.426  1.00  0.00    -0.158 C  
HETATM    2  C   UNL     1      -9.637  10.175  66.287  1.00  0.00    -0.245 C  
HETATM    3  C   UNL     1      -8.539  11.015  65.572  1.00  0.00    -0.104 C  
HETATM    4  C   UNL     1      -7.250  10.213  65.684  1.00  0.00    -0.137 C  
HETATM    5  N   UNL     1      -7.586   9.093  66.531  1.00  0.00    -0.092 N  
HETATM    6  C   UNL     1      -6.713   8.036  66.498  1.00  0.00    -0.062 C  
HETATM    7  O   UNL     1      -5.510   8.272  66.460  1.00  0.00    -0.028 OA 
HETATM    8  C   UNL     1      -7.368   6.608  66.625  1.00  0.00    -0.078 C  
HETATM    9  C   UNL     1      -9.515   7.498  67.130  1.00  0.00    -0.154 C  
HETATM   10  N   UNL     1      -8.901   6.524  66.295  1.00  0.00    -0.143 N  
HETATM   11  C   UNL     1      -9.727   5.461  66.684  1.00  0.00    -0.161 C  
HETATM   12  H   UNL     1     -11.248   6.794  67.434  1.00  0.00     0.000 HD 
HETATM   13  C   UNL     1      -9.605   5.339  68.230  1.00  0.00    -0.130 C  
HETATM   14  O   UNL     1     -10.433   4.842  65.911  1.00  0.00    -0.285 OA 
HETATM   15  O   UNL     1     -10.926   7.581  67.011  1.00  0.00    -0.306 OA 
HETATM   16  O   UNL     1      -9.194   6.838  68.393  1.00  0.00    -0.126 OA 
HETATM   17  C   UNL     1      -9.047   2.754  67.478  1.00  0.00    -0.213 C  
HETATM   18  C   UNL     1      -7.624   3.677  69.315  1.00  0.00    -0.052 C  
HETATM   19  C   UNL     1      -8.555   4.072  68.167  1.00  0.00    -0.111 C  
ENDROOT
BRANCH   8  20
HETATM   20  C   UNL     1      -6.412   5.611  65.944  1.00  0.00    -0.040 C  
BRANCH  20  21
HETATM   21  C   UNL     1      -6.952   5.171  64.565  1.00  0.00    -0.049 A  
HETATM   22  C   UNL     1      -8.237   3.459  63.435  1.00  0.00    -0.089 A  
HETATM   23  C   UNL     1      -8.255   5.692  62.579  1.00  0.00    -0.106 A  
HETATM   24  C   UNL     1      -7.344   6.081  63.555  1.00  0.00    -0.065 A  
HETATM   25  C   UNL     1      -8.741   4.401  62.536  1.00  0.00    -0.105 A  
HETATM   26  C   UNL     1      -7.349   3.836  64.438  1.00  0.00    -0.067 A  
ENDBRANCH  20  21
ENDBRANCH   8  20
BRANCH  13  27
HETATM   27  N   UNL     1     -10.867   5.115  68.983  1.00  0.00     0.153 NA 
HETATM   28  H   UNL     1     -11.626   4.529  68.638  1.00  0.00     0.000 HD 
BRANCH  27  29
HETATM   29  C   UNL     1     -10.911   5.732  70.117  1.00  0.00    -0.298 C  
HETATM   30  H   UNL     1     -11.504   7.405  71.048  1.00  0.00     0.000 HD 
HETATM   31  O   UNL     1     -11.471   6.951  70.214  1.00  0.00    -0.311 OA 
BRANCH  29  32
HETATM   32  C   UNL     1     -10.359   5.293  71.475  1.00  0.00    -0.287 C  
HETATM   33  C   UNL     1      -8.849   5.419  71.664  1.00  0.00    -0.135 C  
HETATM   34  N   UNL     1      -8.517   5.226  73.089  1.00  0.00    -0.114 NA 
HETATM   35  C   UNL     1      -9.043   6.286  74.014  1.00  0.00    -0.135 C  
HETATM   36  C   UNL     1      -7.134   4.841  73.303  1.00  0.00    -0.076 C  
HETATM   37  C   UNL     1      -8.008   7.358  74.523  1.00  0.00    -0.205 C  
HETATM   38  C   UNL     1      -7.645   8.213  73.368  1.00  0.00    -0.200 A  
HETATM   39  C   UNL     1      -6.454   8.583  72.793  1.00  0.00    -0.077 A  
HETATM   40  N   UNL     1      -6.750   9.140  71.564  1.00  0.00    -0.240 NA 
HETATM   41  C   UNL     1      -8.116   9.158  71.357  1.00  0.00     0.059 A  
HETATM   42  H   UNL     1      -6.056   9.489  70.902  1.00  0.00     0.000 HD 
HETATM   43  C   UNL     1      -8.900   9.482  70.249  1.00  0.00    -0.281 A  
HETATM   44  C   UNL     1     -10.286   9.273  70.367  1.00  0.00    -0.291 A  
HETATM   45  C   UNL     1     -10.848   8.644  71.486  1.00  0.00    -0.352 A  
HETATM   46  C   UNL     1     -10.013   8.157  72.497  1.00  0.00    -0.372 A  
HETATM   47  C   UNL     1     -10.353   6.991  73.426  1.00  0.00    -0.370 C  
HETATM   48  C   UNL     1      -8.675   8.585  72.479  1.00  0.00    -0.226 A  
HETATM   49  C   UNL     1     -11.139   5.880  72.696  1.00  0.00    -0.322 C  
ENDBRANCH  29  32
ENDBRANCH  27  29
ENDBRANCH  13  27
TORSDOF 5
ENDMDL
MODEL      100
REMARK 921   NORMALIZED FREE ENERGY PREDICTED BY IDOCK:   -3.83 KCAL/MOL
REMARK 922        TOTAL FREE ENERGY PREDICTED BY IDOCK:   -6.79 KCAL/MOL
REMARK 923 INTER-LIGAND FREE ENERGY PREDICTED BY IDOCK:   -6.73 KCAL/MOL
REMARK 924 INTRA-LIGAND FREE ENERGY PREDICTED BY IDOCK:   -0.06 KCAL/MOL
REMARK 927      BINDING AFFINITY PREDICTED BY RF-SCORE:    0.00 PKD
ROOT
HETATM    1  C   UNL     1      -7.686   8.592  64.208  1.00  0.00    -0.128 C  
HETATM    2  C   UNL     1      -7.502   8.865  62.719  1.00  0.00    -0.105 C  
HETATM    3  C   UNL     1      -6.307   7.940  62.345  1.00  0.00    -0.081 C  
HETATM    4  C   UNL     1      -5.678   7.506  63.662  1.00  0.00    -0.045 C  
HETATM    5  N   UNL     1      -6.381   8.260  64.673  1.00  0.00    -0.064 N  
HETATM    6  C   UNL     1      -6.258   7.797  65.958  1.00  0.00    -0.042 C  
HETATM    7  O   UNL     1      -5.164   7.388  66.330  1.00  0.00    -0.023 OA 
HETATM    8  C   UNL     1      -7.542   7.947  66.860  1.00  0.00    -0.099 C  
HETATM    9  C   UNL     1      -8.685   9.256  65.237  1.00  0.00    -0.184 C  
HETATM   10  N   UNL     1      -8.900   8.144  66.095  1.00  0.00    -0.154 N  
HETATM   11  C   UNL     1     -10.066   8.643  66.690  1.00  0.00    -0.294 C  
HETATM   12  H   UNL     1     -10.408  10.030  65.074  1.00  0.00     0.000 HD 
HETATM   13  C   UNL     1      -9.702  10.028  67.298  1.00  0.00    -0.167 C  
HETATM   14  O   UNL     1     -11.142   8.078  66.638  1.00  0.00     0.248 OA 
HETATM   15  O   UNL     1      -9.807   9.631  64.454  1.00  0.00    -0.031 OA 
HETATM   16  O   UNL     1      -8.516  10.240  66.305  1.00  0.00    -0.130 OA 
HETATM   17  C   UNL     1     -10.825   8.798  69.487  1.00  0.00    -0.151 C  
HETATM   18  C   UNL     1      -8.774  10.155  69.942  1.00  0.00    -0.091 C  
HETATM   19  C   UNL     1      -9.559   9.449  68.834  1.00  0.00    -0.155 C  
ENDROOT
BRANCH   8  20
HETATM   20  C   UNL     1      -7.459   6.859  67.947  1.00  0.00    -0.099 C  
BRANCH  20  21
HETATM   21  C   UNL     1      -6.711   7.376  69.197  1.00  0.00    -0.052 A  
HETATM   22  C   UNL     1      -5.666   9.332  70.168  1.00  0.00    -0.031 A  
HETATM   23  C   UNL     1      -6.663   7.701  71.606  1.00  0.00    -0.045 A  
HETATM   24  C   UNL     1      -6.962   6.904  70.506  1.00  0.00    -0.063 A  
HETATM   25  C   UNL     1      -6.058   8.932  71.447  1.00  0.00    -0.061 A  
HETATM   26  C   UNL     1      -5.984   8.563  69.053  1.00  0.00    -0.043 A  
ENDBRANCH  20  21
ENDBRANCH   8  20
BRANCH  13  27
HETATM   27  N   UNL     1     -10.685  11.125  67.095  1.00  0.00    -0.245 NA 
HETATM   28  H   UNL     1     -10.957  11.466  66.174  1.00  0.00     0.000 HD 
BRANCH  27  29
HETATM   29  C   UNL     1     -11.162  11.606  68.195  1.00  0.00    -0.263 C  
HETATM   30  H   UNL     1     -12.700  11.543  69.478  1.00  0.00     0.000 HD 
HETATM   31  O   UNL     1     -12.349  11.189  68.669  1.00  0.00    -0.549 OA 
BRANCH  29  32
HETATM   32  C   UNL     1     -10.575  12.684  69.109  1.00  0.00     0.008 C  
HETATM   33  C   UNL     1      -9.384  13.464  68.557  1.00  0.00    -0.097 C  
HETATM   34  N   UNL     1      -9.120  14.630  69.423  1.00  0.00     0.048 NA 
HETATM   35  C   UNL     1     -10.203  15.670  69.438  1.00  0.00    -0.261 C  
HETATM   36  C   UNL     1      -7.767  15.139  69.292  1.00  0.00    -0.204 C  
HETATM   37  C   UNL     1      -9.942  16.975  68.597  1.00  0.00    -0.294 C  
HETATM   38  C   UNL     1      -9.995  16.602  67.164  1.00  0.00    -0.268 A  
HETATM   39  C   UNL     1      -9.140  16.772  66.103  1.00  0.00    -0.253 A  
HETATM   40  N   UNL     1      -9.583  15.949  65.085  1.00  0.00    -0.188 NA 
HETATM   41  C   UNL     1     -10.727  15.277  65.471  1.00  0.00    -0.371 A  
HETATM   42  H   UNL     1      -9.130  15.851  64.177  1.00  0.00     0.000 HD 
HETATM   43  C   UNL     1     -11.469  14.255  64.877  1.00  0.00    -0.378 A  
HETATM   44  C   UNL     1     -12.537  13.726  65.625  1.00  0.00    -0.551 A  
HETATM   45  C   UNL     1     -12.768  14.102  66.954  1.00  0.00     0.313 A  
HETATM   46  C   UNL     1     -11.890  14.989  67.585  1.00  0.00    -0.205 A  
HETATM   47  C   UNL     1     -11.633  15.044  69.091  1.00  0.00    -0.333 C  
HETATM   48  C   UNL     1     -10.988  15.684  66.762  1.00  0.00    -0.230 A  
HETATM   49  C   UNL     1     -11.645  13.638  69.731  1.00  0.00    -0.322 C  
ENDBRANCH  29  32
ENDBRANCH  27  29
ENDBRANCH  13  27
TORSDOF 5
ENDMDL
MODEL      101
REMARK 921   NORMALIZED FREE ENERGY PREDICTED BY IDOCK:   -3.83 KCAL/MOL
REMARK 922        TOTAL FREE ENERGY PREDICTED BY IDOCK:   -6.79 KCAL/MOL
REMARK 923 INTER-LIGAND FREE ENERGY PREDICTED BY IDOCK:   -5.82 KCAL/MOL
REMARK 924 INTRA-LIGAND FREE ENERGY PREDICTED BY IDOCK:   -0.98 KCAL/MOL
REMARK 927      BINDING AFFINITY PREDICTED BY RF-SCORE:    0.00 PKD
ROOT
HETATM    1  C   UNL     1     -11.178  11.262  69.502  1.00  0.00    -0.272 C  
HETATM    2  C   UNL     1     -12.132  11.593  70.644  1.00  0.00    -0.432 C  
HETATM    3  C   UNL     1     -12.245  13.143  70.560  1.00  0.00    -0.405 C  
HETATM    4  C   UNL     1     -11.108  13.603  69.659  1.00  0.00    -0.008 C  
HETATM    5  N   UNL     1     -10.340  12.409  69.395  1.00  0.00     0.315 N  
HETATM    6  C   UNL     1      -9.479  12.476  68.330  1.00  0.00    -0.167 C  
HETATM    7  O   UNL     1      -8.844  13.510  68.155  1.00  0.00    -0.169 OA 
HETATM    8  C   UNL     1      -9.322  11.146  67.499  1.00  0.00    -0.168 C  
HETATM    9  C   UNL     1     -10.573   9.868  69.066  1.00  0.00    -0.220 C  
HETATM   10  N   UNL     1     -10.474  10.092  67.666  1.00  0.00    -0.228 N  
HETATM   11  C   UNL     1     -10.354   8.741  67.313  1.00  0.00    -0.290 C  
HETATM   12  H   UNL     1     -11.190   8.080  69.188  1.00  0.00     0.000 HD 
HETATM   13  C   UNL     1      -9.131   8.179  68.093  1.00  0.00    -0.134 C  
HETATM   14  O   UNL     1     -11.139   8.165  66.583  1.00  0.00     0.273 OA 
HETATM   15  O   UNL     1     -11.554   8.918  69.450  1.00  0.00     0.304 OA 
HETATM   16  O   UNL     1      -9.254   9.259  69.216  1.00  0.00    -0.144 OA 
HETATM   17  C   UNL     1      -8.477   7.430  65.529  1.00  0.00    -0.126 C  
HETATM   18  C   UNL     1      -6.588   8.303  66.916  1.00  0.00    -0.057 C  
HETATM   19  C   UNL     1      -8.114   8.269  66.801  1.00  0.00    -0.103 C  
ENDROOT
BRANCH   8  20
HETATM   20  C   UNL     1      -8.894  11.551  66.076  1.00  0.00    -0.144 C  
BRANCH  20  21
HETATM   21  C   UNL     1     -10.102  12.046  65.249  1.00  0.00    -0.289 A  
HETATM   22  C   UNL     1     -11.160  11.904  63.076  1.00  0.00    -0.085 A  
HETATM   23  C   UNL     1     -12.512  12.270  65.015  1.00  0.00    -0.257 A  
HETATM   24  C   UNL     1     -11.371  12.320  65.809  1.00  0.00    -0.400 A  
HETATM   25  C   UNL     1     -12.422  12.019  63.661  1.00  0.00    -0.637 A  
HETATM   26  C   UNL     1     -10.009  11.920  63.858  1.00  0.00    -0.354 A  
ENDBRANCH  20  21
ENDBRANCH   8  20
BRANCH  13  27
HETATM   27  N   UNL     1      -9.294   6.838  68.713  1.00  0.00    -0.133 NA 
HETATM   28  H   UNL     1      -9.504   5.998  68.176  1.00  0.00     0.000 HD 
BRANCH  27  29
HETATM   29  C   UNL     1      -9.144   6.837  69.996  1.00  0.00    -0.148 C  
HETATM   30  H   UNL     1     -10.040   6.456  71.748  1.00  0.00     0.000 HD 
HETATM   31  O   UNL     1     -10.149   6.457  70.805  1.00  0.00    -0.184 OA 
BRANCH  29  32
HETATM   32  C   UNL     1      -7.931   7.265  70.824  1.00  0.00    -0.099 C  
HETATM   33  C   UNL     1      -8.002   6.984  72.324  1.00  0.00    -0.092 C  
HETATM   34  N   UNL     1      -6.670   7.193  72.924  1.00  0.00    -0.064 NA 
HETATM   35  C   UNL     1      -5.610   6.231  72.470  1.00  0.00    -0.037 C  
HETATM   36  C   UNL     1      -6.723   7.433  74.355  1.00  0.00    -0.095 C  
HETATM   37  C   UNL     1      -5.231   5.073  73.467  1.00  0.00    -0.013 C  
HETATM   38  C   UNL     1      -6.382   4.141  73.530  1.00  0.00    -0.040 A  
HETATM   39  C   UNL     1      -7.134   3.623  74.555  1.00  0.00    -0.052 A  
HETATM   40  N   UNL     1      -8.260   3.056  73.989  1.00  0.00    -0.069 NA 
HETATM   41  C   UNL     1      -8.223   3.178  72.613  1.00  0.00    -0.075 A  
HETATM   42  H   UNL     1      -9.012   2.609  74.514  1.00  0.00     0.000 HD 
HETATM   43  C   UNL     1      -9.157   2.900  71.615  1.00  0.00    -0.163 A  
HETATM   44  C   UNL     1      -8.810   3.261  70.300  1.00  0.00    -0.145 A  
HETATM   45  C   UNL     1      -7.648   3.989  70.014  1.00  0.00    -0.049 A  
HETATM   46  C   UNL     1      -6.826   4.420  71.061  1.00  0.00    -0.036 A  
HETATM   47  C   UNL     1      -5.919   5.650  71.012  1.00  0.00    -0.029 C  
HETATM   48  C   UNL     1      -7.054   3.850  72.325  1.00  0.00    -0.051 A  
HETATM   49  C   UNL     1      -6.562   6.812  70.223  1.00  0.00    -0.044 C  
ENDBRANCH  29  32
ENDBRANCH  27  29
ENDBRANCH  13  27
TORSDOF 5
ENDMDL
MODEL      102
REMARK 921   NORMALIZED FREE ENERGY PREDICTED BY IDOCK:   -3.76 KCAL/MOL
REMARK 922        TOTAL FREE ENERGY PREDICTED BY IDOCK:   -6.70 KCAL/MOL
REMARK 923 INTER-LIGAND FREE ENERGY PREDICTED BY IDOCK:   -7.08 KCAL/MOL
REMARK 924 INTRA-LIGAND FREE ENERGY PREDICTED BY IDOCK:    0.37 KCAL/MOL
REMARK 927      BINDING AFFINITY PREDICTED BY RF-SCORE:    0.00 PKD
ROOT
HETATM    1  C   UNL     1      -9.180  11.359  66.963  1.00  0.00    -0.169 C  
HETATM    2  C   UNL     1     -10.255  12.412  66.720  1.00  0.00    -0.234 C  
HETATM    3  C   UNL     1      -9.432  13.728  66.617  1.00  0.00    -0.289 C  
HETATM    4  C   UNL     1      -8.046  13.405  67.158  1.00  0.00    -0.083 C  
HETATM    5  N   UNL     1      -8.152  12.056  67.661  1.00  0.00    -0.144 N  
HETATM    6  C   UNL     1      -6.965  11.401  67.872  1.00  0.00    -0.073 C  
HETATM    7  O   UNL     1      -6.030  12.029  68.356  1.00  0.00    -0.049 OA 
HETATM    8  C   UNL     1      -6.975   9.857  67.557  1.00  0.00    -0.083 C  
HETATM    9  C   UNL     1      -9.331   9.809  67.234  1.00  0.00    -0.138 C  
HETATM   10  N   UNL     1      -8.132   9.354  66.621  1.00  0.00    -0.108 N  
HETATM   11  C   UNL     1      -8.524   8.013  66.516  1.00  0.00    -0.136 C  
HETATM   12  H   UNL     1     -10.613   8.510  66.720  1.00  0.00     0.000 HD 
HETATM   13  C   UNL     1      -8.886   7.536  67.952  1.00  0.00    -0.126 C  
HETATM   14  O   UNL     1      -8.610   7.420  65.457  1.00  0.00    -0.139 OA 
HETATM   15  O   UNL     1     -10.522   9.442  66.557  1.00  0.00    -0.215 OA 
HETATM   16  O   UNL     1      -9.208   8.986  68.436  1.00  0.00    -0.136 OA 
HETATM   17  C   UNL     1      -7.097   5.583  67.211  1.00  0.00    -0.074 C  
HETATM   18  C   UNL     1      -6.883   6.411  69.561  1.00  0.00    -0.065 C  
HETATM   19  C   UNL     1      -7.453   6.758  68.183  1.00  0.00    -0.099 C  
ENDROOT
BRANCH   8  20
HETATM   20  C   UNL     1      -5.527   9.455  67.223  1.00  0.00    -0.040 C  
BRANCH  20  21
HETATM   21  C   UNL     1      -5.305   9.389  65.694  1.00  0.00    -0.040 A  
HETATM   22  C   UNL     1      -5.429   7.922  63.772  1.00  0.00    -0.048 A  
HETATM   23  C   UNL     1      -5.797  10.268  63.481  1.00  0.00    -0.144 A  
HETATM   24  C   UNL     1      -5.522  10.485  64.827  1.00  0.00    -0.140 A  
HETATM   25  C   UNL     1      -5.797   8.992  62.955  1.00  0.00    -0.089 A  
HETATM   26  C   UNL     1      -5.181   8.116  65.128  1.00  0.00    -0.032 A  
ENDBRANCH  20  21
ENDBRANCH   8  20
BRANCH  13  27
HETATM   27  N   UNL     1     -10.115   6.712  68.091  1.00  0.00    -0.150 NA 
HETATM   28  H   UNL     1     -10.407   6.025  67.397  1.00  0.00     0.000 HD 
BRANCH  27  29
HETATM   29  C   UNL     1     -10.778   6.947  69.175  1.00  0.00    -0.234 C  
HETATM   30  H   UNL     1     -11.657   8.369  70.280  1.00  0.00     0.000 HD 
HETATM   31  O   UNL     1     -11.169   8.196  69.483  1.00  0.00    -0.034 OA 
BRANCH  29  32
HETATM   32  C   UNL     1     -11.198   5.972  70.277  1.00  0.00    -0.392 C  
HETATM   33  C   UNL     1     -10.076   5.175  70.939  1.00  0.00    -0.232 C  
HETATM   34  N   UNL     1     -10.599   4.504  72.145  1.00  0.00    -0.123 NA 
HETATM   35  C   UNL     1     -11.029   5.426  73.250  1.00  0.00    -0.307 C  
HETATM   36  C   UNL     1      -9.795   3.368  72.557  1.00  0.00    -0.153 C  
HETATM   37  C   UNL     1     -10.046   5.572  74.472  1.00  0.00    -0.293 C  
HETATM   38  C   UNL     1      -8.852   6.312  74.000  1.00  0.00    -0.133 A  
HETATM   39  C   UNL     1      -7.502   6.065  74.037  1.00  0.00    -0.091 A  
HETATM   40  N   UNL     1      -6.899   6.958  73.172  1.00  0.00    -0.074 NA 
HETATM   41  C   UNL     1      -7.842   7.792  72.604  1.00  0.00    -0.110 A  
HETATM   42  H   UNL     1      -5.898   6.997  72.980  1.00  0.00     0.000 HD 
HETATM   43  C   UNL     1      -7.771   8.748  71.590  1.00  0.00    -0.117 A  
HETATM   44  C   UNL     1      -8.981   9.339  71.185  1.00  0.00    -0.168 A  
HETATM   45  C   UNL     1     -10.219   8.899  71.671  1.00  0.00    -0.415 A  
HETATM   46  C   UNL     1     -10.271   7.808  72.544  1.00  0.00    -0.320 A  
HETATM   47  C   UNL     1     -11.463   6.861  72.691  1.00  0.00    -0.235 C  
HETATM   48  C   UNL     1      -9.058   7.395  73.119  1.00  0.00    -0.207 A  
HETATM   49  C   UNL     1     -12.161   6.594  71.339  1.00  0.00    -0.400 C  
ENDBRANCH  29  32
ENDBRANCH  27  29
ENDBRANCH  13  27
TORSDOF 5
ENDMDL
MODEL      103
REMARK 921   NORMALIZED FREE ENERGY PREDICTED BY IDOCK:   -3.73 KCAL/MOL
REMARK 922        TOTAL FREE ENERGY PREDICTED BY IDOCK:   -6.67 KCAL/MOL
REMARK 923 INTER-LIGAND FREE ENERGY PREDICTED BY IDOCK:   -5.82 KCAL/MOL
REMARK 924 INTRA-LIGAND FREE ENERGY PREDICTED BY IDOCK:   -0.84 KCAL/MOL
REMARK 927      BINDING AFFINITY PREDICTED BY RF-SCORE:    0.00 PKD
ROOT
HETATM    1  C   UNL     1      -9.545   5.758  67.484  1.00  0.00    -0.114 C  
HETATM    2  C   UNL     1     -10.720   5.361  66.598  1.00  0.00    -0.309 C  
HETATM    3  C   UNL     1     -10.211   4.060  65.913  1.00  0.00    -0.031 C  
HETATM    4  C   UNL     1      -8.709   4.012  66.156  1.00  0.00    -0.116 C  
HETATM    5  N   UNL     1      -8.398   5.270  66.793  1.00  0.00    -0.108 N  
HETATM    6  C   UNL     1      -7.189   5.331  67.437  1.00  0.00    -0.075 C  
HETATM    7  O   UNL     1      -6.218   4.801  66.909  1.00  0.00    -0.030 OA 
HETATM    8  C   UNL     1      -7.166   6.187  68.760  1.00  0.00    -0.084 C  
HETATM    9  C   UNL     1      -9.361   7.030  68.404  1.00  0.00    -0.130 C  
HETATM   10  N   UNL     1      -8.561   6.455  69.429  1.00  0.00    -0.129 N  
HETATM   11  C   UNL     1      -8.794   7.463  70.374  1.00  0.00    -0.149 C  
HETATM   12  H   UNL     1     -10.567   8.143  69.353  1.00  0.00     0.000 HD 
HETATM   13  C   UNL     1      -8.359   8.805  69.718  1.00  0.00    -0.127 C  
HETATM   14  O   UNL     1      -9.309   7.262  71.458  1.00  0.00    -0.149 OA 
HETATM   15  O   UNL     1     -10.678   7.378  68.799  1.00  0.00    -0.194 OA 
HETATM   16  O   UNL     1      -8.578   8.257  68.271  1.00  0.00    -0.131 OA 
HETATM   17  C   UNL     1      -6.932   8.911  72.066  1.00  0.00     0.023 C  
HETATM   18  C   UNL     1      -5.711   9.678  70.023  1.00  0.00    -0.041 C  
HETATM   19  C   UNL     1      -6.911   8.857  70.501  1.00  0.00    -0.057 C  
ENDROOT
BRANCH   8  20
HETATM   20  C   UNL     1      -6.023   5.638  69.633  1.00  0.00    -0.021 C  
BRANCH  20  21
HETATM   21  C   UNL     1      -6.548   4.604  70.655  1.00  0.00    -0.035 A  
HETATM   22  C   UNL     1      -7.393   4.354  72.910  1.00  0.00    -0.079 A  
HETATM   23  C   UNL     1      -8.135   2.846  71.207  1.00  0.00    -0.067 A  
HETATM   24  C   UNL     1      -7.281   3.451  70.291  1.00  0.00    -0.041 A  
HETATM   25  C   UNL     1      -8.231   3.315  72.502  1.00  0.00    -0.075 A  
HETATM   26  C   UNL     1      -6.556   4.992  71.999  1.00  0.00    -0.040 A  
ENDBRANCH  20  21
ENDBRANCH   8  20
BRANCH  13  27
HETATM   27  N   UNL     1      -9.261   9.969  69.919  1.00  0.00    -0.350 NA 
HETATM   28  H   UNL     1      -9.339  10.468  70.804  1.00  0.00     0.000 HD 
BRANCH  27  29
HETATM   29  C   UNL     1      -9.937  10.291  68.866  1.00  0.00    -0.201 C  
HETATM   30  H   UNL     1     -11.769  10.675  68.151  1.00  0.00     0.000 HD 
HETATM   31  O   UNL     1     -11.272  10.439  68.925  1.00  0.00    -0.236 OA 
BRANCH  29  32
HETATM   32  C   UNL     1      -9.442  10.515  67.435  1.00  0.00    -0.172 C  
HETATM   33  C   UNL     1     -10.516  10.769  66.380  1.00  0.00    -0.233 C  
HETATM   34  N   UNL     1      -9.877  11.237  65.134  1.00  0.00    -0.240 NA 
HETATM   35  C   UNL     1      -9.201  12.574  65.229  1.00  0.00     0.435 C  
HETATM   36  C   UNL     1     -10.708  11.039  63.961  1.00  0.00    -0.261 C  
HETATM   37  C   UNL     1      -9.967  13.800  64.604  1.00  0.00    -0.032 C  
HETATM   38  C   UNL     1     -11.149  14.072  65.457  1.00  0.00    -0.309 A  
HETATM   39  C   UNL     1     -12.493  14.197  65.211  1.00  0.00    -0.461 A  
HETATM   40  N   UNL     1     -13.139  14.144  66.431  1.00  0.00    -0.200 NA 
HETATM   41  C   UNL     1     -12.222  14.016  67.458  1.00  0.00    -0.223 A  
HETATM   42  H   UNL     1     -14.150  14.192  66.557  1.00  0.00     0.000 HD 
HETATM   43  C   UNL     1     -12.362  13.789  68.827  1.00  0.00    -0.041 A  
HETATM   44  C   UNL     1     -11.180  13.601  69.566  1.00  0.00    -0.205 A  
HETATM   45  C   UNL     1      -9.927  13.507  68.946  1.00  0.00     0.009 A  
HETATM   46  C   UNL     1      -9.840  13.548  67.550  1.00  0.00    -0.227 A  
HETATM   47  C   UNL     1      -8.730  12.898  66.723  1.00  0.00    -0.112 C  
HETATM   48  C   UNL     1     -10.983  13.975  66.854  1.00  0.00    -0.301 A  
HETATM   49  C   UNL     1      -8.276  11.549  67.324  1.00  0.00    -0.155 C  
ENDBRANCH  29  32
ENDBRANCH  27  29
ENDBRANCH  13  27
TORSDOF 5
ENDMDL
MODEL      104
REMARK 921   NORMALIZED FREE ENERGY PREDICTED BY IDOCK:   -3.72 KCAL/MOL
REMARK 922        TOTAL FREE ENERGY PREDICTED BY IDOCK:   -6.65 KCAL/MOL
REMARK 923 INTER-LIGAND FREE ENERGY PREDICTED BY IDOCK:   -6.64 KCAL/MOL
REMARK 924 INTRA-LIGAND FREE ENERGY PREDICTED BY IDOCK:   -0.01 KCAL/MOL
REMARK 927      BINDING AFFINITY PREDICTED BY RF-SCORE:    0.00 PKD
ROOT
HETATM    1  C   UNL     1      -7.928   8.791  64.198  1.00  0.00    -0.154 C  
HETATM    2  C   UNL     1      -8.265   8.787  62.711  1.00  0.00    -0.195 C  
HETATM    3  C   UNL     1      -8.275   7.271  62.364  1.00  0.00    -0.074 C  
HETATM    4  C   UNL     1      -7.605   6.562  63.533  1.00  0.00    -0.092 C  
HETATM    5  N   UNL     1      -7.127   7.627  64.383  1.00  0.00    -0.063 N  
HETATM    6  C   UNL     1      -6.808   7.268  65.668  1.00  0.00    -0.056 C  
HETATM    7  O   UNL     1      -6.228   6.203  65.850  1.00  0.00    -0.035 OA 
HETATM    8  C   UNL     1      -7.136   8.342  66.775  1.00  0.00    -0.077 C  
HETATM    9  C   UNL     1      -7.688  10.011  65.174  1.00  0.00    -0.137 C  
HETATM   10  N   UNL     1      -8.185   9.440  66.377  1.00  0.00    -0.110 N  
HETATM   11  C   UNL     1      -8.341  10.654  67.058  1.00  0.00    -0.126 C  
HETATM   12  H   UNL     1      -8.337  11.791  65.225  1.00  0.00     0.000 HD 
HETATM   13  C   UNL     1      -6.952  11.355  67.053  1.00  0.00    -0.135 C  
HETATM   14  O   UNL     1      -9.408  11.054  67.484  1.00  0.00    -0.157 OA 
HETATM   15  O   UNL     1      -8.481  11.057  64.639  1.00  0.00    -0.008 OA 
HETATM   16  O   UNL     1      -6.488  10.596  65.768  1.00  0.00    -0.122 OA 
HETATM   17  C   UNL     1      -7.533  11.416  69.740  1.00  0.00     0.400 C  
HETATM   18  C   UNL     1      -5.165  10.858  69.158  1.00  0.00    -0.041 C  
HETATM   19  C   UNL     1      -6.589  10.911  68.597  1.00  0.00    -0.057 C  
ENDROOT
BRANCH   8  20
HETATM   20  C   UNL     1      -7.331   7.579  68.098  1.00  0.00    -0.096 C  
BRANCH  20  21
HETATM   21  C   UNL     1      -8.828   7.487  68.474  1.00  0.00    -0.126 A  
HETATM   22  C   UNL     1     -10.832   6.163  68.171  1.00  0.00    -0.389 A  
HETATM   23  C   UNL     1     -10.537   7.393  70.201  1.00  0.00    -0.240 A  
HETATM   24  C   UNL     1      -9.349   7.927  69.713  1.00  0.00    -0.153 A  
HETATM   25  C   UNL     1     -11.261   6.480  69.461  1.00  0.00    -0.434 A  
HETATM   26  C   UNL     1      -9.630   6.663  67.678  1.00  0.00    -0.135 A  
ENDBRANCH  20  21
ENDBRANCH   8  20
BRANCH  13  27
HETATM   27  N   UNL     1      -6.940  12.813  66.765  1.00  0.00    -0.344 NA 
HETATM   28  H   UNL     1      -6.431  13.223  65.983  1.00  0.00     0.000 HD 
BRANCH  27  29
HETATM   29  C   UNL     1      -7.638  13.512  67.597  1.00  0.00    -0.177 C  
HETATM   30  H   UNL     1      -7.628  14.413  69.388  1.00  0.00     0.000 HD 
HETATM   31  O   UNL     1      -7.116  13.898  68.775  1.00  0.00    -0.100 OA 
BRANCH  29  32
HETATM   32  C   UNL     1      -9.087  13.986  67.479  1.00  0.00    -0.196 C  
HETATM   33  C   UNL     1      -9.595  14.896  68.596  1.00  0.00    -0.222 C  
HETATM   34  N   UNL     1     -10.891  15.481  68.199  1.00  0.00    -0.285 NA 
HETATM   35  C   UNL     1     -10.834  16.417  67.026  1.00  0.00    -0.145 C  
HETATM   36  C   UNL     1     -11.675  15.944  69.329  1.00  0.00    -0.353 C  
HETATM   37  C   UNL     1     -10.902  17.958  67.346  1.00  0.00    -0.218 C  
HETATM   38  C   UNL     1      -9.631  18.334  68.009  1.00  0.00    -0.314 A  
HETATM   39  C   UNL     1      -9.322  18.971  69.186  1.00  0.00    -0.148 A  
HETATM   40  N   UNL     1      -7.976  18.765  69.420  1.00  0.00     0.098 NA 
HETATM   41  C   UNL     1      -7.413  18.029  68.395  1.00  0.00    -0.278 A  
HETATM   42  H   UNL     1      -7.468  19.108  70.236  1.00  0.00     0.000 HD 
HETATM   43  C   UNL     1      -6.154  17.453  68.225  1.00  0.00    -0.161 A  
HETATM   44  C   UNL     1      -5.965  16.662  67.077  1.00  0.00    -0.188 A  
HETATM   45  C   UNL     1      -7.021  16.350  66.211  1.00  0.00     0.398 A  
HETATM   46  C   UNL     1      -8.315  16.785  66.512  1.00  0.00    -0.320 A  
HETATM   47  C   UNL     1      -9.600  16.089  66.062  1.00  0.00    -0.385 C  
HETATM   48  C   UNL     1      -8.440  17.763  67.514  1.00  0.00    -0.227 A  
HETATM   49  C   UNL     1      -9.457  14.551  66.070  1.00  0.00    -0.262 C  
ENDBRANCH  29  32
ENDBRANCH  27  29
ENDBRANCH  13  27
TORSDOF 5
ENDMDL
MODEL      105
REMARK 921   NORMALIZED FREE ENERGY PREDICTED BY IDOCK:   -3.64 KCAL/MOL
REMARK 922        TOTAL FREE ENERGY PREDICTED BY IDOCK:   -6.55 KCAL/MOL
REMARK 923 INTER-LIGAND FREE ENERGY PREDICTED BY IDOCK:   -8.21 KCAL/MOL
REMARK 924 INTRA-LIGAND FREE ENERGY PREDICTED BY IDOCK:    1.67 KCAL/MOL
REMARK 927      BINDING AFFINITY PREDICTED BY RF-SCORE:    0.00 PKD
ROOT
HETATM    1  C   UNL     1     -11.630   9.122  69.948  1.00  0.00     0.145 C  
HETATM    2  C   UNL     1     -12.685   9.334  71.028  1.00  0.00    -0.226 C  
HETATM    3  C   UNL     1     -12.783  10.884  71.115  1.00  0.00    -0.530 C  
HETATM    4  C   UNL     1     -11.564  11.428  70.382  1.00  0.00    -0.172 C  
HETATM    5  N   UNL     1     -10.780  10.261  70.054  1.00  0.00    -0.289 N  
HETATM    6  C   UNL     1      -9.823  10.436  69.087  1.00  0.00    -0.223 C  
HETATM    7  O   UNL     1      -9.170  11.474  69.093  1.00  0.00     0.044 OA 
HETATM    8  C   UNL     1      -9.596   9.209  68.125  1.00  0.00    -0.144 C  
HETATM    9  C   UNL     1     -10.993   7.778  69.412  1.00  0.00    -0.035 C  
HETATM   10  N   UNL     1     -10.762   8.160  68.062  1.00  0.00    -0.108 N  
HETATM   11  C   UNL     1     -10.616   6.857  67.567  1.00  0.00    -0.281 C  
HETATM   12  H   UNL     1     -11.627   5.997  69.268  1.00  0.00     0.000 HD 
HETATM   13  C   UNL     1      -9.474   6.191  68.387  1.00  0.00    -0.118 C  
HETATM   14  O   UNL     1     -11.332   6.381  66.707  1.00  0.00    -0.257 OA 
HETATM   15  O   UNL     1     -12.010   6.805  69.591  1.00  0.00    -0.128 OA 
HETATM   16  O   UNL     1      -9.696   7.136  69.611  1.00  0.00    -0.158 OA 
HETATM   17  C   UNL     1      -8.587   5.732  65.825  1.00  0.00    -0.149 C  
HETATM   18  C   UNL     1      -6.832   6.411  67.472  1.00  0.00    -0.076 C  
HETATM   19  C   UNL     1      -8.340   6.414  67.213  1.00  0.00    -0.112 C  
ENDROOT
BRANCH   8  20
HETATM   20  C   UNL     1      -9.034   9.769  66.805  1.00  0.00    -0.156 C  
BRANCH  20  21
HETATM   21  C   UNL     1     -10.154  10.395  65.943  1.00  0.00    -0.326 A  
HETATM   22  C   UNL     1     -11.779  12.188  65.871  1.00  0.00    -0.393 A  
HETATM   23  C   UNL     1     -10.854  11.363  63.825  1.00  0.00    -0.468 A  
HETATM   24  C   UNL     1     -10.139  10.399  64.529  1.00  0.00    -0.365 A  
HETATM   25  C   UNL     1     -11.638  12.287  64.485  1.00  0.00    -0.418 A  
HETATM   26  C   UNL     1     -11.049  11.251  66.595  1.00  0.00    -0.299 A  
ENDBRANCH  20  21
ENDBRANCH   8  20
BRANCH  13  27
HETATM   27  N   UNL     1      -9.700   4.790  68.829  1.00  0.00    -0.166 NA 
HETATM   28  H   UNL     1     -10.064   4.063  68.215  1.00  0.00     0.000 HD 
BRANCH  27  29
HETATM   29  C   UNL     1      -9.390   4.580  70.066  1.00  0.00    -0.153 C  
HETATM   30  H   UNL     1     -10.121   4.315  71.914  1.00  0.00     0.000 HD 
HETATM   31  O   UNL     1     -10.348   4.470  71.004  1.00  0.00    -0.142 OA 
BRANCH  29  32
HETATM   32  C   UNL     1      -8.006   4.459  70.705  1.00  0.00    -0.060 C  
HETATM   33  C   UNL     1      -7.311   5.770  71.067  1.00  0.00    -0.085 C  
HETATM   34  N   UNL     1      -6.135   5.483  71.912  1.00  0.00    -0.033 NA 
HETATM   35  C   UNL     1      -6.448   4.905  73.262  1.00  0.00    -0.063 C  
HETATM   36  C   UNL     1      -5.155   6.553  71.903  1.00  0.00    -0.027 C  
HETATM   37  C   UNL     1      -6.358   5.886  74.490  1.00  0.00    -0.074 C  
HETATM   38  C   UNL     1      -7.482   6.847  74.379  1.00  0.00    -0.113 A  
HETATM   39  C   UNL     1      -7.568   8.217  74.379  1.00  0.00    -0.219 A  
HETATM   40  N   UNL     1      -8.835   8.546  73.937  1.00  0.00    -0.252 NA 
HETATM   41  C   UNL     1      -9.570   7.404  73.682  1.00  0.00    -0.287 A  
HETATM   42  H   UNL     1      -9.179   9.499  73.815  1.00  0.00     0.000 HD 
HETATM   43  C   UNL     1     -10.822   7.196  73.104  1.00  0.00    -0.373 A  
HETATM   44  C   UNL     1     -11.215   5.860  72.898  1.00  0.00    -0.291 A  
HETATM   45  C   UNL     1     -10.344   4.788  73.132  1.00  0.00    -0.231 A  
HETATM   46  C   UNL     1      -9.027   5.041  73.531  1.00  0.00    -0.114 A  
HETATM   47  C   UNL     1      -7.840   4.116  73.263  1.00  0.00    -0.085 C  
HETATM   48  C   UNL     1      -8.732   6.346  73.960  1.00  0.00    -0.140 A  
HETATM   49  C   UNL     1      -7.938   3.432  71.881  1.00  0.00    -0.062 C  
ENDBRANCH  29  32
ENDBRANCH  27  29
ENDBRANCH  13  27
TORSDOF 5
ENDMDL
MODEL      106
REMARK 921   NORMALIZED FREE ENERGY PREDICTED BY IDOCK:   -3.59 KCAL/MOL
REMARK 922        TOTAL FREE ENERGY PREDICTED BY IDOCK:   -6.48 KCAL/MOL
REMARK 923 INTER-LIGAND FREE ENERGY PREDICTED BY IDOCK:   -5.85 KCAL/MOL
REMARK 924 INTRA-LIGAND FREE ENERGY PREDICTED BY IDOCK:   -0.64 KCAL/MOL
REMARK 927      BINDING AFFINITY PREDICTED BY RF-SCORE:    0.00 PKD
ROOT
HETATM    1  C   UNL     1      -6.511   7.942  70.186  1.00  0.00    -0.037 C  
HETATM    2  C   UNL     1      -5.636   9.015  70.822  1.00  0.00    -0.034 C  
HETATM    3  C   UNL     1      -5.334   8.424  72.229  1.00  0.00    -0.040 C  
HETATM    4  C   UNL     1      -6.320   7.281  72.430  1.00  0.00    -0.051 C  
HETATM    5  N   UNL     1      -7.195   7.345  71.284  1.00  0.00    -0.067 N  
HETATM    6  C   UNL     1      -7.940   6.219  71.038  1.00  0.00    -0.116 C  
HETATM    7  O   UNL     1      -8.429   5.622  71.990  1.00  0.00    -0.125 OA 
HETATM    8  C   UNL     1      -8.173   5.878  69.517  1.00  0.00    -0.113 C  
HETATM    9  C   UNL     1      -7.233   7.934  68.779  1.00  0.00    -0.081 C  
HETATM   10  N   UNL     1      -7.175   6.541  68.502  1.00  0.00    -0.083 N  
HETATM   11  C   UNL     1      -7.419   6.657  67.128  1.00  0.00    -0.088 C  
HETATM   12  H   UNL     1      -6.845   8.736  67.106  1.00  0.00     0.000 HD 
HETATM   13  C   UNL     1      -8.767   7.418  66.974  1.00  0.00    -0.123 C  
HETATM   14  O   UNL     1      -6.643   6.275  66.273  1.00  0.00    -0.045 OA 
HETATM   15  O   UNL     1      -6.411   8.741  67.952  1.00  0.00    -0.056 OA 
HETATM   16  O   UNL     1      -8.624   8.112  68.366  1.00  0.00    -0.129 OA 
HETATM   17  C   UNL     1      -9.263   5.202  65.423  1.00  0.00    -0.122 C  
HETATM   18  C   UNL     1     -11.157   5.954  66.873  1.00  0.00    -0.175 C  
HETATM   19  C   UNL     1      -9.642   6.054  66.682  1.00  0.00    -0.179 C  
ENDROOT
BRANCH   8  20
HETATM   20  C   UNL     1      -8.417   4.360  69.427  1.00  0.00    -0.091 C  
BRANCH  20  21
HETATM   21  C   UNL     1      -7.119   3.607  69.058  1.00  0.00    -0.050 A  
HETATM   22  C   UNL     1      -5.411   2.131  69.932  1.00  0.00    -0.012 A  
HETATM   23  C   UNL     1      -5.971   2.027  67.608  1.00  0.00    -0.020 A  
HETATM   24  C   UNL     1      -6.861   3.085  67.769  1.00  0.00    -0.049 A  
HETATM   25  C   UNL     1      -5.277   1.515  68.686  1.00  0.00    -0.012 A  
HETATM   26  C   UNL     1      -6.319   3.169  70.119  1.00  0.00    -0.028 A  
ENDBRANCH  20  21
ENDBRANCH   8  20
BRANCH  13  27
HETATM   27  N   UNL     1      -8.822   8.474  65.929  1.00  0.00    -0.173 NA 
HETATM   28  H   UNL     1      -8.190   8.500  65.129  1.00  0.00     0.000 HD 
BRANCH  27  29
HETATM   29  C   UNL     1      -9.745   9.355  66.128  1.00  0.00    -0.265 C  
HETATM   30  H   UNL     1     -11.429   9.762  67.136  1.00  0.00     0.000 HD 
HETATM   31  O   UNL     1     -10.749   9.115  66.990  1.00  0.00    -0.234 OA 
BRANCH  29  32
HETATM   32  C   UNL     1      -9.928  10.724  65.470  1.00  0.00    -0.321 C  
HETATM   33  C   UNL     1     -11.237  11.451  65.772  1.00  0.00    -0.090 C  
HETATM   34  N   UNL     1     -11.140  12.847  65.302  1.00  0.00    -0.280 NA 
HETATM   35  C   UNL     1     -10.132  13.693  66.025  1.00  0.00    -0.312 C  
HETATM   36  C   UNL     1     -12.436  13.465  65.090  1.00  0.00    -0.459 C  
HETATM   37  C   UNL     1     -10.693  14.708  67.090  1.00  0.00    -0.292 C  
HETATM   38  C   UNL     1     -11.202  13.918  68.237  1.00  0.00    -0.298 A  
HETATM   39  C   UNL     1     -12.401  13.871  68.905  1.00  0.00    -0.054 A  
HETATM   40  N   UNL     1     -12.389  12.730  69.684  1.00  0.00    -0.087 NA 
HETATM   41  C   UNL     1     -11.188  12.061  69.546  1.00  0.00    -0.150 A  
HETATM   42  H   UNL     1     -13.160  12.423  70.278  1.00  0.00     0.000 HD 
HETATM   43  C   UNL     1     -10.738  10.821  69.999  1.00  0.00    -0.140 A  
HETATM   44  C   UNL     1      -9.466  10.406  69.564  1.00  0.00    -0.164 A  
HETATM   45  C   UNL     1      -8.736  11.132  68.613  1.00  0.00    -0.153 A  
HETATM   46  C   UNL     1      -9.298  12.273  68.033  1.00  0.00    -0.195 A  
HETATM   47  C   UNL     1      -8.950  12.811  66.645  1.00  0.00    -0.152 C  
HETATM   48  C   UNL     1     -10.446  12.800  68.649  1.00  0.00    -0.230 A  
HETATM   49  C   UNL     1      -8.697  11.673  65.631  1.00  0.00     0.125 C  
ENDBRANCH  29  32
ENDBRANCH  27  29
ENDBRANCH  13  27
TORSDOF 5
ENDMDL
MODEL      107
REMARK 921   NORMALIZED FREE ENERGY PREDICTED BY IDOCK:   -3.57 KCAL/MOL
REMARK 922        TOTAL FREE ENERGY PREDICTED BY IDOCK:   -6.46 KCAL/MOL
REMARK 923 INTER-LIGAND FREE ENERGY PREDICTED BY IDOCK:   -7.31 KCAL/MOL
REMARK 924 INTRA-LIGAND FREE ENERGY PREDICTED BY IDOCK:    0.84 KCAL/MOL
REMARK 927      BINDING AFFINITY PREDICTED BY RF-SCORE:    0.00 PKD
ROOT
HETATM    1  C   UNL     1      -7.737   7.040  64.563  1.00  0.00    -0.113 C  
HETATM    2  C   UNL     1      -8.035   6.670  63.115  1.00  0.00    -0.082 C  
HETATM    3  C   UNL     1      -7.435   5.239  62.994  1.00  0.00    -0.052 C  
HETATM    4  C   UNL     1      -6.544   5.049  64.214  1.00  0.00    -0.042 C  
HETATM    5  N   UNL     1      -6.538   6.335  64.870  1.00  0.00    -0.038 N  
HETATM    6  C   UNL     1      -6.109   6.339  66.173  1.00  0.00    -0.033 C  
HETATM    7  O   UNL     1      -5.152   5.634  66.476  1.00  0.00    -0.005 OA 
HETATM    8  C   UNL     1      -6.846   7.354  67.128  1.00  0.00    -0.074 C  
HETATM    9  C   UNL     1      -8.011   8.393  65.334  1.00  0.00    -0.122 C  
HETATM   10  N   UNL     1      -8.245   7.869  66.635  1.00  0.00    -0.116 N  
HETATM   11  C   UNL     1      -8.878   9.012  67.138  1.00  0.00    -0.119 C  
HETATM   12  H   UNL     1      -9.319   9.754  65.162  1.00  0.00     0.000 HD 
HETATM   13  C   UNL     1      -7.886  10.196  66.950  1.00  0.00    -0.107 C  
HETATM   14  O   UNL     1     -10.019   9.017  67.562  1.00  0.00    -0.180 OA 
HETATM   15  O   UNL     1      -9.154   8.941  64.698  1.00  0.00    -0.089 OA 
HETATM   16  O   UNL     1      -7.150   9.491  65.766  1.00  0.00    -0.091 OA 
HETATM   17  C   UNL     1      -8.459  10.443  69.628  1.00  0.00    -0.068 C  
HETATM   18  C   UNL     1      -6.064  10.786  68.999  1.00  0.00    -0.041 C  
HETATM   19  C   UNL     1      -7.385  10.181  68.519  1.00  0.00    -0.081 C  
ENDROOT
BRANCH   8  20
HETATM   20  C   UNL     1      -6.728   6.795  68.558  1.00  0.00    -0.064 C  
BRANCH  20  21
HETATM   21  C   UNL     1      -8.066   6.183  69.031  1.00  0.00    -0.112 A  
HETATM   22  C   UNL     1     -10.049   6.624  70.348  1.00  0.00    -0.205 A  
HETATM   23  C   UNL     1     -10.195   5.150  68.469  1.00  0.00    -0.182 A  
HETATM   24  C   UNL     1      -8.826   5.277  68.255  1.00  0.00    -0.108 A  
HETATM   25  C   UNL     1     -10.822   5.850  69.480  1.00  0.00    -0.442 A  
HETATM   26  C   UNL     1      -8.684   6.788  70.130  1.00  0.00    -0.141 A  
ENDBRANCH  20  21
ENDBRANCH   8  20
BRANCH  13  27
HETATM   27  N   UNL     1      -8.459  11.474  66.451  1.00  0.00    -0.255 NA 
HETATM   28  H   UNL     1      -8.376  11.781  65.483  1.00  0.00     0.000 HD 
BRANCH  27  29
HETATM   29  C   UNL     1      -9.072  12.158  67.360  1.00  0.00    -0.181 C  
HETATM   30  H   UNL     1     -10.726  12.272  68.485  1.00  0.00     0.000 HD 
HETATM   31  O   UNL     1     -10.275  11.770  67.817  1.00  0.00    -0.185 OA 
BRANCH  29  32
HETATM   32  C   UNL     1      -8.644  13.463  68.035  1.00  0.00    -0.174 C  
HETATM   33  C   UNL     1      -8.233  14.603  67.105  1.00  0.00    -0.201 C  
HETATM   34  N   UNL     1      -8.122  15.852  67.884  1.00  0.00    -0.139 NA 
HETATM   35  C   UNL     1      -9.413  16.360  68.459  1.00  0.00    -0.227 C  
HETATM   36  C   UNL     1      -7.291  16.851  67.237  1.00  0.00    -0.169 C  
HETATM   37  C   UNL     1     -10.090  17.572  67.717  1.00  0.00    -0.330 C  
HETATM   38  C   UNL     1     -10.593  17.076  66.414  1.00  0.00    -0.172 A  
HETATM   39  C   UNL     1     -10.423  17.475  65.111  1.00  0.00     0.391 A  
HETATM   40  N   UNL     1     -10.882  16.450  64.306  1.00  0.00    -0.961 NA 
HETATM   41  C   UNL     1     -11.371  15.412  65.077  1.00  0.00    -0.333 A  
HETATM   42  H   UNL     1     -10.864  16.459  63.286  1.00  0.00     0.000 HD 
HETATM   43  C   UNL     1     -11.809  14.126  64.761  1.00  0.00    -0.425 A  
HETATM   44  C   UNL     1     -12.139  13.283  65.838  1.00  0.00    -0.493 A  
HETATM   45  C   UNL     1     -11.912  13.658  67.168  1.00  0.00    -0.434 A  
HETATM   46  C   UNL     1     -11.292  14.881  67.446  1.00  0.00    -0.354 A  
HETATM   47  C   UNL     1     -10.464  15.177  68.697  1.00  0.00    -0.234 C  
HETATM   48  C   UNL     1     -11.195  15.800  66.388  1.00  0.00     0.034 A  
HETATM   49  C   UNL     1      -9.630  13.956  69.142  1.00  0.00     0.246 C  
ENDBRANCH  29  32
ENDBRANCH  27  29
ENDBRANCH  13  27
TORSDOF 5
ENDMDL
MODEL      108
REMARK 921   NORMALIZED FREE ENERGY PREDICTED BY IDOCK:   -3.57 KCAL/MOL
REMARK 922        TOTAL FREE ENERGY PREDICTED BY IDOCK:   -6.46 KCAL/MOL
REMARK 923 INTER-LIGAND FREE ENERGY PREDICTED BY IDOCK:   -5.57 KCAL/MOL
REMARK 924 INTRA-LIGAND FREE ENERGY PREDICTED BY IDOCK:   -0.89 KCAL/MOL
REMARK 927      BINDING AFFINITY PREDICTED BY RF-SCORE:    0.00 PKD
ROOT
HETATM    1  C   UNL     1     -11.256  11.329  68.993  1.00  0.00    -0.258 C  
HETATM    2  C   UNL     1     -12.304  10.823  69.977  1.00  0.00    -0.371 C  
HETATM    3  C   UNL     1     -13.060  12.124  70.374  1.00  0.00     0.543 C  
HETATM    4  C   UNL     1     -12.192  13.281  69.901  1.00  0.00    -0.246 C  
HETATM    5  N   UNL     1     -10.980  12.660  69.420  1.00  0.00    -0.060 N  
HETATM    6  C   UNL     1     -10.188  13.439  68.616  1.00  0.00    -0.182 C  
HETATM    7  O   UNL     1     -10.046  14.622  68.905  1.00  0.00    -0.232 OA 
HETATM    8  C   UNL     1      -9.449  12.680  67.449  1.00  0.00    -0.189 C  
HETATM    9  C   UNL     1     -10.100  10.541  68.258  1.00  0.00    -0.160 C  
HETATM   10  N   UNL     1     -10.050  11.286  67.048  1.00  0.00    -0.201 N  
HETATM   11  C   UNL     1      -9.355  10.318  66.312  1.00  0.00    -0.167 C  
HETATM   12  H   UNL     1      -9.904   8.745  67.682  1.00  0.00     0.000 HD 
HETATM   13  C   UNL     1      -8.040  10.020  67.089  1.00  0.00    -0.117 C  
HETATM   14  O   UNL     1      -9.792   9.800  65.301  1.00  0.00    -0.313 OA 
HETATM   15  O   UNL     1     -10.599   9.219  68.124  1.00  0.00    -0.221 OA 
HETATM   16  O   UNL     1      -8.653  10.472  68.453  1.00  0.00    -0.121 OA 
HETATM   17  C   UNL     1      -7.031  10.583  64.593  1.00  0.00     0.070 C  
HETATM   18  C   UNL     1      -5.747  11.530  66.519  1.00  0.00    -0.113 C  
HETATM   19  C   UNL     1      -7.108  10.962  66.111  1.00  0.00    -0.097 C  
ENDROOT
BRANCH   8  20
HETATM   20  C   UNL     1      -9.178  13.713  66.340  1.00  0.00    -0.142 C  
BRANCH  20  21
HETATM   21  C   UNL     1     -10.498  14.222  65.716  1.00  0.00    -0.326 A  
HETATM   22  C   UNL     1     -11.481  16.047  64.467  1.00  0.00    -0.274 A  
HETATM   23  C   UNL     1     -12.371  13.841  64.213  1.00  0.00    -0.384 A  
HETATM   24  C   UNL     1     -11.485  13.367  65.174  1.00  0.00    -0.316 A  
HETATM   25  C   UNL     1     -12.349  15.165  63.821  1.00  0.00     0.359 A  
HETATM   26  C   UNL     1     -10.566  15.585  65.408  1.00  0.00    -0.428 A  
ENDBRANCH  20  21
ENDBRANCH   8  20
BRANCH  13  27
HETATM   27  N   UNL     1      -7.643   8.592  67.205  1.00  0.00    -0.092 NA 
HETATM   28  H   UNL     1      -7.762   7.917  66.450  1.00  0.00     0.000 HD 
BRANCH  27  29
HETATM   29  C   UNL     1      -7.131   8.287  68.351  1.00  0.00    -0.081 C  
HETATM   30  H   UNL     1      -5.857   8.873  69.783  1.00  0.00     0.000 HD 
HETATM   31  O   UNL     1      -6.233   9.097  68.940  1.00  0.00    -0.043 OA 
BRANCH  29  32
HETATM   32  C   UNL     1      -7.363   7.041  69.208  1.00  0.00    -0.092 C  
HETATM   33  C   UNL     1      -8.671   6.289  68.969  1.00  0.00    -0.125 C  
HETATM   34  N   UNL     1      -8.618   4.984  69.657  1.00  0.00    -0.087 NA 
HETATM   35  C   UNL     1      -7.595   4.024  69.120  1.00  0.00    -0.054 C  
HETATM   36  C   UNL     1      -9.932   4.421  69.908  1.00  0.00    -0.162 C  
HETATM   37  C   UNL     1      -8.130   2.859  68.205  1.00  0.00    -0.070 C  
HETATM   38  C   UNL     1      -8.578   3.463  66.928  1.00  0.00    -0.118 A  
HETATM   39  C   UNL     1      -9.747   3.416  66.210  1.00  0.00     0.040 A  
HETATM   40  N   UNL     1      -9.685   4.419  65.262  1.00  0.00    -0.183 NA 
HETATM   41  C   UNL     1      -8.479   5.088  65.344  1.00  0.00    -0.138 A  
HETATM   42  H   UNL     1     -10.425   4.635  64.594  1.00  0.00     0.000 HD 
HETATM   43  C   UNL     1      -7.990   6.236  64.720  1.00  0.00    -0.124 A  
HETATM   44  C   UNL     1      -6.730   6.702  65.139  1.00  0.00    -0.050 A  
HETATM   45  C   UNL     1      -6.052   6.129  66.223  1.00  0.00    -0.029 A  
HETATM   46  C   UNL     1      -6.656   5.099  66.951  1.00  0.00    -0.053 A  
HETATM   47  C   UNL     1      -6.374   4.785  68.421  1.00  0.00    -0.036 C  
HETATM   48  C   UNL     1      -7.787   4.493  66.378  1.00  0.00    -0.099 A  
HETATM   49  C   UNL     1      -6.143   6.066  69.252  1.00  0.00    -0.029 C  
ENDBRANCH  29  32
ENDBRANCH  27  29
ENDBRANCH  13  27
TORSDOF 5
ENDMDL
MODEL      109
REMARK 921   NORMALIZED FREE ENERGY PREDICTED BY IDOCK:   -3.51 KCAL/MOL
REMARK 922        TOTAL FREE ENERGY PREDICTED BY IDOCK:   -6.39 KCAL/MOL
REMARK 923 INTER-LIGAND FREE ENERGY PREDICTED BY IDOCK:   -7.26 KCAL/MOL
REMARK 924 INTRA-LIGAND FREE ENERGY PREDICTED BY IDOCK:    0.87 KCAL/MOL
REMARK 927      BINDING AFFINITY PREDICTED BY RF-SCORE:    0.00 PKD
ROOT
HETATM    1  C   UNL     1      -6.974  10.571  65.896  1.00  0.00    -0.131 C  
HETATM    2  C   UNL     1      -5.484  10.443  65.603  1.00  0.00    -0.093 C  
HETATM    3  C   UNL     1      -5.439  10.425  64.047  1.00  0.00    -0.149 C  
HETATM    4  C   UNL     1      -6.868  10.174  63.584  1.00  0.00    -0.112 C  
HETATM    5  N   UNL     1      -7.609   9.922  64.798  1.00  0.00    -0.134 N  
HETATM    6  C   UNL     1      -8.973  10.023  64.696  1.00  0.00    -0.214 C  
HETATM    7  O   UNL     1      -9.519   9.580  63.692  1.00  0.00    -0.038 OA 
HETATM    8  C   UNL     1      -9.706  10.615  65.960  1.00  0.00    -0.208 C  
HETATM    9  C   UNL     1      -7.731  10.574  67.283  1.00  0.00    -0.106 C  
HETATM   10  N   UNL     1      -8.810  11.439  66.951  1.00  0.00    -0.167 N  
HETATM   11  C   UNL     1      -9.172  11.731  68.273  1.00  0.00    -0.188 C  
HETATM   12  H   UNL     1      -7.249  11.118  69.034  1.00  0.00     0.000 HD 
HETATM   13  C   UNL     1      -9.460  10.372  68.971  1.00  0.00    -0.197 C  
HETATM   14  O   UNL     1      -9.169  12.856  68.737  1.00  0.00    -0.016 OA 
HETATM   15  O   UNL     1      -6.794  11.115  68.200  1.00  0.00    -0.065 OA 
HETATM   16  O   UNL     1      -8.544   9.581  67.983  1.00  0.00    -0.119 OA 
HETATM   17  C   UNL     1     -11.780  11.732  69.545  1.00  0.00    -0.408 C  
HETATM   18  C   UNL     1     -12.064   9.330  68.907  1.00  0.00     1.822 C  
HETATM   19  C   UNL     1     -11.096  10.514  68.837  1.00  0.00    -0.312 C  
ENDROOT
BRANCH   8  20
HETATM   20  C   UNL     1     -11.024  11.239  65.465  1.00  0.00    -0.199 C  
BRANCH  20  21
HETATM   21  C   UNL     1     -11.025  12.772  65.660  1.00  0.00    -0.302 A  
HETATM   22  C   UNL     1     -11.770  14.546  67.130  1.00  0.00    -0.420 A  
HETATM   23  C   UNL     1      -9.767  14.845  65.856  1.00  0.00    -0.366 A  
HETATM   24  C   UNL     1      -9.965  13.611  65.244  1.00  0.00    -0.229 A  
HETATM   25  C   UNL     1     -10.635  15.300  66.828  1.00  0.00    -0.304 A  
HETATM   26  C   UNL     1     -11.968  13.296  66.551  1.00  0.00    -0.448 A  
ENDBRANCH  20  21
ENDBRANCH   8  20
BRANCH  13  27
HETATM   27  N   UNL     1      -8.923  10.201  70.347  1.00  0.00    -0.285 NA 
HETATM   28  H   UNL     1      -8.716  10.984  70.966  1.00  0.00     0.000 HD 
BRANCH  27  29
HETATM   29  C   UNL     1      -8.742   8.967  70.684  1.00  0.00    -0.197 C  
HETATM   30  H   UNL     1      -8.454   7.717  72.224  1.00  0.00     0.000 HD 
HETATM   31  O   UNL     1      -8.586   8.624  71.975  1.00  0.00    -0.243 OA 
BRANCH  29  32
HETATM   32  C   UNL     1      -8.631   7.730  69.791  1.00  0.00    -0.134 C  
HETATM   33  C   UNL     1      -7.912   6.524  70.390  1.00  0.00    -0.115 C  
HETATM   34  N   UNL     1      -8.131   5.345  69.529  1.00  0.00    -0.095 NA 
HETATM   35  C   UNL     1      -9.553   4.866  69.458  1.00  0.00    -0.170 C  
HETATM   36  C   UNL     1      -7.132   4.310  69.718  1.00  0.00    -0.049 C  
HETATM   37  C   UNL     1      -9.910   3.584  70.300  1.00  0.00    -0.043 C  
HETATM   38  C   UNL     1      -9.862   3.963  71.733  1.00  0.00    -0.249 A  
HETATM   39  C   UNL     1      -9.208   3.459  72.830  1.00  0.00    -0.092 A  
HETATM   40  N   UNL     1      -9.303   4.406  73.832  1.00  0.00    -0.112 NA 
HETATM   41  C   UNL     1     -10.034   5.496  73.400  1.00  0.00    -0.176 A  
HETATM   42  H   UNL     1      -8.891   4.313  74.761  1.00  0.00     0.000 HD 
HETATM   43  C   UNL     1     -10.294   6.744  73.967  1.00  0.00    -0.377 A  
HETATM   44  C   UNL     1     -11.001   7.668  73.175  1.00  0.00    -0.411 A  
HETATM   45  C   UNL     1     -11.312   7.408  71.834  1.00  0.00    -0.294 A  
HETATM   46  C   UNL     1     -10.868   6.224  71.237  1.00  0.00    -0.317 A  
HETATM   47  C   UNL     1     -10.594   6.046  69.744  1.00  0.00    -0.356 C  
HETATM   48  C   UNL     1     -10.385   5.222  72.096  1.00  0.00    -0.268 A  
HETATM   49  C   UNL     1      -9.977   7.314  69.114  1.00  0.00    -0.170 C  
ENDBRANCH  29  32
ENDBRANCH  27  29
ENDBRANCH  13  27
TORSDOF 5
ENDMDL
MODEL      110
REMARK 921   NORMALIZED FREE ENERGY PREDICTED BY IDOCK:   -3.51 KCAL/MOL
REMARK 922        TOTAL FREE ENERGY PREDICTED BY IDOCK:   -6.38 KCAL/MOL
REMARK 923 INTER-LIGAND FREE ENERGY PREDICTED BY IDOCK:   -6.98 KCAL/MOL
REMARK 924 INTRA-LIGAND FREE ENERGY PREDICTED BY IDOCK:    0.60 KCAL/MOL
REMARK 927      BINDING AFFINITY PREDICTED BY RF-SCORE:    0.00 PKD
ROOT
HETATM    1  C   UNL     1      -7.795   4.532  67.483  1.00  0.00    -0.089 C  
HETATM    2  C   UNL     1      -6.948   4.154  66.274  1.00  0.00    -0.063 C  
HETATM    3  C   UNL     1      -6.711   2.630  66.482  1.00  0.00    -0.040 C  
HETATM    4  C   UNL     1      -7.101   2.333  67.924  1.00  0.00    -0.047 C  
HETATM    5  N   UNL     1      -7.384   3.625  68.503  1.00  0.00    -0.054 N  
HETATM    6  C   UNL     1      -8.098   3.612  69.673  1.00  0.00    -0.053 C  
HETATM    7  O   UNL     1      -7.838   2.752  70.507  1.00  0.00    -0.043 OA 
HETATM    8  C   UNL     1      -9.122   4.797  69.858  1.00  0.00    -0.104 C  
HETATM    9  C   UNL     1      -8.331   5.949  67.935  1.00  0.00    -0.111 C  
HETATM   10  N   UNL     1      -9.549   5.547  68.547  1.00  0.00    -0.122 N  
HETATM   11  C   UNL     1     -10.144   6.815  68.530  1.00  0.00    -0.162 C  
HETATM   12  H   UNL     1      -8.805   7.527  66.997  1.00  0.00     0.000 HD 
HETATM   13  C   UNL     1      -9.180   7.773  69.287  1.00  0.00    -0.145 C  
HETATM   14  O   UNL     1     -11.185   7.061  67.951  1.00  0.00    -0.100 OA 
HETATM   15  O   UNL     1      -8.482   6.675  66.725  1.00  0.00    -0.113 OA 
HETATM   16  O   UNL     1      -7.933   6.881  68.988  1.00  0.00    -0.112 OA 
HETATM   17  C   UNL     1     -11.529   8.262  70.630  1.00  0.00    -0.236 C  
HETATM   18  C   UNL     1      -9.481   8.104  72.056  1.00  0.00    -0.279 C  
HETATM   19  C   UNL     1     -10.053   7.742  70.683  1.00  0.00    -0.191 C  
ENDROOT
BRANCH   8  20
HETATM   20  C   UNL     1     -10.220   4.298  70.815  1.00  0.00    -0.035 C  
BRANCH  20  21
HETATM   21  C   UNL     1      -9.715   4.259  72.275  1.00  0.00    -0.210 A  
HETATM   22  C   UNL     1      -9.354   2.796  74.170  1.00  0.00    -0.099 A  
HETATM   23  C   UNL     1      -7.934   4.699  73.872  1.00  0.00    -0.101 A  
HETATM   24  C   UNL     1      -8.679   5.088  72.763  1.00  0.00    -0.119 A  
HETATM   25  C   UNL     1      -8.234   3.536  74.553  1.00  0.00    -0.081 A  
HETATM   26  C   UNL     1     -10.091   3.153  73.044  1.00  0.00    -0.220 A  
ENDBRANCH  20  21
ENDBRANCH   8  20
BRANCH  13  27
HETATM   27  N   UNL     1      -8.955   9.111  68.679  1.00  0.00    -0.136 NA 
HETATM   28  H   UNL     1      -8.153   9.698  68.904  1.00  0.00     0.000 HD 
BRANCH  27  29
HETATM   29  C   UNL     1      -9.872   9.460  67.838  1.00  0.00    -0.165 C  
HETATM   30  H   UNL     1     -10.553   9.222  65.968  1.00  0.00     0.000 HD 
HETATM   31  O   UNL     1      -9.879   8.966  66.587  1.00  0.00    -0.215 OA 
BRANCH  29  32
HETATM   32  C   UNL     1     -11.025  10.448  68.025  1.00  0.00    -0.347 C  
HETATM   33  C   UNL     1     -10.883  11.444  69.173  1.00  0.00    -0.213 C  
HETATM   34  N   UNL     1     -11.921  12.486  69.048  1.00  0.00    -0.271 NA 
HETATM   35  C   UNL     1     -11.792  13.370  67.842  1.00  0.00    -0.357 C  
HETATM   36  C   UNL     1     -12.191  13.171  70.299  1.00  0.00    -0.306 C  
HETATM   37  C   UNL     1     -11.205  14.812  68.080  1.00  0.00    -0.307 C  
HETATM   38  C   UNL     1      -9.769  14.660  68.415  1.00  0.00    -0.217 A  
HETATM   39  C   UNL     1      -8.981  15.095  69.453  1.00  0.00    -0.176 A  
HETATM   40  N   UNL     1      -7.794  14.390  69.387  1.00  0.00    -0.357 NA 
HETATM   41  C   UNL     1      -7.801  13.532  68.304  1.00  0.00    -0.145 A  
HETATM   42  H   UNL     1      -7.021  14.490  70.045  1.00  0.00     0.000 HD 
HETATM   43  C   UNL     1      -6.924  12.531  67.886  1.00  0.00    -0.105 A  
HETATM   44  C   UNL     1      -7.314  11.765  66.772  1.00  0.00    -0.052 A  
HETATM   45  C   UNL     1      -8.580  11.902  66.188  1.00  0.00     0.052 A  
HETATM   46  C   UNL     1      -9.511  12.782  66.749  1.00  0.00    -0.243 A  
HETATM   47  C   UNL     1     -11.029  12.634  66.643  1.00  0.00    -0.292 C  
HETATM   48  C   UNL     1      -9.027  13.700  67.696  1.00  0.00    -0.202 A  
HETATM   49  C   UNL     1     -11.473  11.156  66.706  1.00  0.00     0.002 C  
ENDBRANCH  29  32
ENDBRANCH  27  29
ENDBRANCH  13  27
TORSDOF 5
ENDMDL
MODEL      111
REMARK 921   NORMALIZED FREE ENERGY PREDICTED BY IDOCK:   -3.50 KCAL/MOL
REMARK 922        TOTAL FREE ENERGY PREDICTED BY IDOCK:   -6.37 KCAL/MOL
REMARK 923 INTER-LIGAND FREE ENERGY PREDICTED BY IDOCK:   -6.74 KCAL/MOL
REMARK 924 INTRA-LIGAND FREE ENERGY PREDICTED BY IDOCK:    0.37 KCAL/MOL
REMARK 927      BINDING AFFINITY PREDICTED BY RF-SCORE:    0.00 PKD
ROOT
HETATM    1  C   UNL     1      -6.565  10.224  68.040  1.00  0.00    -0.061 C  
HETATM    2  C   UNL     1      -5.796  11.006  69.099  1.00  0.00    -0.041 C  
HETATM    3  C   UNL     1      -5.453  12.335  68.366  1.00  0.00    -0.055 C  
HETATM    4  C   UNL     1      -5.710  12.082  66.886  1.00  0.00    -0.068 C  
HETATM    5  N   UNL     1      -6.021  10.674  66.802  1.00  0.00    -0.062 N  
HETATM    6  C   UNL     1      -6.638  10.267  65.647  1.00  0.00    -0.122 C  
HETATM    7  O   UNL     1      -6.262  10.746  64.583  1.00  0.00     0.000 OA 
HETATM    8  C   UNL     1      -7.712   9.126  65.816  1.00  0.00    -0.094 C  
HETATM    9  C   UNL     1      -7.146   8.756  68.095  1.00  0.00    -0.078 C  
HETATM   10  N   UNL     1      -8.286   8.931  67.264  1.00  0.00    -0.104 N  
HETATM   11  C   UNL     1      -8.954   7.776  67.691  1.00  0.00    -0.127 C  
HETATM   12  H   UNL     1      -7.786   7.655  69.500  1.00  0.00     0.000 HD 
HETATM   13  C   UNL     1      -7.992   6.580  67.439  1.00  0.00    -0.113 C  
HETATM   14  O   UNL     1     -10.051   7.791  68.218  1.00  0.00    -0.179 OA 
HETATM   15  O   UNL     1      -7.436   8.539  69.467  1.00  0.00    -0.076 OA 
HETATM   16  O   UNL     1      -6.722   7.488  67.505  1.00  0.00    -0.062 OA 
HETATM   17  C   UNL     1     -10.252   5.686  66.153  1.00  0.00    -0.093 C  
HETATM   18  C   UNL     1      -8.091   5.247  64.973  1.00  0.00    -0.120 C  
HETATM   19  C   UNL     1      -8.748   6.110  66.053  1.00  0.00    -0.157 C  
ENDROOT
BRANCH   8  20
HETATM   20  C   UNL     1      -8.700   9.259  64.642  1.00  0.00    -0.223 C  
BRANCH  20  21
HETATM   21  C   UNL     1      -9.540  10.551  64.763  1.00  0.00    -0.342 A  
HETATM   22  C   UNL     1     -10.905  12.108  63.508  1.00  0.00    -0.518 A  
HETATM   23  C   UNL     1     -11.364  11.754  65.829  1.00  0.00    -0.309 A  
HETATM   24  C   UNL     1     -10.270  10.900  65.922  1.00  0.00    -0.314 A  
HETATM   25  C   UNL     1     -11.716  12.326  64.623  1.00  0.00    -0.420 A  
HETATM   26  C   UNL     1      -9.825  11.232  63.575  1.00  0.00    -0.394 A  
ENDBRANCH  20  21
ENDBRANCH   8  20
BRANCH  13  27
HETATM   27  N   UNL     1      -7.896   5.562  68.517  1.00  0.00    -0.088 NA 
HETATM   28  H   UNL     1      -7.031   5.076  68.749  1.00  0.00     0.000 HD 
BRANCH  27  29
HETATM   29  C   UNL     1      -9.012   5.350  69.132  1.00  0.00    -0.104 C  
HETATM   30  H   UNL     1     -10.706   4.278  69.128  1.00  0.00     0.000 HD 
HETATM   31  O   UNL     1      -9.885   4.434  68.675  1.00  0.00    -0.144 OA 
BRANCH  29  32
HETATM   32  C   UNL     1      -9.574   6.044  70.375  1.00  0.00    -0.194 C  
HETATM   33  C   UNL     1     -10.854   5.452  70.960  1.00  0.00    -0.119 C  
HETATM   34  N   UNL     1     -11.105   6.046  72.288  1.00  0.00    -0.263 NA 
HETATM   35  C   UNL     1     -10.088   5.707  73.339  1.00  0.00    -0.189 C  
HETATM   36  C   UNL     1     -12.492   5.941  72.704  1.00  0.00     0.280 C  
HETATM   37  C   UNL     1     -10.501   4.617  74.398  1.00  0.00    -0.330 C  
HETATM   38  C   UNL     1     -10.560   3.312  73.698  1.00  0.00    -0.277 A  
HETATM   39  C   UNL     1     -11.518   2.335  73.581  1.00  0.00    -0.194 A  
HETATM   40  N   UNL     1     -11.123   1.496  72.556  1.00  0.00    -0.063 NA 
HETATM   41  C   UNL     1      -9.910   1.907  72.035  1.00  0.00    -0.136 A  
HETATM   42  H   UNL     1     -11.652   0.687  72.230  1.00  0.00     0.000 HD 
HETATM   43  C   UNL     1      -9.169   1.493  70.929  1.00  0.00    -0.149 A  
HETATM   44  C   UNL     1      -8.007   2.228  70.629  1.00  0.00    -0.050 A  
HETATM   45  C   UNL     1      -7.676   3.403  71.318  1.00  0.00    -0.051 A  
HETATM   46  C   UNL     1      -8.543   3.898  72.298  1.00  0.00    -0.112 A  
HETATM   47  C   UNL     1      -8.661   5.369  72.699  1.00  0.00    -0.123 C  
HETATM   48  C   UNL     1      -9.556   3.034  72.746  1.00  0.00    -0.167 A  
HETATM   49  C   UNL     1      -8.509   6.313  71.486  1.00  0.00    -0.130 C  
ENDBRANCH  29  32
ENDBRANCH  27  29
ENDBRANCH  13  27
TORSDOF 5
ENDMDL
MODEL      112
REMARK 921   NORMALIZED FREE ENERGY PREDICTED BY IDOCK:   -3.47 KCAL/MOL
REMARK 922        TOTAL FREE ENERGY PREDICTED BY IDOCK:   -6.33 KCAL/MOL
REMARK 923 INTER-LIGAND FREE ENERGY PREDICTED BY IDOCK:   -6.29 KCAL/MOL
REMARK 924 INTRA-LIGAND FREE ENERGY PREDICTED BY IDOCK:   -0.04 KCAL/MOL
REMARK 927      BINDING AFFINITY PREDICTED BY RF-SCORE:    0.00 PKD
ROOT
HETATM    1  C   UNL     1     -11.773   9.574  70.453  1.00  0.00    -0.170 C  
HETATM    2  C   UNL     1     -12.190   8.984  71.795  1.00  0.00    -0.434 C  
HETATM    3  C   UNL     1     -13.129  10.080  72.375  1.00  0.00    -0.243 C  
HETATM    4  C   UNL     1     -12.897  11.328  71.534  1.00  0.00    -0.414 C  
HETATM    5  N   UNL     1     -11.801  10.983  70.659  1.00  0.00    -0.345 N  
HETATM    6  C   UNL     1     -11.632  11.794  69.566  1.00  0.00    -0.332 C  
HETATM    7  O   UNL     1     -11.781  13.003  69.706  1.00  0.00    -0.300 OA 
HETATM    8  C   UNL     1     -11.151  11.069  68.251  1.00  0.00    -0.257 C  
HETATM    9  C   UNL     1     -10.763   9.011  69.375  1.00  0.00    -0.191 C  
HETATM   10  N   UNL     1     -11.380   9.517  68.199  1.00  0.00     0.139 N  
HETATM   11  C   UNL     1     -10.719   8.659  67.310  1.00  0.00    -0.139 C  
HETATM   12  H   UNL     1     -10.223   7.263  68.877  1.00  0.00     0.000 HD 
HETATM   13  C   UNL     1      -9.194   8.869  67.532  1.00  0.00    -0.136 C  
HETATM   14  O   UNL     1     -11.295   7.874  66.581  1.00  0.00     0.814 OA 
HETATM   15  O   UNL     1     -10.831   7.602  69.525  1.00  0.00    -0.234 OA 
HETATM   16  O   UNL     1      -9.398   9.371  68.997  1.00  0.00    -0.147 OA 
HETATM   17  C   UNL     1      -9.359   9.237  64.812  1.00  0.00    -0.080 C  
HETATM   18  C   UNL     1      -7.852  10.819  66.027  1.00  0.00    -0.149 C  
HETATM   19  C   UNL     1      -9.014   9.841  66.214  1.00  0.00    -0.180 C  
ENDROOT
BRANCH   8  20
HETATM   20  C   UNL     1     -11.629  11.926  67.064  1.00  0.00    -0.365 C  
BRANCH  20  21
HETATM   21  C   UNL     1     -10.936  13.308  67.057  1.00  0.00    -0.291 A  
HETATM   22  C   UNL     1      -8.817  14.419  66.692  1.00  0.00    -0.188 A  
HETATM   23  C   UNL     1     -10.849  15.587  66.215  1.00  0.00    -0.283 A  
HETATM   24  C   UNL     1     -11.588  14.504  66.681  1.00  0.00    -0.385 A  
HETATM   25  C   UNL     1      -9.470  15.538  66.174  1.00  0.00    -0.376 A  
HETATM   26  C   UNL     1      -9.539  13.314  67.134  1.00  0.00    -0.240 A  
ENDBRANCH  20  21
ENDBRANCH   8  20
BRANCH  13  27
HETATM   27  N   UNL     1      -8.350   7.646  67.569  1.00  0.00    -0.120 NA 
HETATM   28  H   UNL     1      -8.318   6.968  66.809  1.00  0.00     0.000 HD 
BRANCH  27  29
HETATM   29  C   UNL     1      -7.663   7.522  68.656  1.00  0.00    -0.119 C  
HETATM   30  H   UNL     1      -6.064   8.186  69.665  1.00  0.00     0.000 HD 
HETATM   31  O   UNL     1      -6.569   8.276  68.866  1.00  0.00    -0.050 OA 
BRANCH  29  32
HETATM   32  C   UNL     1      -7.875   6.559  69.826  1.00  0.00    -0.115 C  
HETATM   33  C   UNL     1      -9.106   5.659  69.746  1.00  0.00    -0.138 C  
HETATM   34  N   UNL     1      -9.017   4.616  70.787  1.00  0.00    -0.118 NA 
HETATM   35  C   UNL     1      -7.894   3.635  70.611  1.00  0.00    -0.053 C  
HETATM   36  C   UNL     1     -10.306   4.036  71.121  1.00  0.00     0.239 C  
HETATM   37  C   UNL     1      -8.276   2.215  70.049  1.00  0.00    -0.062 C  
HETATM   38  C   UNL     1      -8.664   2.385  68.628  1.00  0.00    -0.129 A  
HETATM   39  C   UNL     1      -9.769   2.032  67.893  1.00  0.00     0.176 A  
HETATM   40  N   UNL     1      -9.701   2.722  66.698  1.00  0.00    -0.368 NA 
HETATM   41  C   UNL     1      -8.553   3.490  66.647  1.00  0.00    -0.113 A  
HETATM   42  H   UNL     1     -10.401   2.672  65.957  1.00  0.00     0.000 HD 
HETATM   43  C   UNL     1      -8.098   4.449  65.742  1.00  0.00    -0.102 A  
HETATM   44  C   UNL     1      -6.908   5.123  66.074  1.00  0.00    -0.061 A  
HETATM   45  C   UNL     1      -6.278   4.947  67.313  1.00  0.00    -0.035 A  
HETATM   46  C   UNL     1      -6.865   4.121  68.276  1.00  0.00    -0.048 A  
HETATM   47  C   UNL     1      -6.677   4.267  69.786  1.00  0.00    -0.034 C  
HETATM   48  C   UNL     1      -7.905   3.279  67.845  1.00  0.00    -0.071 A  
HETATM   49  C   UNL     1      -6.598   5.748  70.219  1.00  0.00    -0.047 C  
ENDBRANCH  29  32
ENDBRANCH  27  29
ENDBRANCH  13  27
TORSDOF 5
ENDMDL
MODEL      113
REMARK 921   NORMALIZED FREE ENERGY PREDICTED BY IDOCK:   -3.43 KCAL/MOL
REMARK 922        TOTAL FREE ENERGY PREDICTED BY IDOCK:   -6.28 KCAL/MOL
REMARK 923 INTER-LIGAND FREE ENERGY PREDICTED BY IDOCK:   -9.12 KCAL/MOL
REMARK 924 INTRA-LIGAND FREE ENERGY PREDICTED BY IDOCK:    2.84 KCAL/MOL
REMARK 927      BINDING AFFINITY PREDICTED BY RF-SCORE:    0.00 PKD
ROOT
HETATM    1  C   UNL     1      -9.507   8.224  71.545  1.00  0.00    -0.186 C  
HETATM    2  C   UNL     1      -9.209   8.415  73.027  1.00  0.00    -0.256 C  
HETATM    3  C   UNL     1     -10.006   7.255  73.691  1.00  0.00    -0.377 C  
HETATM    4  C   UNL     1     -10.962   6.734  72.627  1.00  0.00    -0.257 C  
HETATM    5  N   UNL     1     -10.807   7.642  71.516  1.00  0.00    -0.226 N  
HETATM    6  C   UNL     1     -11.282   7.196  70.309  1.00  0.00    -0.276 C  
HETATM    7  O   UNL     1     -12.342   6.580  70.289  1.00  0.00    -0.178 OA 
HETATM    8  C   UNL     1     -10.443   7.630  69.046  1.00  0.00    -0.205 C  
HETATM    9  C   UNL     1      -9.070   9.105  70.308  1.00  0.00    -0.218 C  
HETATM   10  N   UNL     1      -8.966   8.083  69.326  1.00  0.00    -0.148 N  
HETATM   11  C   UNL     1      -8.193   8.827  68.425  1.00  0.00    -0.118 C  
HETATM   12  H   UNL     1      -7.572  10.213  69.956  1.00  0.00     0.000 HD 
HETATM   13  C   UNL     1      -8.995  10.122  68.108  1.00  0.00    -0.122 C  
HETATM   14  O   UNL     1      -7.082   8.494  68.058  1.00  0.00    -0.082 OA 
HETATM   15  O   UNL     1      -7.835   9.683  70.700  1.00  0.00    -0.231 OA 
HETATM   16  O   UNL     1      -9.778  10.060  69.458  1.00  0.00    -0.209 OA 
HETATM   17  C   UNL     1      -8.498   9.205  65.563  1.00  0.00    -0.160 C  
HETATM   18  C   UNL     1     -10.791  10.122  65.954  1.00  0.00     0.210 C  
HETATM   19  C   UNL     1      -9.554   9.565  66.662  1.00  0.00    -0.243 C  
ENDROOT
BRANCH   8  20
HETATM   20  C   UNL     1     -10.698   6.577  67.952  1.00  0.00    -0.357 C  
BRANCH  20  21
HETATM   21  C   UNL     1     -10.278   5.167  68.426  1.00  0.00    -0.175 A  
HETATM   22  C   UNL     1      -9.379   3.049  67.672  1.00  0.00    -0.242 A  
HETATM   23  C   UNL     1      -8.930   3.784  69.904  1.00  0.00    -0.166 A  
HETATM   24  C   UNL     1      -9.729   4.904  69.703  1.00  0.00    -0.266 A  
HETATM   25  C   UNL     1      -8.712   2.877  68.887  1.00  0.00    -0.132 A  
HETATM   26  C   UNL     1     -10.157   4.179  67.442  1.00  0.00     0.047 A  
ENDBRANCH  20  21
ENDBRANCH   8  20
BRANCH  13  27
HETATM   27  N   UNL     1      -8.223  11.392  68.072  1.00  0.00    -0.133 NA 
HETATM   28  H   UNL     1      -7.247  11.444  67.783  1.00  0.00     0.000 HD 
BRANCH  27  29
HETATM   29  C   UNL     1      -8.906  12.425  68.443  1.00  0.00    -0.129 C  
HETATM   30  H   UNL     1     -10.702  13.064  69.061  1.00  0.00     0.000 HD 
HETATM   31  O   UNL     1     -10.200  12.305  68.789  1.00  0.00    -0.195 OA 
BRANCH  29  32
HETATM   32  C   UNL     1      -8.468  13.888  68.527  1.00  0.00    -0.127 C  
HETATM   33  C   UNL     1      -8.293  14.620  67.198  1.00  0.00    -0.211 C  
HETATM   34  N   UNL     1      -8.146  16.067  67.452  1.00  0.00    -0.153 NA 
HETATM   35  C   UNL     1      -9.360  16.738  68.028  1.00  0.00    -0.229 C  
HETATM   36  C   UNL     1      -7.501  16.773  66.360  1.00  0.00    -0.267 C  
HETATM   37  C   UNL     1     -10.231  17.596  67.035  1.00  0.00    -0.332 C  
HETATM   38  C   UNL     1     -10.901  16.660  66.102  1.00  0.00    -0.024 A  
HETATM   39  C   UNL     1     -10.971  16.565  64.734  1.00  0.00    -0.177 A  
HETATM   40  N   UNL     1     -11.480  15.315  64.437  1.00  0.00    -0.672 NA 
HETATM   41  C   UNL     1     -11.764  14.620  65.597  1.00  0.00    -0.304 A  
HETATM   42  H   UNL     1     -11.626  14.956  63.493  1.00  0.00     0.000 HD 
HETATM   43  C   UNL     1     -12.157  13.304  65.838  1.00  0.00    -0.493 A  
HETATM   44  C   UNL     1     -12.249  12.902  67.183  1.00  0.00    -0.131 A  
HETATM   45  C   UNL     1     -11.838  13.733  68.234  1.00  0.00    -0.413 A  
HETATM   46  C   UNL     1     -11.269  14.979  67.949  1.00  0.00    -0.330 A  
HETATM   47  C   UNL     1     -10.274  15.712  68.848  1.00  0.00    -0.214 C  
HETATM   48  C   UNL     1     -11.408  15.456  66.634  1.00  0.00    -0.103 A  
HETATM   49  C   UNL     1      -9.296  14.740  69.543  1.00  0.00     0.095 C  
ENDBRANCH  29  32
ENDBRANCH  27  29
ENDBRANCH  13  27
TORSDOF 5
ENDMDL
MODEL      114
REMARK 921   NORMALIZED FREE ENERGY PREDICTED BY IDOCK:   -3.41 KCAL/MOL
REMARK 922        TOTAL FREE ENERGY PREDICTED BY IDOCK:   -6.25 KCAL/MOL
REMARK 923 INTER-LIGAND FREE ENERGY PREDICTED BY IDOCK:   -6.67 KCAL/MOL
REMARK 924 INTRA-LIGAND FREE ENERGY PREDICTED BY IDOCK:    0.42 KCAL/MOL
REMARK 927      BINDING AFFINITY PREDICTED BY RF-SCORE:    0.00 PKD
ROOT
HETATM    1  C   UNL     1      -6.432  13.600  69.532  1.00  0.00    -0.099 C  
HETATM    2  C   UNL     1      -5.126  13.882  70.265  1.00  0.00    -0.093 C  
HETATM    3  C   UNL     1      -5.269  15.379  70.663  1.00  0.00    -0.141 C  
HETATM    4  C   UNL     1      -6.428  15.928  69.841  1.00  0.00    -0.113 C  
HETATM    5  N   UNL     1      -6.789  14.851  68.949  1.00  0.00    -0.098 N  
HETATM    6  C   UNL     1      -8.023  14.952  68.359  1.00  0.00    -0.134 C  
HETATM    7  O   UNL     1      -8.394  16.053  67.967  1.00  0.00    -0.158 OA 
HETATM    8  C   UNL     1      -8.792  13.592  68.152  1.00  0.00    -0.179 C  
HETATM    9  C   UNL     1      -6.913  12.285  68.799  1.00  0.00    -0.098 C  
HETATM   10  N   UNL     1      -8.311  12.389  69.040  1.00  0.00     0.272 N  
HETATM   11  C   UNL     1      -8.604  11.048  68.763  1.00  0.00    -0.144 C  
HETATM   12  H   UNL     1      -6.555  10.441  69.054  1.00  0.00     0.000 HD 
HETATM   13  C   UNL     1      -8.089  10.762  67.323  1.00  0.00    -0.117 C  
HETATM   14  O   UNL     1      -9.105  10.289  69.572  1.00  0.00    -0.206 OA 
HETATM   15  O   UNL     1      -6.266  11.232  69.494  1.00  0.00    -0.074 OA 
HETATM   16  O   UNL     1      -7.030  11.909  67.392  1.00  0.00    -0.105 OA 
HETATM   17  C   UNL     1     -10.687   9.889  67.108  1.00  0.00    -0.276 C  
HETATM   18  C   UNL     1      -9.813  11.176  65.150  1.00  0.00    -0.307 C  
HETATM   19  C   UNL     1      -9.580  10.890  66.636  1.00  0.00    -0.213 C  
ENDROOT
BRANCH   8  20
HETATM   20  C   UNL     1     -10.295  13.925  68.113  1.00  0.00    -0.247 C  
BRANCH  20  21
HETATM   21  C   UNL     1     -10.820  13.962  66.660  1.00  0.00    -0.289 A  
HETATM   22  C   UNL     1     -12.827  13.814  65.313  1.00  0.00    -0.430 A  
HETATM   23  C   UNL     1     -10.992  15.140  64.539  1.00  0.00    -0.208 A  
HETATM   24  C   UNL     1     -10.237  14.748  65.640  1.00  0.00    -0.382 A  
HETATM   25  C   UNL     1     -12.297  14.716  64.389  1.00  0.00    -0.420 A  
HETATM   26  C   UNL     1     -12.097  13.435  66.436  1.00  0.00    -0.464 A  
ENDBRANCH  20  21
ENDBRANCH   8  20
BRANCH  13  27
HETATM   27  N   UNL     1      -7.373   9.476  67.114  1.00  0.00    -0.087 NA 
HETATM   28  H   UNL     1      -6.421   9.420  66.754  1.00  0.00     0.000 HD 
BRANCH  27  29
HETATM   29  C   UNL     1      -8.070   8.436  67.431  1.00  0.00    -0.106 C  
HETATM   30  H   UNL     1      -9.400   7.092  66.765  1.00  0.00     0.000 HD 
HETATM   31  O   UNL     1      -8.887   7.857  66.533  1.00  0.00    -0.137 OA 
BRANCH  29  32
HETATM   32  C   UNL     1      -8.161   7.710  68.774  1.00  0.00    -0.127 C  
HETATM   33  C   UNL     1      -9.189   6.585  68.868  1.00  0.00    -0.129 C  
HETATM   34  N   UNL     1      -8.962   5.816  70.108  1.00  0.00    -0.139 NA 
HETATM   35  C   UNL     1      -7.663   5.065  70.161  1.00  0.00    -0.063 C  
HETATM   36  C   UNL     1     -10.132   5.072  70.537  1.00  0.00    -0.253 C  
HETATM   37  C   UNL     1      -7.732   3.513  69.907  1.00  0.00    -0.047 C  
HETATM   38  C   UNL     1      -8.063   3.308  68.477  1.00  0.00    -0.070 A  
HETATM   39  C   UNL     1      -9.035   2.598  67.816  1.00  0.00    -0.162 A  
HETATM   40  N   UNL     1      -9.033   3.029  66.503  1.00  0.00    -0.147 NA 
HETATM   41  C   UNL     1      -8.053   3.983  66.308  1.00  0.00    -0.098 A  
HETATM   42  H   UNL     1      -9.667   2.689  65.779  1.00  0.00     0.000 HD 
HETATM   43  C   UNL     1      -7.739   4.808  65.228  1.00  0.00    -0.086 A  
HETATM   44  C   UNL     1      -6.722   5.759  65.428  1.00  0.00    -0.044 A  
HETATM   45  C   UNL     1      -6.142   5.970  66.686  1.00  0.00    -0.025 A  
HETATM   46  C   UNL     1      -6.614   5.258  67.793  1.00  0.00    -0.053 A  
HETATM   47  C   UNL     1      -6.544   5.745  69.241  1.00  0.00    -0.054 C  
HETATM   48  C   UNL     1      -7.446   4.156  67.534  1.00  0.00    -0.069 A  
HETATM   49  C   UNL     1      -6.777   7.268  69.351  1.00  0.00    -0.049 C  
ENDBRANCH  29  32
ENDBRANCH  27  29
ENDBRANCH  13  27
TORSDOF 5
ENDMDL
MODEL      115
REMARK 921   NORMALIZED FREE ENERGY PREDICTED BY IDOCK:   -3.35 KCAL/MOL
REMARK 922        TOTAL FREE ENERGY PREDICTED BY IDOCK:   -6.18 KCAL/MOL
REMARK 923 INTER-LIGAND FREE ENERGY PREDICTED BY IDOCK:   -5.49 KCAL/MOL
REMARK 924 INTRA-LIGAND FREE ENERGY PREDICTED BY IDOCK:   -0.69 KCAL/MOL
REMARK 927      BINDING AFFINITY PREDICTED BY RF-SCORE:    0.00 PKD
ROOT
HETATM    1  C   UNL     1      -6.848  13.226  69.362  1.00  0.00     0.023 C  
HETATM    2  C   UNL     1      -5.980  13.207  70.615  1.00  0.00    -0.070 C  
HETATM    3  C   UNL     1      -5.621  14.709  70.809  1.00  0.00    -0.158 C  
HETATM    4  C   UNL     1      -5.980  15.403  69.502  1.00  0.00    -0.126 C  
HETATM    5  N   UNL     1      -6.361  14.334  68.609  1.00  0.00    -0.083 N  
HETATM    6  C   UNL     1      -7.065  14.709  67.494  1.00  0.00    -0.178 C  
HETATM    7  O   UNL     1      -6.733  15.735  66.910  1.00  0.00    -0.265 OA 
HETATM    8  C   UNL     1      -8.179  13.698  67.022  1.00  0.00    -0.037 C  
HETATM    9  C   UNL     1      -7.492  12.024  68.564  1.00  0.00    -0.117 C  
HETATM   10  N   UNL     1      -8.671  12.666  68.098  1.00  0.00    -0.186 N  
HETATM   11  C   UNL     1      -9.365  11.489  67.791  1.00  0.00    -0.168 C  
HETATM   12  H   UNL     1      -8.095  10.297  69.064  1.00  0.00     0.000 HD 
HETATM   13  C   UNL     1      -8.476  10.690  66.795  1.00  0.00    -0.134 C  
HETATM   14  O   UNL     1     -10.426  11.181  68.301  1.00  0.00    -0.176 OA 
HETATM   15  O   UNL     1      -7.707  11.020  69.543  1.00  0.00    -0.081 OA 
HETATM   16  O   UNL     1      -7.164  11.372  67.298  1.00  0.00    -0.103 OA 
HETATM   17  C   UNL     1     -10.850  10.756  65.407  1.00  0.00    -0.062 C  
HETATM   18  C   UNL     1      -8.788  11.122  64.041  1.00  0.00     0.102 C  
HETATM   19  C   UNL     1      -9.337  11.155  65.469  1.00  0.00    -0.247 C  
ENDROOT
BRANCH   8  20
HETATM   20  C   UNL     1      -9.229  14.514  66.246  1.00  0.00    -0.231 C  
BRANCH  20  21
HETATM   21  C   UNL     1     -10.010  15.459  67.189  1.00  0.00    -0.234 A  
HETATM   22  C   UNL     1     -10.822  15.708  69.456  1.00  0.00    -0.271 A  
HETATM   23  C   UNL     1     -10.252  17.659  68.195  1.00  0.00    -0.371 A  
HETATM   24  C   UNL     1      -9.973  16.868  67.085  1.00  0.00    -0.276 A  
HETATM   25  C   UNL     1     -10.632  17.090  69.393  1.00  0.00    -0.236 A  
HETATM   26  C   UNL     1     -10.518  14.898  68.366  1.00  0.00    -0.243 A  
ENDBRANCH  20  21
ENDBRANCH   8  20
BRANCH  13  27
HETATM   27  N   UNL     1      -8.362   9.226  67.028  1.00  0.00    -0.119 NA 
HETATM   28  H   UNL     1      -9.167   8.602  67.060  1.00  0.00     0.000 HD 
BRANCH  27  29
HETATM   29  C   UNL     1      -7.146   8.819  67.186  1.00  0.00    -0.075 C  
HETATM   30  H   UNL     1      -5.294   8.859  66.421  1.00  0.00     0.000 HD 
HETATM   31  O   UNL     1      -6.188   9.158  66.305  1.00  0.00    -0.062 OA 
BRANCH  29  32
HETATM   32  C   UNL     1      -6.569   7.911  68.274  1.00  0.00    -0.059 C  
HETATM   33  C   UNL     1      -7.567   7.026  69.017  1.00  0.00    -0.104 C  
HETATM   34  N   UNL     1      -6.832   6.028  69.820  1.00  0.00    -0.062 NA 
HETATM   35  C   UNL     1      -6.047   5.025  69.025  1.00  0.00    -0.029 C  
HETATM   36  C   UNL     1      -7.623   5.482  70.908  1.00  0.00    -0.090 C  
HETATM   37  C   UNL     1      -6.672   3.587  68.885  1.00  0.00    -0.045 C  
HETATM   38  C   UNL     1      -7.863   3.700  68.009  1.00  0.00    -0.068 A  
HETATM   39  C   UNL     1      -9.179   3.331  68.138  1.00  0.00    -0.191 A  
HETATM   40  N   UNL     1      -9.882   3.967  67.132  1.00  0.00    -0.274 NA 
HETATM   41  C   UNL     1      -9.028   4.715  66.344  1.00  0.00    -0.114 A  
HETATM   42  H   UNL     1     -10.889   3.894  66.991  1.00  0.00     0.000 HD 
HETATM   43  C   UNL     1      -9.250   5.627  65.312  1.00  0.00     0.090 A  
HETATM   44  C   UNL     1      -8.124   6.298  64.802  1.00  0.00    -0.127 A  
HETATM   45  C   UNL     1      -6.857   6.168  65.385  1.00  0.00    -0.048 A  
HETATM   46  C   UNL     1      -6.703   5.393  66.539  1.00  0.00    -0.057 A  
HETATM   47  C   UNL     1      -5.618   5.603  67.596  1.00  0.00    -0.012 C  
HETATM   48  C   UNL     1      -7.771   4.548  66.885  1.00  0.00    -0.094 A  
HETATM   49  C   UNL     1      -5.312   7.101  67.821  1.00  0.00    -0.020 C  
ENDBRANCH  29  32
ENDBRANCH  27  29
ENDBRANCH  13  27
TORSDOF 5
ENDMDL
MODEL      116
REMARK 921   NORMALIZED FREE ENERGY PREDICTED BY IDOCK:   -3.34 KCAL/MOL
REMARK 922        TOTAL FREE ENERGY PREDICTED BY IDOCK:   -6.16 KCAL/MOL
REMARK 923 INTER-LIGAND FREE ENERGY PREDICTED BY IDOCK:   -4.67 KCAL/MOL
REMARK 924 INTRA-LIGAND FREE ENERGY PREDICTED BY IDOCK:   -1.48 KCAL/MOL
REMARK 927      BINDING AFFINITY PREDICTED BY RF-SCORE:    0.00 PKD
ROOT
HETATM    1  C   UNL     1      -9.917   8.007  70.838  1.00  0.00    -0.186 C  
HETATM    2  C   UNL     1     -10.440   8.278  72.244  1.00  0.00    -0.392 C  
HETATM    3  C   UNL     1     -11.370   7.059  72.507  1.00  0.00    -0.301 C  
HETATM    4  C   UNL     1     -11.599   6.400  71.153  1.00  0.00    -0.318 C  
HETATM    5  N   UNL     1     -10.967   7.284  70.202  1.00  0.00    -0.256 N  
HETATM    6  C   UNL     1     -10.716   6.748  68.965  1.00  0.00    -0.246 C  
HETATM    7  O   UNL     1     -11.562   6.018  68.461  1.00  0.00     0.107 OA 
HETATM    8  C   UNL     1      -9.385   7.232  68.272  1.00  0.00    -0.135 C  
HETATM    9  C   UNL     1      -8.977   8.891  69.925  1.00  0.00    -0.156 C  
HETATM   10  N   UNL     1      -8.303   7.855  69.223  1.00  0.00    -0.134 N  
HETATM   11  C   UNL     1      -7.239   8.651  68.780  1.00  0.00    -0.075 C  
HETATM   12  H   UNL     1      -7.605  10.147  70.291  1.00  0.00     0.000 HD 
HETATM   13  C   UNL     1      -7.862   9.838  67.991  1.00  0.00    -0.086 C  
HETATM   14  O   UNL     1      -6.075   8.433  69.060  1.00  0.00    -0.041 OA 
HETATM   15  O   UNL     1      -8.170   9.615  70.840  1.00  0.00    -0.290 OA 
HETATM   16  O   UNL     1      -9.221   9.733  68.755  1.00  0.00    -0.136 OA 
HETATM   17  C   UNL     1      -6.057   8.900  66.141  1.00  0.00    -0.056 C  
HETATM   18  C   UNL     1      -8.289   9.567  65.233  1.00  0.00    -0.144 C  
HETATM   19  C   UNL     1      -7.553   9.175  66.516  1.00  0.00    -0.093 C  
ENDROOT
BRANCH   8  20
HETATM   20  C   UNL     1      -8.957   6.122  67.295  1.00  0.00    -0.112 C  
BRANCH  20  21
HETATM   21  C   UNL     1      -8.439   4.878  68.053  1.00  0.00    -0.103 A  
HETATM   22  C   UNL     1      -8.720   2.485  68.285  1.00  0.00    -0.129 A  
HETATM   23  C   UNL     1      -6.572   3.456  68.688  1.00  0.00    -0.040 A  
HETATM   24  C   UNL     1      -7.100   4.726  68.478  1.00  0.00    -0.057 A  
HETATM   25  C   UNL     1      -7.358   2.330  68.550  1.00  0.00    -0.047 A  
HETATM   26  C   UNL     1      -9.259   3.745  68.042  1.00  0.00    -0.216 A  
ENDBRANCH  20  21
ENDBRANCH   8  20
BRANCH  13  27
HETATM   27  N   UNL     1      -7.286  11.184  68.245  1.00  0.00    -0.079 NA 
HETATM   28  H   UNL     1      -6.291  11.390  68.159  1.00  0.00     0.000 HD 
BRANCH  27  29
HETATM   29  C   UNL     1      -8.163  12.070  68.584  1.00  0.00    -0.052 C  
HETATM   30  H   UNL     1      -8.743  13.328  70.032  1.00  0.00     0.000 HD 
HETATM   31  O   UNL     1      -8.099  12.677  69.782  1.00  0.00     1.311 OA 
BRANCH  29  32
HETATM   32  C   UNL     1      -9.386  12.561  67.807  1.00  0.00    -0.198 C  
HETATM   33  C   UNL     1     -10.246  13.619  68.495  1.00  0.00    -0.234 C  
HETATM   34  N   UNL     1     -11.203  14.180  67.522  1.00  0.00    -0.294 NA 
HETATM   35  C   UNL     1     -10.583  14.957  66.396  1.00  0.00    -0.307 C  
HETATM   36  C   UNL     1     -12.353  14.803  68.151  1.00  0.00     0.145 C  
HETATM   37  C   UNL     1     -10.661  16.527  66.493  1.00  0.00    -0.217 C  
HETATM   38  C   UNL     1      -9.764  16.953  67.594  1.00  0.00    -0.249 A  
HETATM   39  C   UNL     1      -9.933  17.727  68.715  1.00  0.00    -0.367 A  
HETATM   40  N   UNL     1      -8.833  17.519  69.524  1.00  0.00     0.472 NA 
HETATM   41  C   UNL     1      -7.948  16.644  68.922  1.00  0.00    -0.236 A  
HETATM   42  H   UNL     1      -8.692  17.951  70.438  1.00  0.00     0.000 HD 
HETATM   43  C   UNL     1      -6.784  16.020  69.371  1.00  0.00    -0.200 A  
HETATM   44  C   UNL     1      -6.189  15.084  68.505  1.00  0.00    -0.094 A  
HETATM   45  C   UNL     1      -6.801  14.690  67.308  1.00  0.00     0.078 A  
HETATM   46  C   UNL     1      -8.063  15.193  66.977  1.00  0.00    -0.240 A  
HETATM   47  C   UNL     1      -9.087  14.477  66.095  1.00  0.00    -0.083 C  
HETATM   48  C   UNL     1      -8.523  16.293  67.720  1.00  0.00    -0.169 A  
HETATM   49  C   UNL     1      -9.080  12.950  66.324  1.00  0.00    -0.019 C  
ENDBRANCH  29  32
ENDBRANCH  27  29
ENDBRANCH  13  27
TORSDOF 5
ENDMDL
MODEL      117
REMARK 921   NORMALIZED FREE ENERGY PREDICTED BY IDOCK:   -3.32 KCAL/MOL
REMARK 922        TOTAL FREE ENERGY PREDICTED BY IDOCK:   -6.14 KCAL/MOL
REMARK 923 INTER-LIGAND FREE ENERGY PREDICTED BY IDOCK:   -7.02 KCAL/MOL
REMARK 924 INTRA-LIGAND FREE ENERGY PREDICTED BY IDOCK:    0.88 KCAL/MOL
REMARK 927      BINDING AFFINITY PREDICTED BY RF-SCORE:    0.00 PKD
ROOT
HETATM    1  C   UNL     1     -11.904   8.334  70.738  1.00  0.00    -0.162 C  
HETATM    2  C   UNL     1     -12.537   7.869  72.045  1.00  0.00    -0.327 C  
HETATM    3  C   UNL     1     -13.421   9.084  72.451  1.00  0.00    -0.524 C  
HETATM    4  C   UNL     1     -12.962  10.250  71.586  1.00  0.00    -0.465 C  
HETATM    5  N   UNL     1     -11.812   9.749  70.872  1.00  0.00    -0.313 N  
HETATM    6  C   UNL     1     -11.431  10.472  69.770  1.00  0.00    -0.294 C  
HETATM    7  O   UNL     1     -11.470  11.696  69.833  1.00  0.00    -0.277 OA 
HETATM    8  C   UNL     1     -10.875   9.627  68.562  1.00  0.00    -0.161 C  
HETATM    9  C   UNL     1     -10.837   7.612  69.823  1.00  0.00    -0.217 C  
HETATM   10  N   UNL     1     -11.254   8.104  68.556  1.00  0.00     0.416 N  
HETATM   11  C   UNL     1     -10.585   7.135  67.798  1.00  0.00    -0.225 C  
HETATM   12  H   UNL     1     -10.426   5.794  69.479  1.00  0.00     0.000 HD 
HETATM   13  C   UNL     1      -9.083   7.209  68.198  1.00  0.00    -0.133 C  
HETATM   14  O   UNL     1     -11.148   6.366  67.041  1.00  0.00    -0.384 OA 
HETATM   15  O   UNL     1     -11.067   6.228  70.030  1.00  0.00    -0.319 OA 
HETATM   16  O   UNL     1      -9.407   7.816  69.600  1.00  0.00    -0.153 OA 
HETATM   17  C   UNL     1      -8.885   7.427  65.463  1.00  0.00     0.002 C  
HETATM   18  C   UNL     1      -7.378   8.926  66.780  1.00  0.00    -0.082 C  
HETATM   19  C   UNL     1      -8.649   8.079  66.868  1.00  0.00    -0.130 C  
ENDROOT
BRANCH   8  20
HETATM   20  C   UNL     1     -11.117  10.453  67.285  1.00  0.00    -0.251 C  
BRANCH  20  21
HETATM   21  C   UNL     1     -10.040  11.549  67.115  1.00  0.00    -0.223 A  
HETATM   22  C   UNL     1      -9.701  13.862  66.488  1.00  0.00    -0.303 A  
HETATM   23  C   UNL     1      -8.230  12.853  68.081  1.00  0.00    -0.163 A  
HETATM   24  C   UNL     1      -8.883  11.635  67.922  1.00  0.00    -0.155 A  
HETATM   25  C   UNL     1      -8.656  13.979  67.406  1.00  0.00    -0.211 A  
HETATM   26  C   UNL     1     -10.386  12.660  66.339  1.00  0.00    -0.264 A  
ENDBRANCH  20  21
ENDBRANCH   8  20
BRANCH  13  27
HETATM   27  N   UNL     1      -8.381   5.914  68.398  1.00  0.00    -0.111 NA 
HETATM   28  H   UNL     1      -8.747   5.024  68.062  1.00  0.00     0.000 HD 
BRANCH  27  29
HETATM   29  C   UNL     1      -7.264   6.023  69.038  1.00  0.00    -0.083 C  
HETATM   30  H   UNL     1      -5.312   5.571  69.010  1.00  0.00     0.000 HD 
HETATM   31  O   UNL     1      -6.133   5.491  68.540  1.00  0.00    -0.020 OA 
BRANCH  29  32
HETATM   32  C   UNL     1      -6.991   6.675  70.394  1.00  0.00    -0.063 C  
HETATM   33  C   UNL     1      -8.217   7.067  71.216  1.00  0.00    -0.113 C  
HETATM   34  N   UNL     1      -7.795   7.417  72.587  1.00  0.00    -0.093 NA 
HETATM   35  C   UNL     1      -7.226   6.281  73.387  1.00  0.00    -0.087 C  
HETATM   36  C   UNL     1      -8.760   8.249  73.283  1.00  0.00    -0.215 C  
HETATM   37  C   UNL     1      -8.170   5.636  74.470  1.00  0.00    -0.105 C  
HETATM   38  C   UNL     1      -9.241   4.905  73.753  1.00  0.00    -0.118 A  
HETATM   39  C   UNL     1     -10.613   4.930  73.807  1.00  0.00    -0.276 A  
HETATM   40  N   UNL     1     -11.078   4.257  72.693  1.00  0.00     0.008 NA 
HETATM   41  C   UNL     1     -10.022   3.777  71.942  1.00  0.00    -0.160 A  
HETATM   42  H   UNL     1     -12.063   4.132  72.458  1.00  0.00     0.000 HD 
HETATM   43  C   UNL     1      -9.953   3.166  70.690  1.00  0.00     0.171 A  
HETATM   44  C   UNL     1      -8.669   2.905  70.178  1.00  0.00    -0.129 A  
HETATM   45  C   UNL     1      -7.510   3.357  70.822  1.00  0.00    -0.040 A  
HETATM   46  C   UNL     1      -7.619   4.134  71.980  1.00  0.00    -0.071 A  
HETATM   47  C   UNL     1      -6.583   5.156  72.448  1.00  0.00    -0.052 C  
HETATM   48  C   UNL     1      -8.878   4.175  72.601  1.00  0.00    -0.114 A  
HETATM   49  C   UNL     1      -5.940   5.912  71.264  1.00  0.00    -0.026 C  
ENDBRANCH  29  32
ENDBRANCH  27  29
ENDBRANCH  13  27
TORSDOF 5
ENDMDL
MODEL      118
REMARK 921   NORMALIZED FREE ENERGY PREDICTED BY IDOCK:   -3.26 KCAL/MOL
REMARK 922        TOTAL FREE ENERGY PREDICTED BY IDOCK:   -6.06 KCAL/MOL
REMARK 923 INTER-LIGAND FREE ENERGY PREDICTED BY IDOCK:   -6.59 KCAL/MOL
REMARK 924 INTRA-LIGAND FREE ENERGY PREDICTED BY IDOCK:    0.54 KCAL/MOL
REMARK 927      BINDING AFFINITY PREDICTED BY RF-SCORE:    0.00 PKD
ROOT
HETATM    1  C   UNL     1      -6.785   7.122  71.832  1.00  0.00    -0.056 C  
HETATM    2  C   UNL     1      -5.378   6.912  72.379  1.00  0.00    -0.037 C  
HETATM    3  C   UNL     1      -5.544   5.657  73.284  1.00  0.00    -0.024 C  
HETATM    4  C   UNL     1      -7.042   5.470  73.480  1.00  0.00    -0.086 C  
HETATM    5  N   UNL     1      -7.642   6.626  72.856  1.00  0.00    -0.095 N  
HETATM    6  C   UNL     1      -8.981   6.526  72.576  1.00  0.00    -0.135 C  
HETATM    7  O   UNL     1      -9.711   5.984  73.399  1.00  0.00    -0.153 OA 
HETATM    8  C   UNL     1      -9.453   7.232  71.248  1.00  0.00    -0.155 C  
HETATM    9  C   UNL     1      -7.343   8.271  70.901  1.00  0.00    -0.059 C  
HETATM   10  N   UNL     1      -8.329   7.532  70.193  1.00  0.00    -0.133 N  
HETATM   11  C   UNL     1      -8.468   8.447  69.142  1.00  0.00    -0.123 C  
HETATM   12  H   UNL     1      -6.562   9.364  69.562  1.00  0.00     0.000 HD 
HETATM   13  C   UNL     1      -8.842   9.814  69.783  1.00  0.00    -0.224 C  
HETATM   14  O   UNL     1      -8.252   8.171  67.977  1.00  0.00    -0.126 OA 
HETATM   15  O   UNL     1      -6.227   8.673  70.122  1.00  0.00    -0.033 OA 
HETATM   16  O   UNL     1      -8.181   9.443  71.148  1.00  0.00    -0.314 OA 
HETATM   17  C   UNL     1     -10.860   9.561  67.932  1.00  0.00    -0.240 C  
HETATM   18  C   UNL     1     -11.547  10.447  70.167  1.00  0.00    -0.392 C  
HETATM   19  C   UNL     1     -10.446   9.673  69.438  1.00  0.00    -0.236 C  
ENDROOT
BRANCH   8  20
HETATM   20  C   UNL     1     -10.729   6.507  70.781  1.00  0.00    -0.290 C  
BRANCH  20  21
HETATM   21  C   UNL     1     -11.981   7.067  71.494  1.00  0.00    -0.372 A  
HETATM   22  C   UNL     1     -12.854   9.001  72.660  1.00  0.00    -0.315 A  
HETATM   23  C   UNL     1     -14.351   7.608  71.417  1.00  0.00    -0.537 A  
HETATM   24  C   UNL     1     -13.304   6.743  71.114  1.00  0.00     0.011 A  
HETATM   25  C   UNL     1     -14.130   8.758  72.148  1.00  0.00    -0.519 A  
HETATM   26  C   UNL     1     -11.789   8.164  72.340  1.00  0.00    -0.448 A  
ENDBRANCH  20  21
ENDBRANCH   8  20
BRANCH  13  27
HETATM   27  N   UNL     1      -8.154  11.016  69.241  1.00  0.00    -0.359 NA 
HETATM   28  H   UNL     1      -7.337  11.436  69.682  1.00  0.00     0.000 HD 
BRANCH  27  29
HETATM   29  C   UNL     1      -8.688  11.477  68.159  1.00  0.00    -0.157 C  
HETATM   30  H   UNL     1      -8.922  11.174  66.192  1.00  0.00     0.000 HD 
HETATM   31  O   UNL     1      -8.529  10.835  66.988  1.00  0.00    -0.125 OA 
BRANCH  29  32
HETATM   32  C   UNL     1      -9.508  12.752  67.958  1.00  0.00    -0.213 C  
HETATM   33  C   UNL     1      -9.436  13.787  69.079  1.00  0.00     0.213 C  
HETATM   34  N   UNL     1     -10.043  15.051  68.618  1.00  0.00    -0.226 NA 
HETATM   35  C   UNL     1      -9.308  15.739  67.503  1.00  0.00    -0.209 C  
HETATM   36  C   UNL     1     -10.466  15.909  69.709  1.00  0.00    -0.311 C  
HETATM   37  C   UNL     1      -8.430  16.985  67.897  1.00  0.00    -0.209 C  
HETATM   38  C   UNL     1      -7.268  16.488  68.672  1.00  0.00    -0.186 A  
HETATM   39  C   UNL     1      -6.739  16.799  69.900  1.00  0.00     0.182 A  
HETATM   40  N   UNL     1      -5.843  15.797  70.223  1.00  0.00    -0.154 NA 
HETATM   41  C   UNL     1      -5.771  14.866  69.206  1.00  0.00    -0.097 A  
HETATM   42  H   UNL     1      -5.309  15.753  71.092  1.00  0.00     0.000 HD 
HETATM   43  C   UNL     1      -5.137  13.628  69.101  1.00  0.00    -0.077 A  
HETATM   44  C   UNL     1      -5.378  12.885  67.930  1.00  0.00    -0.110 A  
HETATM   45  C   UNL     1      -6.314  13.296  66.973  1.00  0.00     0.690 A  
HETATM   46  C   UNL     1      -7.075  14.448  67.199  1.00  0.00     0.235 A  
HETATM   47  C   UNL     1      -8.466  14.705  66.619  1.00  0.00    -0.052 C  
HETATM   48  C   UNL     1      -6.654  15.295  68.238  1.00  0.00    -0.116 A  
HETATM   49  C   UNL     1      -9.315  13.415  66.556  1.00  0.00    -0.225 C  
ENDBRANCH  29  32
ENDBRANCH  27  29
ENDBRANCH  13  27
TORSDOF 5
ENDMDL
MODEL      119
REMARK 921   NORMALIZED FREE ENERGY PREDICTED BY IDOCK:   -3.26 KCAL/MOL
REMARK 922        TOTAL FREE ENERGY PREDICTED BY IDOCK:   -6.05 KCAL/MOL
REMARK 923 INTER-LIGAND FREE ENERGY PREDICTED BY IDOCK:   -5.21 KCAL/MOL
REMARK 924 INTRA-LIGAND FREE ENERGY PREDICTED BY IDOCK:   -0.85 KCAL/MOL
REMARK 927      BINDING AFFINITY PREDICTED BY RF-SCORE:    0.00 PKD
ROOT
HETATM    1  C   UNL     1      -9.669  17.214  66.515  1.00  0.00    -0.287 C  
HETATM    2  C   UNL     1     -10.733  17.416  65.443  1.00  0.00    -0.040 C  
HETATM    3  C   UNL     1     -11.017  18.944  65.523  1.00  0.00     0.174 C  
HETATM    4  C   UNL     1     -10.401  19.423  66.830  1.00  0.00    -0.443 C  
HETATM    5  N   UNL     1      -9.948  18.219  67.487  1.00  0.00    -0.321 N  
HETATM    6  C   UNL     1      -9.044  18.396  68.502  1.00  0.00    -0.324 C  
HETATM    7  O   UNL     1      -9.205  19.338  69.270  1.00  0.00    -0.231 OA 
HETATM    8  C   UNL     1      -7.938  17.281  68.630  1.00  0.00    -0.267 C  
HETATM    9  C   UNL     1      -8.982  15.882  67.016  1.00  0.00    -0.217 C  
HETATM   10  N   UNL     1      -7.702  16.398  67.353  1.00  0.00    -0.144 N  
HETATM   11  C   UNL     1      -7.047  15.160  67.369  1.00  0.00    -0.187 C  
HETATM   12  H   UNL     1      -8.588  14.223  66.186  1.00  0.00     0.000 HD 
HETATM   13  C   UNL     1      -7.808  14.262  68.386  1.00  0.00    -0.140 C  
HETATM   14  O   UNL     1      -6.109  14.886  66.644  1.00  0.00     0.869 OA 
HETATM   15  O   UNL     1      -9.001  15.025  65.885  1.00  0.00    -0.154 OA 
HETATM   16  O   UNL     1      -9.137  15.065  68.218  1.00  0.00    -0.173 OA 
HETATM   17  C   UNL     1      -5.237  14.023  69.333  1.00  0.00    -0.082 C  
HETATM   18  C   UNL     1      -7.014  14.271  71.076  1.00  0.00     1.116 C  
HETATM   19  C   UNL     1      -6.710  14.490  69.592  1.00  0.00    -0.155 C  
ENDROOT
BRANCH   8  20
HETATM   20  C   UNL     1      -6.720  17.929  69.314  1.00  0.00    -0.213 C  
BRANCH  20  21
HETATM   21  C   UNL     1      -6.064  18.988  68.399  1.00  0.00    -0.235 A  
HETATM   22  C   UNL     1      -5.850  19.705  66.097  1.00  0.00    -0.181 A  
HETATM   23  C   UNL     1      -5.712  21.330  67.848  1.00  0.00    -0.394 A  
HETATM   24  C   UNL     1      -5.822  20.322  68.800  1.00  0.00    -0.330 A  
HETATM   25  C   UNL     1      -5.769  21.039  66.499  1.00  0.00    -0.288 A  
HETATM   26  C   UNL     1      -5.992  18.687  67.035  1.00  0.00    -0.169 A  
ENDBRANCH  20  21
ENDBRANCH   8  20
BRANCH  13  27
HETATM   27  N   UNL     1      -8.057  12.854  67.977  1.00  0.00    -0.148 NA 
HETATM   28  H   UNL     1      -7.532  12.387  67.239  1.00  0.00     0.000 HD 
BRANCH  27  29
HETATM   29  C   UNL     1      -9.002  12.279  68.644  1.00  0.00     0.020 C  
HETATM   30  H   UNL     1     -10.983  12.194  68.935  1.00  0.00     0.000 HD 
HETATM   31  O   UNL     1     -10.288  12.617  68.445  1.00  0.00    -0.228 OA 
BRANCH  29  32
HETATM   32  C   UNL     1      -8.898  11.216  69.740  1.00  0.00     0.934 C  
HETATM   33  C   UNL     1     -10.064  10.236  69.845  1.00  0.00    -0.171 C  
HETATM   34  N   UNL     1      -9.690   9.126  70.743  1.00  0.00    -0.250 NA 
HETATM   35  C   UNL     1      -8.580   8.247  70.241  1.00  0.00    -0.127 C  
HETATM   36  C   UNL     1     -10.839   8.428  71.292  1.00  0.00    -0.239 C  
HETATM   37  C   UNL     1      -8.998   6.850  69.647  1.00  0.00    -0.144 C  
HETATM   38  C   UNL     1      -9.698   7.100  68.364  1.00  0.00    -0.143 A  
HETATM   39  C   UNL     1     -10.917   6.723  67.855  1.00  0.00    -0.227 A  
HETATM   40  N   UNL     1     -11.153   7.507  66.742  1.00  0.00    -0.382 NA 
HETATM   41  C   UNL     1     -10.089   8.359  66.515  1.00  0.00    -0.247 A  
HETATM   42  H   UNL     1     -11.995   7.462  66.167  1.00  0.00     0.000 HD 
HETATM   43  C   UNL     1      -9.898   9.415  65.624  1.00  0.00    -0.294 A  
HETATM   44  C   UNL     1      -8.704  10.148  65.753  1.00  0.00    -0.166 A  
HETATM   45  C   UNL     1      -7.807   9.925  66.806  1.00  0.00    -0.109 A  
HETATM   46  C   UNL     1      -8.121   8.986  67.794  1.00  0.00    -0.109 A  
HETATM   47  C   UNL     1      -7.612   9.029  69.235  1.00  0.00    -0.079 C  
HETATM   48  C   UNL     1      -9.181   8.105  67.521  1.00  0.00    -0.154 A  
HETATM   49  C   UNL     1      -7.523  10.474  69.773  1.00  0.00    -0.127 C  
ENDBRANCH  29  32
ENDBRANCH  27  29
ENDBRANCH  13  27
TORSDOF 5
ENDMDL
MODEL      120
REMARK 921   NORMALIZED FREE ENERGY PREDICTED BY IDOCK:   -3.17 KCAL/MOL
REMARK 922        TOTAL FREE ENERGY PREDICTED BY IDOCK:   -5.93 KCAL/MOL
REMARK 923 INTER-LIGAND FREE ENERGY PREDICTED BY IDOCK:   -8.10 KCAL/MOL
REMARK 924 INTRA-LIGAND FREE ENERGY PREDICTED BY IDOCK:    2.17 KCAL/MOL
REMARK 927      BINDING AFFINITY PREDICTED BY RF-SCORE:    0.00 PKD
ROOT
HETATM    1  C   UNL     1     -11.095  12.905  65.092  1.00  0.00    -0.292 C  
HETATM    2  C   UNL     1     -12.122  12.060  64.348  1.00  0.00    -0.375 C  
HETATM    3  C   UNL     1     -12.765  13.083  63.368  1.00  0.00    -0.046 C  
HETATM    4  C   UNL     1     -12.344  14.463  63.857  1.00  0.00    -0.077 C  
HETATM    5  N   UNL     1     -11.652  14.217  65.100  1.00  0.00    -0.330 N  
HETATM    6  C   UNL     1     -10.867  15.243  65.559  1.00  0.00    -0.372 C  
HETATM    7  O   UNL     1     -11.284  16.391  65.454  1.00  0.00    -0.093 OA 
HETATM    8  C   UNL     1      -9.535  14.809  66.282  1.00  0.00    -0.303 C  
HETATM    9  C   UNL     1     -10.137  12.508  66.285  1.00  0.00    -0.250 C  
HETATM   10  N   UNL     1      -9.034  13.351  65.981  1.00  0.00     0.237 N  
HETATM   11  C   UNL     1      -8.106  12.665  66.775  1.00  0.00     0.082 C  
HETATM   12  H   UNL     1      -9.320  10.883  66.820  1.00  0.00     0.000 HD 
HETATM   13  C   UNL     1      -8.681  12.639  68.220  1.00  0.00    -0.169 C  
HETATM   14  O   UNL     1      -7.095  12.150  66.333  1.00  0.00     0.254 OA 
HETATM   15  O   UNL     1      -9.896  11.122  66.103  1.00  0.00    -0.210 OA 
HETATM   16  O   UNL     1     -10.153  12.791  67.719  1.00  0.00    -0.214 OA 
HETATM   17  C   UNL     1      -6.177  13.671  68.696  1.00  0.00    -0.088 C  
HETATM   18  C   UNL     1      -8.045  14.728  69.979  1.00  0.00     0.479 C  
HETATM   19  C   UNL     1      -7.729  13.874  68.749  1.00  0.00    -0.096 C  
ENDROOT
BRANCH   8  20
HETATM   20  C   UNL     1      -8.541  15.976  66.136  1.00  0.00    -0.315 C  
BRANCH  20  21
HETATM   21  C   UNL     1      -8.687  16.982  67.300  1.00  0.00    -0.212 A  
HETATM   22  C   UNL     1      -7.738  18.988  68.267  1.00  0.00    -0.346 A  
HETATM   23  C   UNL     1     -10.076  18.557  68.527  1.00  0.00    -0.414 A  
HETATM   24  C   UNL     1      -9.931  17.338  67.871  1.00  0.00    -0.297 A  
HETATM   25  C   UNL     1      -9.000  19.406  68.691  1.00  0.00    -0.419 A  
HETATM   26  C   UNL     1      -7.578  17.788  67.582  1.00  0.00    -0.215 A  
ENDBRANCH  20  21
ENDBRANCH   8  20
BRANCH  13  27
HETATM   27  N   UNL     1      -8.569  11.355  68.960  1.00  0.00    -0.373 NA 
HETATM   28  H   UNL     1      -7.685  10.866  69.098  1.00  0.00     0.000 HD 
BRANCH  27  29
HETATM   29  C   UNL     1      -9.697  10.915  69.411  1.00  0.00     0.009 C  
HETATM   30  H   UNL     1     -11.683  11.182  69.393  1.00  0.00     0.000 HD 
HETATM   31  O   UNL     1     -10.853  11.505  69.062  1.00  0.00    -0.207 OA 
BRANCH  29  32
HETATM   32  C   UNL     1      -9.961   9.764  70.384  1.00  0.00    -0.294 C  
HETATM   33  C   UNL     1     -10.986   8.723  69.938  1.00  0.00    -0.179 C  
HETATM   34  N   UNL     1     -10.922   7.556  70.840  1.00  0.00    -0.249 NA 
HETATM   35  C   UNL     1      -9.637   6.781  70.786  1.00  0.00    -0.168 C  
HETATM   36  C   UNL     1     -12.134   6.758  70.822  1.00  0.00    -0.347 C  
HETATM   37  C   UNL     1      -9.662   5.424  69.987  1.00  0.00    -0.248 C  
HETATM   38  C   UNL     1      -9.798   5.754  68.548  1.00  0.00    -0.177 A  
HETATM   39  C   UNL     1     -10.668   5.366  67.560  1.00  0.00    -0.058 A  
HETATM   40  N   UNL     1     -10.493   6.234  66.499  1.00  0.00    -0.451 NA 
HETATM   41  C   UNL     1      -9.502   7.153  66.784  1.00  0.00    -0.169 A  
HETATM   42  H   UNL     1     -11.022   6.200  65.627  1.00  0.00     0.000 HD 
HETATM   43  C   UNL     1      -9.051   8.294  66.119  1.00  0.00    -0.238 A  
HETATM   44  C   UNL     1      -8.076   9.069  66.773  1.00  0.00    -0.111 A  
HETATM   45  C   UNL     1      -7.671   8.795  68.086  1.00  0.00    -0.101 A  
HETATM   46  C   UNL     1      -8.282   7.757  68.797  1.00  0.00    -0.128 A  
HETATM   47  C   UNL     1      -8.410   7.696  70.319  1.00  0.00    -0.132 C  
HETATM   48  C   UNL     1      -9.065   6.855  68.057  1.00  0.00    -0.120 A  
HETATM   49  C   UNL     1      -8.664   9.089  70.935  1.00  0.00    -0.280 C  
ENDBRANCH  29  32
ENDBRANCH  27  29
ENDBRANCH  13  27
TORSDOF 5
ENDMDL
MODEL      121
REMARK 921   NORMALIZED FREE ENERGY PREDICTED BY IDOCK:   -3.16 KCAL/MOL
REMARK 922        TOTAL FREE ENERGY PREDICTED BY IDOCK:   -5.93 KCAL/MOL
REMARK 923 INTER-LIGAND FREE ENERGY PREDICTED BY IDOCK:   -6.40 KCAL/MOL
REMARK 924 INTRA-LIGAND FREE ENERGY PREDICTED BY IDOCK:    0.46 KCAL/MOL
REMARK 927      BINDING AFFINITY PREDICTED BY RF-SCORE:    0.00 PKD
ROOT
HETATM    1  C   UNL     1      -6.770  13.541  68.945  1.00  0.00    -0.109 C  
HETATM    2  C   UNL     1      -5.514  14.052  69.642  1.00  0.00    -0.094 C  
HETATM    3  C   UNL     1      -5.594  15.589  69.413  1.00  0.00    -0.109 C  
HETATM    4  C   UNL     1      -6.642  15.803  68.329  1.00  0.00    -0.120 C  
HETATM    5  N   UNL     1      -6.996  14.473  67.891  1.00  0.00    -0.144 N  
HETATM    6  C   UNL     1      -8.166  14.368  67.184  1.00  0.00    -0.178 C  
HETATM    7  O   UNL     1      -8.432  15.238  66.361  1.00  0.00    -0.238 OA 
HETATM    8  C   UNL     1      -9.001  13.056  67.442  1.00  0.00    -0.204 C  
HETATM    9  C   UNL     1      -7.271  12.057  68.732  1.00  0.00    -0.108 C  
HETATM   10  N   UNL     1      -8.674  12.284  68.769  1.00  0.00     0.050 N  
HETATM   11  C   UNL     1      -9.028  10.949  69.004  1.00  0.00    -0.094 C  
HETATM   12  H   UNL     1      -7.054  10.451  69.714  1.00  0.00     0.000 HD 
HETATM   13  C   UNL     1      -8.413  10.110  67.847  1.00  0.00    -0.118 C  
HETATM   14  O   UNL     1      -9.643  10.580  69.987  1.00  0.00     0.036 OA 
HETATM   15  O   UNL     1      -6.753  11.343  69.842  1.00  0.00    -0.122 OA 
HETATM   16  O   UNL     1      -7.292  11.164  67.575  1.00  0.00    -0.095 OA 
HETATM   17  C   UNL     1     -11.035   9.290  67.721  1.00  0.00    -0.072 C  
HETATM   18  C   UNL     1      -9.918   9.686  65.519  1.00  0.00    -0.279 C  
HETATM   19  C   UNL     1      -9.829   9.998  67.014  1.00  0.00    -0.238 C  
ENDROOT
BRANCH   8  20
HETATM   20  C   UNL     1     -10.470  13.386  67.123  1.00  0.00    -0.249 C  
BRANCH  20  21
HETATM   21  C   UNL     1     -10.898  12.779  65.767  1.00  0.00    -0.299 A  
HETATM   22  C   UNL     1     -12.819  12.245  64.395  1.00  0.00    -0.294 A  
HETATM   23  C   UNL     1     -10.743  12.791  63.341  1.00  0.00    -0.089 A  
HETATM   24  C   UNL     1     -10.130  12.892  64.585  1.00  0.00    -0.254 A  
HETATM   25  C   UNL     1     -12.091  12.514  63.235  1.00  0.00    -0.525 A  
HETATM   26  C   UNL     1     -12.231  12.372  65.650  1.00  0.00    -0.322 A  
ENDBRANCH  20  21
ENDBRANCH   8  20
BRANCH  13  27
HETATM   27  N   UNL     1      -7.766   8.826  68.225  1.00  0.00    -0.099 NA 
HETATM   28  H   UNL     1      -6.958   8.443  67.735  1.00  0.00     0.000 HD 
BRANCH  27  29
HETATM   29  C   UNL     1      -8.322   8.241  69.234  1.00  0.00    -0.122 C  
HETATM   30  H   UNL     1      -9.892   7.146  69.829  1.00  0.00     0.000 HD 
HETATM   31  O   UNL     1      -9.482   7.576  69.088  1.00  0.00    -0.150 OA 
BRANCH  29  32
HETATM   32  C   UNL     1      -7.869   8.201  70.694  1.00  0.00    -0.091 C  
HETATM   33  C   UNL     1      -8.845   7.577  71.689  1.00  0.00    -0.116 C  
HETATM   34  N   UNL     1      -8.159   7.363  72.979  1.00  0.00    -0.101 NA 
HETATM   35  C   UNL     1      -7.047   6.353  72.947  1.00  0.00    -0.079 C  
HETATM   36  C   UNL     1      -9.076   7.246  74.097  1.00  0.00    -0.228 C  
HETATM   37  C   UNL     1      -7.364   4.933  73.549  1.00  0.00    -0.086 C  
HETATM   38  C   UNL     1      -8.316   4.261  72.633  1.00  0.00    -0.101 A  
HETATM   39  C   UNL     1      -9.541   3.665  72.802  1.00  0.00    -0.130 A  
HETATM   40  N   UNL     1     -10.087   3.490  71.544  1.00  0.00    -0.092 NA 
HETATM   41  C   UNL     1      -9.215   3.940  70.571  1.00  0.00    -0.133 A  
HETATM   42  H   UNL     1     -11.005   3.085  71.360  1.00  0.00     0.000 HD 
HETATM   43  C   UNL     1      -9.342   4.108  69.192  1.00  0.00    -0.235 A  
HETATM   44  C   UNL     1      -8.261   4.708  68.521  1.00  0.00    -0.083 A  
HETATM   45  C   UNL     1      -7.164   5.239  69.212  1.00  0.00    -0.057 A  
HETATM   46  C   UNL     1      -7.154   5.226  70.610  1.00  0.00    -0.060 A  
HETATM   47  C   UNL     1      -6.401   6.225  71.489  1.00  0.00    -0.045 C  
HETATM   48  C   UNL     1      -8.111   4.417  71.246  1.00  0.00    -0.082 A  
HETATM   49  C   UNL     1      -6.420   7.650  70.893  1.00  0.00    -0.038 C  
ENDBRANCH  29  32
ENDBRANCH  27  29
ENDBRANCH  13  27
TORSDOF 5
ENDMDL
MODEL      122
REMARK 921   NORMALIZED FREE ENERGY PREDICTED BY IDOCK:   -3.13 KCAL/MOL
REMARK 922        TOTAL FREE ENERGY PREDICTED BY IDOCK:   -5.89 KCAL/MOL
REMARK 923 INTER-LIGAND FREE ENERGY PREDICTED BY IDOCK:   -6.52 KCAL/MOL
REMARK 924 INTRA-LIGAND FREE ENERGY PREDICTED BY IDOCK:    0.64 KCAL/MOL
REMARK 927      BINDING AFFINITY PREDICTED BY RF-SCORE:    0.00 PKD
ROOT
HETATM    1  C   UNL     1      -7.757   7.569  64.165  1.00  0.00    -0.132 C  
HETATM    2  C   UNL     1      -8.014   7.395  62.673  1.00  0.00    -0.126 C  
HETATM    3  C   UNL     1      -7.472   5.963  62.394  1.00  0.00    -0.060 C  
HETATM    4  C   UNL     1      -6.639   5.580  63.610  1.00  0.00    -0.033 C  
HETATM    5  N   UNL     1      -6.603   6.774  64.422  1.00  0.00    -0.041 N  
HETATM    6  C   UNL     1      -6.226   6.596  65.729  1.00  0.00    -0.038 C  
HETATM    7  O   UNL     1      -5.314   5.814  65.973  1.00  0.00    -0.009 OA 
HETATM    8  C   UNL     1      -6.956   7.520  66.778  1.00  0.00    -0.078 C  
HETATM    9  C   UNL     1      -8.002   8.827  65.089  1.00  0.00    -0.125 C  
HETATM   10  N   UNL     1      -8.310   8.159  66.306  1.00  0.00    -0.113 N  
HETATM   11  C   UNL     1      -8.912   9.261  66.927  1.00  0.00    -0.130 C  
HETATM   12  H   UNL     1      -9.242  10.261  65.044  1.00  0.00     0.000 HD 
HETATM   13  C   UNL     1      -7.862  10.409  66.922  1.00  0.00    -0.114 C  
HETATM   14  O   UNL     1     -10.067   9.269  67.309  1.00  0.00    -0.198 OA 
HETATM   15  O   UNL     1      -9.094   9.504  64.488  1.00  0.00    -0.230 OA 
HETATM   16  O   UNL     1      -7.111   9.821  65.685  1.00  0.00    -0.096 OA 
HETATM   17  C   UNL     1      -8.530  10.351  69.589  1.00  0.00    -0.068 C  
HETATM   18  C   UNL     1      -6.098  10.653  69.088  1.00  0.00    -0.042 C  
HETATM   19  C   UNL     1      -7.425  10.177  68.493  1.00  0.00    -0.086 C  
ENDROOT
BRANCH   8  20
HETATM   20  C   UNL     1      -6.918   6.783  68.129  1.00  0.00    -0.080 C  
BRANCH  20  21
HETATM   21  C   UNL     1      -8.318   6.254  68.516  1.00  0.00    -0.115 A  
HETATM   22  C   UNL     1     -10.243   6.688  69.919  1.00  0.00    -0.214 A  
HETATM   23  C   UNL     1     -10.548   5.572  67.825  1.00  0.00    -0.229 A  
HETATM   24  C   UNL     1      -9.173   5.580  67.613  1.00  0.00    -0.112 A  
HETATM   25  C   UNL     1     -11.095   6.160  68.947  1.00  0.00    -0.417 A  
HETATM   26  C   UNL     1      -8.868   6.733  69.710  1.00  0.00    -0.141 A  
ENDBRANCH  20  21
ENDBRANCH   8  20
BRANCH  13  27
HETATM   27  N   UNL     1      -8.358  11.765  66.568  1.00  0.00    -0.315 NA 
HETATM   28  H   UNL     1      -7.781  12.603  66.629  1.00  0.00     0.000 HD 
BRANCH  27  29
HETATM   29  C   UNL     1      -9.589  11.782  66.175  1.00  0.00    -0.232 C  
HETATM   30  H   UNL     1     -10.796  11.766  64.575  1.00  0.00     0.000 HD 
HETATM   31  O   UNL     1      -9.892  11.754  64.865  1.00  0.00    -0.249 OA 
BRANCH  29  32
HETATM   32  C   UNL     1     -10.866  11.873  67.012  1.00  0.00    -0.303 C  
HETATM   33  C   UNL     1     -10.696  12.334  68.458  1.00  0.00    -0.237 C  
HETATM   34  N   UNL     1     -12.021  12.633  69.035  1.00  0.00    -0.273 NA 
HETATM   35  C   UNL     1     -12.738  13.796  68.412  1.00  0.00     0.993 C  
HETATM   36  C   UNL     1     -12.029  12.600  70.486  1.00  0.00    -0.192 C  
HETATM   37  C   UNL     1     -12.731  15.147  69.221  1.00  0.00     0.259 C  
HETATM   38  C   UNL     1     -11.349  15.681  69.190  1.00  0.00    -0.341 A  
HETATM   39  C   UNL     1     -10.463  16.087  70.157  1.00  0.00    -0.194 A  
HETATM   40  N   UNL     1      -9.223  16.193  69.556  1.00  0.00    -0.155 NA 
HETATM   41  C   UNL     1      -9.310  15.888  68.211  1.00  0.00    -0.194 A  
HETATM   42  H   UNL     1      -8.364  16.459  70.038  1.00  0.00     0.000 HD 
HETATM   43  C   UNL     1      -8.347  15.718  67.217  1.00  0.00    -0.213 A  
HETATM   44  C   UNL     1      -8.802  15.293  65.955  1.00  0.00    -0.029 A  
HETATM   45  C   UNL     1     -10.135  14.922  65.735  1.00  0.00    -0.367 A  
HETATM   46  C   UNL     1     -11.038  14.921  66.803  1.00  0.00    -0.335 A  
HETATM   47  C   UNL     1     -12.280  14.035  66.898  1.00  0.00    -0.415 C  
HETATM   48  C   UNL     1     -10.632  15.573  67.980  1.00  0.00    -0.270 A  
HETATM   49  C   UNL     1     -12.035  12.630  66.305  1.00  0.00    -0.439 C  
ENDBRANCH  29  32
ENDBRANCH  27  29
ENDBRANCH  13  27
TORSDOF 5
ENDMDL
MODEL      123
REMARK 921   NORMALIZED FREE ENERGY PREDICTED BY IDOCK:   -3.06 KCAL/MOL
REMARK 922        TOTAL FREE ENERGY PREDICTED BY IDOCK:   -5.79 KCAL/MOL
REMARK 923 INTER-LIGAND FREE ENERGY PREDICTED BY IDOCK:   -6.29 KCAL/MOL
REMARK 924 INTRA-LIGAND FREE ENERGY PREDICTED BY IDOCK:    0.49 KCAL/MOL
REMARK 927      BINDING AFFINITY PREDICTED BY RF-SCORE:    0.00 PKD
ROOT
HETATM    1  C   UNL     1      -6.893  13.832  69.788  1.00  0.00     0.100 C  
HETATM    2  C   UNL     1      -5.797  13.077  70.531  1.00  0.00    -0.144 C  
HETATM    3  C   UNL     1      -5.126  14.193  71.382  1.00  0.00    -0.147 C  
HETATM    4  C   UNL     1      -5.617  15.516  70.810  1.00  0.00    -0.054 C  
HETATM    5  N   UNL     1      -6.377  15.151  69.638  1.00  0.00    -0.135 N  
HETATM    6  C   UNL     1      -7.219  16.116  69.148  1.00  0.00    -0.212 C  
HETATM    7  O   UNL     1      -6.830  17.279  69.133  1.00  0.00    -0.233 OA 
HETATM    8  C   UNL     1      -8.579  15.591  68.550  1.00  0.00    -0.176 C  
HETATM    9  C   UNL     1      -7.910  13.314  68.695  1.00  0.00    -0.063 C  
HETATM   10  N   UNL     1      -9.018  14.152  68.999  1.00  0.00     0.028 N  
HETATM   11  C   UNL     1      -9.972  13.379  68.325  1.00  0.00    -0.240 C  
HETATM   12  H   UNL     1      -8.710  11.631  68.347  1.00  0.00     0.000 HD 
HETATM   13  C   UNL     1      -9.487  13.248  66.853  1.00  0.00    -0.249 C  
HETATM   14  O   UNL     1     -10.938  12.878  68.871  1.00  0.00    -0.243 OA 
HETATM   15  O   UNL     1      -8.098  11.942  69.004  1.00  0.00     0.005 OA 
HETATM   16  O   UNL     1      -7.992  13.477  67.245  1.00  0.00    -0.164 OA 
HETATM   17  C   UNL     1     -12.045  14.175  66.456  1.00  0.00    -0.481 C  
HETATM   18  C   UNL     1     -10.292  15.168  64.974  1.00  0.00    -0.377 C  
HETATM   19  C   UNL     1     -10.506  14.411  66.287  1.00  0.00    -0.292 C  
ENDROOT
BRANCH   8  20
HETATM   20  C   UNL     1      -9.596  16.741  68.664  1.00  0.00    -0.255 C  
BRANCH  20  21
HETATM   21  C   UNL     1      -9.541  17.661  67.422  1.00  0.00    -0.267 A  
HETATM   22  C   UNL     1     -10.425  19.707  66.476  1.00  0.00    -0.612 A  
HETATM   23  C   UNL     1      -8.218  18.999  65.882  1.00  0.00    -0.011 A  
HETATM   24  C   UNL     1      -8.379  17.843  66.638  1.00  0.00    -0.286 A  
HETATM   25  C   UNL     1      -9.212  19.955  65.830  1.00  0.00    -0.224 A  
HETATM   26  C   UNL     1     -10.592  18.570  67.263  1.00  0.00    -0.453 A  
ENDBRANCH  20  21
ENDBRANCH   8  20
BRANCH  13  27
HETATM   27  N   UNL     1      -9.606  11.904  66.229  1.00  0.00    -0.224 NA 
HETATM   28  H   UNL     1     -10.489  11.400  66.155  1.00  0.00     0.000 HD 
BRANCH  27  29
HETATM   29  C   UNL     1      -8.486  11.435  65.788  1.00  0.00     0.051 C  
HETATM   30  H   UNL     1      -6.614  10.924  66.290  1.00  0.00     0.000 HD 
HETATM   31  O   UNL     1      -7.438  11.269  66.614  1.00  0.00    -0.142 OA 
BRANCH  29  32
HETATM   32  C   UNL     1      -8.105  11.036  64.361  1.00  0.00     0.412 C  
HETATM   33  C   UNL     1      -6.725  10.407  64.180  1.00  0.00     0.006 C  
HETATM   34  N   UNL     1      -6.623   9.833  62.824  1.00  0.00    -0.104 NA 
HETATM   35  C   UNL     1      -7.539   8.673  62.554  1.00  0.00    -0.112 C  
HETATM   36  C   UNL     1      -5.251   9.661  62.382  1.00  0.00    -0.083 C  
HETATM   37  C   UNL     1      -6.889   7.239  62.574  1.00  0.00    -0.068 C  
HETATM   38  C   UNL     1      -6.528   6.931  63.979  1.00  0.00    -0.039 A  
HETATM   39  C   UNL     1      -5.371   6.532  64.600  1.00  0.00    -0.025 A  
HETATM   40  N   UNL     1      -5.557   6.700  65.958  1.00  0.00    -0.021 NA 
HETATM   41  C   UNL     1      -6.829   7.174  66.217  1.00  0.00    -0.057 A  
HETATM   42  H   UNL     1      -4.854   6.502  66.671  1.00  0.00     0.000 HD 
HETATM   43  C   UNL     1      -7.451   7.625  67.381  1.00  0.00    -0.100 A  
HETATM   44  C   UNL     1      -8.750   8.150  67.247  1.00  0.00    -0.125 A  
HETATM   45  C   UNL     1      -9.346   8.341  65.994  1.00  0.00    -0.217 A  
HETATM   46  C   UNL     1      -8.621   8.056  64.832  1.00  0.00     0.000 A  
HETATM   47  C   UNL     1      -8.846   8.721  63.474  1.00  0.00     0.153 C  
HETATM   48  C   UNL     1      -7.437   7.315  64.987  1.00  0.00    -0.089 A  
HETATM   49  C   UNL     1      -9.208  10.217  63.616  1.00  0.00    -0.320 C  
ENDBRANCH  29  32
ENDBRANCH  27  29
ENDBRANCH  13  27
TORSDOF 5
ENDMDL
MODEL      124
REMARK 921   NORMALIZED FREE ENERGY PREDICTED BY IDOCK:   -3.04 KCAL/MOL
REMARK 922        TOTAL FREE ENERGY PREDICTED BY IDOCK:   -5.77 KCAL/MOL
REMARK 923 INTER-LIGAND FREE ENERGY PREDICTED BY IDOCK:   -6.24 KCAL/MOL
REMARK 924 INTRA-LIGAND FREE ENERGY PREDICTED BY IDOCK:    0.47 KCAL/MOL
REMARK 927      BINDING AFFINITY PREDICTED BY RF-SCORE:    0.00 PKD
ROOT
HETATM    1  C   UNL     1     -11.376   8.301  69.900  1.00  0.00     0.069 C  
HETATM    2  C   UNL     1     -11.370   6.908  70.519  1.00  0.00    -0.374 C  
HETATM    3  C   UNL     1     -12.536   6.982  71.546  1.00  0.00    -0.426 C  
HETATM    4  C   UNL     1     -12.870   8.459  71.705  1.00  0.00    -0.345 C  
HETATM    5  N   UNL     1     -11.858   9.149  70.939  1.00  0.00    -0.286 N  
HETATM    6  C   UNL     1     -12.136  10.454  70.623  1.00  0.00    -0.348 C  
HETATM    7  O   UNL     1     -12.670  11.161  71.471  1.00  0.00    -0.403 OA 
HETATM    8  C   UNL     1     -11.627  10.934  69.210  1.00  0.00    -0.318 C  
HETATM    9  C   UNL     1     -10.398   8.934  68.832  1.00  0.00    -0.212 C  
HETATM   10  N   UNL     1     -11.313   9.799  68.171  1.00  0.00    -0.007 N  
HETATM   11  C   UNL     1     -10.531   9.985  67.024  1.00  0.00    -0.238 C  
HETATM   12  H   UNL     1      -9.368   8.211  67.414  1.00  0.00     0.000 HD 
HETATM   13  C   UNL     1      -9.156  10.534  67.500  1.00  0.00    -0.138 C  
HETATM   14  O   UNL     1     -10.899   9.683  65.904  1.00  0.00     0.266 OA 
HETATM   15  O   UNL     1      -9.956   7.831  68.057  1.00  0.00    -0.161 OA 
HETATM   16  O   UNL     1      -9.310   9.904  68.921  1.00  0.00    -0.156 OA 
HETATM   17  C   UNL     1      -9.823  12.421  65.614  1.00  0.00    -0.235 C  
HETATM   18  C   UNL     1      -8.795  13.308  67.714  1.00  0.00    -0.197 C  
HETATM   19  C   UNL     1      -9.511  12.096  67.114  1.00  0.00    -0.190 C  
ENDROOT
BRANCH   8  20
HETATM   20  C   UNL     1     -12.534  12.100  68.776  1.00  0.00     0.548 C  
BRANCH  20  21
HETATM   21  C   UNL     1     -11.993  13.452  69.295  1.00  0.00    -0.367 A  
HETATM   22  C   UNL     1     -12.047  15.842  68.919  1.00  0.00    -0.065 A  
HETATM   23  C   UNL     1     -11.720  15.014  71.139  1.00  0.00    -0.385 A  
HETATM   24  C   UNL     1     -11.715  13.709  70.658  1.00  0.00    -0.104 A  
HETATM   25  C   UNL     1     -11.929  16.081  70.289  1.00  0.00    -0.226 A  
HETATM   26  C   UNL     1     -12.076  14.542  68.423  1.00  0.00    -0.249 A  
ENDBRANCH  20  21
ENDBRANCH   8  20
BRANCH  13  27
HETATM   27  N   UNL     1      -7.947   9.954  66.859  1.00  0.00    -0.109 NA 
HETATM   28  H   UNL     1      -7.759  10.022  65.859  1.00  0.00     0.000 HD 
BRANCH  27  29
HETATM   29  C   UNL     1      -7.156   9.356  67.687  1.00  0.00    -0.082 C  
HETATM   30  H   UNL     1      -5.992   9.594  69.301  1.00  0.00     0.000 HD 
HETATM   31  O   UNL     1      -6.573  10.033  68.692  1.00  0.00    -0.049 OA 
BRANCH  29  32
HETATM   32  C   UNL     1      -6.703   7.894  67.701  1.00  0.00    -0.068 C  
HETATM   33  C   UNL     1      -7.644   6.888  67.042  1.00  0.00    -0.102 C  
HETATM   34  N   UNL     1      -6.949   5.594  66.892  1.00  0.00    -0.064 NA 
HETATM   35  C   UNL     1      -5.783   5.606  65.946  1.00  0.00    -0.014 C  
HETATM   36  C   UNL     1      -7.861   4.474  66.746  1.00  0.00    -0.098 C  
HETATM   37  C   UNL     1      -6.021   4.977  64.522  1.00  0.00    -0.021 C  
HETATM   38  C   UNL     1      -6.933   5.880  63.780  1.00  0.00    -0.046 A  
HETATM   39  C   UNL     1      -8.123   5.700  63.120  1.00  0.00    -0.101 A  
HETATM   40  N   UNL     1      -8.657   6.954  62.891  1.00  0.00    -0.325 NA 
HETATM   41  C   UNL     1      -7.809   7.935  63.369  1.00  0.00    -0.139 A  
HETATM   42  H   UNL     1      -9.550   7.131  62.432  1.00  0.00     0.000 HD 
HETATM   43  C   UNL     1      -7.944   9.317  63.504  1.00  0.00    -0.144 A  
HETATM   44  C   UNL     1      -6.897   9.999  64.150  1.00  0.00    -0.126 A  
HETATM   45  C   UNL     1      -5.832   9.319  64.755  1.00  0.00    -0.064 A  
HETATM   46  C   UNL     1      -5.824   7.920  64.769  1.00  0.00    -0.045 A  
HETATM   47  C   UNL     1      -5.129   7.061  65.826  1.00  0.00    -0.023 C  
HETATM   48  C   UNL     1      -6.735   7.270  63.920  1.00  0.00    -0.048 A  
HETATM   49  C   UNL     1      -5.226   7.685  67.235  1.00  0.00    -0.026 C  
ENDBRANCH  29  32
ENDBRANCH  27  29
ENDBRANCH  13  27
TORSDOF 5
ENDMDL
MODEL      125
REMARK 921   NORMALIZED FREE ENERGY PREDICTED BY IDOCK:   -2.95 KCAL/MOL
REMARK 922        TOTAL FREE ENERGY PREDICTED BY IDOCK:   -5.66 KCAL/MOL
REMARK 923 INTER-LIGAND FREE ENERGY PREDICTED BY IDOCK:   -4.05 KCAL/MOL
REMARK 924 INTRA-LIGAND FREE ENERGY PREDICTED BY IDOCK:   -1.61 KCAL/MOL
REMARK 927      BINDING AFFINITY PREDICTED BY RF-SCORE:    0.00 PKD
ROOT
HETATM    1  C   UNL     1      -9.354   4.063  65.194  1.00  0.00    -0.163 C  
HETATM    2  C   UNL     1     -10.377   3.358  64.311  1.00  0.00    -0.153 C  
HETATM    3  C   UNL     1      -9.786   1.926  64.173  1.00  0.00    -0.113 C  
HETATM    4  C   UNL     1      -8.343   2.014  64.652  1.00  0.00    -0.084 C  
HETATM    5  N   UNL     1      -8.119   3.421  64.888  1.00  0.00    -0.089 N  
HETATM    6  C   UNL     1      -7.029   3.731  65.660  1.00  0.00    -0.061 C  
HETATM    7  O   UNL     1      -5.994   3.096  65.492  1.00  0.00    -0.018 OA 
HETATM    8  C   UNL     1      -7.206   4.968  66.621  1.00  0.00    -0.081 C  
HETATM    9  C   UNL     1      -9.301   5.569  65.670  1.00  0.00    -0.047 C  
HETATM   10  N   UNL     1      -8.686   5.385  66.938  1.00  0.00    -0.112 N  
HETATM   11  C   UNL     1      -9.052   6.634  67.457  1.00  0.00    -0.116 C  
HETATM   12  H   UNL     1     -10.626   6.882  66.004  1.00  0.00     0.000 HD 
HETATM   13  C   UNL     1      -8.495   7.708  66.479  1.00  0.00    -0.133 C  
HETATM   14  O   UNL     1      -9.738   6.773  68.452  1.00  0.00    -0.128 OA 
HETATM   15  O   UNL     1     -10.658   5.976  65.718  1.00  0.00     0.422 OA 
HETATM   16  O   UNL     1      -8.487   6.716  65.273  1.00  0.00    -0.139 OA 
HETATM   17  C   UNL     1      -7.465   8.617  68.861  1.00  0.00    -0.090 C  
HETATM   18  C   UNL     1      -5.918   8.730  66.900  1.00  0.00    -0.057 C  
HETATM   19  C   UNL     1      -7.192   8.063  67.422  1.00  0.00    -0.088 C  
ENDROOT
BRANCH   8  20
HETATM   20  C   UNL     1      -6.228   4.771  67.794  1.00  0.00    -0.035 C  
BRANCH  20  21
HETATM   21  C   UNL     1      -6.985   4.489  69.112  1.00  0.00    -0.051 A  
HETATM   22  C   UNL     1      -7.758   5.507  71.168  1.00  0.00    -0.104 A  
HETATM   23  C   UNL     1      -8.991   3.685  70.227  1.00  0.00    -0.170 A  
HETATM   24  C   UNL     1      -8.042   3.555  69.219  1.00  0.00    -0.064 A  
HETATM   25  C   UNL     1      -8.883   4.681  71.177  1.00  0.00    -0.149 A  
HETATM   26  C   UNL     1      -6.814   5.412  70.149  1.00  0.00    -0.049 A  
ENDBRANCH  20  21
ENDBRANCH   8  20
BRANCH  13  27
HETATM   27  N   UNL     1      -9.399   8.841  66.148  1.00  0.00    -0.217 NA 
HETATM   28  H   UNL     1     -10.223   9.077  66.700  1.00  0.00     0.000 HD 
BRANCH  27  29
HETATM   29  C   UNL     1      -9.042   9.499  65.094  1.00  0.00    -0.228 C  
HETATM   30  H   UNL     1      -7.508   9.943  63.884  1.00  0.00     0.000 HD 
HETATM   31  O   UNL     1      -7.771   9.460  64.658  1.00  0.00    -0.109 OA 
BRANCH  29  32
HETATM   32  C   UNL     1      -9.880  10.419  64.205  1.00  0.00    -0.379 C  
HETATM   33  C   UNL     1     -11.263  10.794  64.732  1.00  0.00     0.540 C  
HETATM   34  N   UNL     1     -11.819  11.888  63.911  1.00  0.00    -0.418 NA 
HETATM   35  C   UNL     1     -11.079  13.191  64.002  1.00  0.00    -0.361 C  
HETATM   36  C   UNL     1     -13.265  11.983  63.996  1.00  0.00     0.186 C  
HETATM   37  C   UNL     1     -11.733  14.315  64.891  1.00  0.00    -0.399 C  
HETATM   38  C   UNL     1     -11.627  13.885  66.306  1.00  0.00    -0.378 A  
HETATM   39  C   UNL     1     -12.532  13.740  67.328  1.00  0.00     0.018 A  
HETATM   40  N   UNL     1     -11.908  13.016  68.326  1.00  0.00    -0.349 NA 
HETATM   41  C   UNL     1     -10.606  12.721  67.968  1.00  0.00    -0.226 A  
HETATM   42  H   UNL     1     -12.347  12.738  69.204  1.00  0.00     0.000 HD 
HETATM   43  C   UNL     1      -9.625  11.917  68.549  1.00  0.00    -0.160 A  
HETATM   44  C   UNL     1      -8.424  11.760  67.833  1.00  0.00    -0.154 A  
HETATM   45  C   UNL     1      -8.263  12.267  66.537  1.00  0.00     0.110 A  
HETATM   46  C   UNL     1      -9.336  12.905  65.905  1.00  0.00     0.028 A  
HETATM   47  C   UNL     1      -9.543  12.977  64.392  1.00  0.00     0.422 C  
HETATM   48  C   UNL     1     -10.428  13.264  66.713  1.00  0.00    -0.270 A  
HETATM   49  C   UNL     1      -9.106  11.674  63.686  1.00  0.00     0.163 C  
ENDBRANCH  29  32
ENDBRANCH  27  29
ENDBRANCH  13  27
TORSDOF 5
ENDMDL
MODEL      126
REMARK 921   NORMALIZED FREE ENERGY PREDICTED BY IDOCK:   -2.93 KCAL/MOL
REMARK 922        TOTAL FREE ENERGY PREDICTED BY IDOCK:   -5.63 KCAL/MOL
REMARK 923 INTER-LIGAND FREE ENERGY PREDICTED BY IDOCK:   -6.56 KCAL/MOL
REMARK 924 INTRA-LIGAND FREE ENERGY PREDICTED BY IDOCK:    0.93 KCAL/MOL
REMARK 927      BINDING AFFINITY PREDICTED BY RF-SCORE:    0.00 PKD
ROOT
HETATM    1  C   UNL     1      -8.322  11.880  67.965  1.00  0.00    -0.160 C  
HETATM    2  C   UNL     1      -8.574  13.340  68.323  1.00  0.00    -0.169 C  
HETATM    3  C   UNL     1      -7.323  14.059  67.741  1.00  0.00    -0.176 C  
HETATM    4  C   UNL     1      -6.309  12.965  67.436  1.00  0.00    -0.113 C  
HETATM    5  N   UNL     1      -6.902  11.756  67.957  1.00  0.00    -0.069 N  
HETATM    6  C   UNL     1      -6.365  10.581  67.498  1.00  0.00    -0.057 C  
HETATM    7  O   UNL     1      -5.149  10.507  67.365  1.00  0.00    -0.037 OA 
HETATM    8  C   UNL     1      -7.390   9.401  67.290  1.00  0.00    -0.087 C  
HETATM    9  C   UNL     1      -9.168  10.594  68.323  1.00  0.00    -0.153 C  
HETATM   10  N   UNL     1      -8.899   9.815  67.165  1.00  0.00    -0.132 N  
HETATM   11  C   UNL     1      -9.969   8.928  67.336  1.00  0.00    -0.209 C  
HETATM   12  H   UNL     1     -11.012  10.290  68.644  1.00  0.00     0.000 HD 
HETATM   13  C   UNL     1      -9.806   8.293  68.748  1.00  0.00    -0.173 C  
HETATM   14  O   UNL     1     -10.861   8.785  66.521  1.00  0.00     0.010 OA 
HETATM   15  O   UNL     1     -10.503  11.063  68.429  1.00  0.00    -0.165 OA 
HETATM   16  O   UNL     1      -8.982   9.507  69.283  1.00  0.00    -0.144 OA 
HETATM   17  C   UNL     1     -10.040   6.029  67.204  1.00  0.00    -0.210 C  
HETATM   18  C   UNL     1      -8.320   5.930  69.017  1.00  0.00    -0.106 C  
HETATM   19  C   UNL     1      -9.162   6.891  68.174  1.00  0.00    -0.126 C  
ENDROOT
BRANCH   8  20
HETATM   20  C   UNL     1      -6.790   8.465  66.224  1.00  0.00    -0.073 C  
BRANCH  20  21
HETATM   21  C   UNL     1      -7.235   8.880  64.803  1.00  0.00    -0.092 A  
HETATM   22  C   UNL     1      -8.256   8.059  62.768  1.00  0.00    -0.112 A  
HETATM   23  C   UNL     1      -8.548  10.352  63.382  1.00  0.00    -0.189 A  
HETATM   24  C   UNL     1      -7.719  10.170  64.484  1.00  0.00    -0.138 A  
HETATM   25  C   UNL     1      -8.858   9.299  62.546  1.00  0.00    -0.226 A  
HETATM   26  C   UNL     1      -7.449   7.849  63.883  1.00  0.00    -0.110 A  
ENDBRANCH  20  21
ENDBRANCH   8  20
BRANCH  13  27
HETATM   27  N   UNL     1     -11.039   8.166  69.569  1.00  0.00    -0.439 NA 
HETATM   28  H   UNL     1     -11.977   8.181  69.171  1.00  0.00     0.000 HD 
BRANCH  27  29
HETATM   29  C   UNL     1     -10.810   8.035  70.833  1.00  0.00    -0.230 C  
HETATM   30  H   UNL     1     -10.041   8.923  72.458  1.00  0.00     0.000 HD 
HETATM   31  O   UNL     1     -10.210   9.019  71.528  1.00  0.00    -0.298 OA 
BRANCH  29  32
HETATM   32  C   UNL     1     -11.095   6.840  71.745  1.00  0.00    -0.275 C  
HETATM   33  C   UNL     1     -10.328   5.556  71.436  1.00  0.00    -0.229 C  
HETATM   34  N   UNL     1     -10.500   4.604  72.551  1.00  0.00    -0.198 NA 
HETATM   35  C   UNL     1      -9.889   5.034  73.854  1.00  0.00    -0.156 C  
HETATM   36  C   UNL     1     -10.246   3.228  72.167  1.00  0.00    -0.073 C  
HETATM   37  C   UNL     1      -8.527   4.354  74.255  1.00  0.00    -0.097 C  
HETATM   38  C   UNL     1      -7.484   4.857  73.329  1.00  0.00    -0.088 A  
HETATM   39  C   UNL     1      -6.564   4.252  72.510  1.00  0.00    -0.037 A  
HETATM   40  N   UNL     1      -6.073   5.223  71.659  1.00  0.00    -0.028 NA 
HETATM   41  C   UNL     1      -6.646   6.448  71.942  1.00  0.00    -0.058 A  
HETATM   42  H   UNL     1      -5.384   5.059  70.924  1.00  0.00     0.000 HD 
HETATM   43  C   UNL     1      -6.593   7.687  71.302  1.00  0.00    -0.041 A  
HETATM   44  C   UNL     1      -7.409   8.708  71.822  1.00  0.00    -0.108 A  
HETATM   45  C   UNL     1      -8.336   8.466  72.845  1.00  0.00    -0.205 A  
HETATM   46  C   UNL     1      -8.501   7.168  73.336  1.00  0.00    -0.157 A  
HETATM   47  C   UNL     1      -9.786   6.627  73.965  1.00  0.00    -0.287 C  
HETATM   48  C   UNL     1      -7.521   6.224  72.983  1.00  0.00    -0.096 A  
HETATM   49  C   UNL     1     -11.048   7.181  73.269  1.00  0.00    -0.252 C  
ENDBRANCH  29  32
ENDBRANCH  27  29
ENDBRANCH  13  27
TORSDOF 5
ENDMDL
MODEL      127
REMARK 921   NORMALIZED FREE ENERGY PREDICTED BY IDOCK:   -2.89 KCAL/MOL
REMARK 922        TOTAL FREE ENERGY PREDICTED BY IDOCK:   -5.58 KCAL/MOL
REMARK 923 INTER-LIGAND FREE ENERGY PREDICTED BY IDOCK:   -6.34 KCAL/MOL
REMARK 924 INTRA-LIGAND FREE ENERGY PREDICTED BY IDOCK:    0.76 KCAL/MOL
REMARK 927      BINDING AFFINITY PREDICTED BY RF-SCORE:    0.00 PKD
ROOT
HETATM    1  C   UNL     1      -6.544   9.664  65.559  1.00  0.00    -0.080 C  
HETATM    2  C   UNL     1      -5.136   9.581  64.982  1.00  0.00    -0.044 C  
HETATM    3  C   UNL     1      -5.324  10.122  63.535  1.00  0.00    -0.119 C  
HETATM    4  C   UNL     1      -6.824  10.123  63.274  1.00  0.00    -0.128 C  
HETATM    5  N   UNL     1      -7.401   9.485  64.434  1.00  0.00    -0.110 N  
HETATM    6  C   UNL     1      -8.746   9.680  64.617  1.00  0.00    -0.201 C  
HETATM    7  O   UNL     1      -9.478   9.655  63.634  1.00  0.00    -0.137 OA 
HETATM    8  C   UNL     1      -9.216   9.811  66.116  1.00  0.00    -0.176 C  
HETATM    9  C   UNL     1      -7.083   9.203  66.972  1.00  0.00    -0.086 C  
HETATM   10  N   UNL     1      -8.100  10.179  67.157  1.00  0.00    -0.120 N  
HETATM   11  C   UNL     1      -8.229   9.992  68.539  1.00  0.00    -0.108 C  
HETATM   12  H   UNL     1      -6.291   9.056  68.688  1.00  0.00     0.000 HD 
HETATM   13  C   UNL     1      -8.554   8.487  68.761  1.00  0.00    -0.131 C  
HETATM   14  O   UNL     1      -8.037  10.872  69.357  1.00  0.00    -0.103 OA 
HETATM   15  O   UNL     1      -5.968   9.333  67.839  1.00  0.00    -0.048 OA 
HETATM   16  O   UNL     1      -7.884   8.064  67.415  1.00  0.00    -0.113 OA 
HETATM   17  C   UNL     1     -10.605   9.657  70.171  1.00  0.00    -0.320 C  
HETATM   18  C   UNL     1     -11.235   7.663  68.800  1.00  0.00     0.352 C  
HETATM   19  C   UNL     1     -10.167   8.745  68.976  1.00  0.00    -0.218 C  
ENDROOT
BRANCH   8  20
HETATM   20  C   UNL     1     -10.519  10.632  66.109  1.00  0.00    -0.260 C  
BRANCH  20  21
HETATM   21  C   UNL     1     -10.222  12.149  66.094  1.00  0.00    -0.254 A  
HETATM   22  C   UNL     1     -10.554  14.183  64.824  1.00  0.00    -0.439 A  
HETATM   23  C   UNL     1     -10.364  14.308  67.205  1.00  0.00    -0.262 A  
HETATM   24  C   UNL     1     -10.132  12.937  67.264  1.00  0.00    -0.231 A  
HETATM   25  C   UNL     1     -10.620  14.931  66.000  1.00  0.00    -0.321 A  
HETATM   26  C   UNL     1     -10.354  12.806  64.866  1.00  0.00    -0.330 A  
ENDBRANCH  20  21
ENDBRANCH   8  20
BRANCH  13  27
HETATM   27  N   UNL     1      -7.840   7.807  69.874  1.00  0.00    -0.103 NA 
HETATM   28  H   UNL     1      -7.233   7.000  69.735  1.00  0.00     0.000 HD 
BRANCH  27  29
HETATM   29  C   UNL     1      -8.061   8.334  71.032  1.00  0.00    -0.110 C  
HETATM   30  H   UNL     1      -7.681   9.907  72.215  1.00  0.00     0.000 HD 
HETATM   31  O   UNL     1      -7.518   9.519  71.363  1.00  0.00    -0.326 OA 
BRANCH  29  32
HETATM   32  C   UNL     1      -8.874   7.779  72.203  1.00  0.00    -0.176 C  
HETATM   33  C   UNL     1      -9.845   6.646  71.876  1.00  0.00    -0.166 C  
HETATM   34  N   UNL     1     -10.335   6.044  73.132  1.00  0.00    -0.200 NA 
HETATM   35  C   UNL     1      -9.290   5.341  73.950  1.00  0.00    -0.129 C  
HETATM   36  C   UNL     1     -11.586   5.327  72.967  1.00  0.00    -0.217 C  
HETATM   37  C   UNL     1      -9.281   3.767  73.885  1.00  0.00    -0.096 C  
HETATM   38  C   UNL     1      -8.821   3.378  72.531  1.00  0.00    -0.104 A  
HETATM   39  C   UNL     1      -9.332   2.566  71.548  1.00  0.00    -0.124 A  
HETATM   40  N   UNL     1      -8.623   2.830  70.392  1.00  0.00    -0.060 NA 
HETATM   41  C   UNL     1      -7.647   3.779  70.628  1.00  0.00    -0.041 A  
HETATM   42  H   UNL     1      -8.796   2.386  69.489  1.00  0.00     0.000 HD 
HETATM   43  C   UNL     1      -6.778   4.471  69.785  1.00  0.00    -0.037 A  
HETATM   44  C   UNL     1      -5.978   5.468  70.374  1.00  0.00    -0.025 A  
HETATM   45  C   UNL     1      -6.136   5.848  71.713  1.00  0.00    -0.036 A  
HETATM   46  C   UNL     1      -7.148   5.267  72.483  1.00  0.00    -0.087 A  
HETATM   47  C   UNL     1      -7.828   5.931  73.681  1.00  0.00    -0.104 C  
HETATM   48  C   UNL     1      -7.766   4.119  71.959  1.00  0.00    -0.076 A  
HETATM   49  C   UNL     1      -8.018   7.450  73.469  1.00  0.00    -0.142 C  
ENDBRANCH  29  32
ENDBRANCH  27  29
ENDBRANCH  13  27
TORSDOF 5
ENDMDL
MODEL      128
REMARK 921   NORMALIZED FREE ENERGY PREDICTED BY IDOCK:   -2.86 KCAL/MOL
REMARK 922        TOTAL FREE ENERGY PREDICTED BY IDOCK:   -5.53 KCAL/MOL
REMARK 923 INTER-LIGAND FREE ENERGY PREDICTED BY IDOCK:   -5.84 KCAL/MOL
REMARK 924 INTRA-LIGAND FREE ENERGY PREDICTED BY IDOCK:    0.30 KCAL/MOL
REMARK 927      BINDING AFFINITY PREDICTED BY RF-SCORE:    0.00 PKD
ROOT
HETATM    1  C   UNL     1     -12.020  14.225  70.673  1.00  0.00    -0.322 C  
HETATM    2  C   UNL     1     -12.985  15.153  71.402  1.00  0.00    -0.476 C  
HETATM    3  C   UNL     1     -13.790  14.174  72.305  1.00  0.00    -0.643 C  
HETATM    4  C   UNL     1     -13.500  12.775  71.777  1.00  0.00    -0.252 C  
HETATM    5  N   UNL     1     -12.720  12.987  70.581  1.00  0.00    -0.163 N  
HETATM    6  C   UNL     1     -12.031  11.896  70.117  1.00  0.00    -0.332 C  
HETATM    7  O   UNL     1     -12.579  10.800  70.152  1.00  0.00    -0.327 OA 
HETATM    8  C   UNL     1     -10.622  12.202  69.479  1.00  0.00     0.335 C  
HETATM    9  C   UNL     1     -10.962  14.555  69.546  1.00  0.00    -0.224 C  
HETATM   10  N   UNL     1      -9.978  13.581  69.867  1.00  0.00     1.353 N  
HETATM   11  C   UNL     1      -8.937  14.186  69.151  1.00  0.00     0.234 C  
HETATM   12  H   UNL     1      -9.941  16.095  69.123  1.00  0.00     0.000 HD 
HETATM   13  C   UNL     1      -9.428  14.332  67.682  1.00  0.00    -0.211 C  
HETATM   14  O   UNL     1      -7.901  14.565  69.663  1.00  0.00     0.014 OA 
HETATM   15  O   UNL     1     -10.578  15.897  69.800  1.00  0.00    -0.274 OA 
HETATM   16  O   UNL     1     -10.932  14.329  68.103  1.00  0.00    -0.237 OA 
HETATM   17  C   UNL     1      -7.033  13.040  67.284  1.00  0.00    -0.047 C  
HETATM   18  C   UNL     1      -8.936  12.251  65.867  1.00  0.00     0.135 C  
HETATM   19  C   UNL     1      -8.593  13.017  67.147  1.00  0.00    -0.195 C  
ENDROOT
BRANCH   8  20
HETATM   20  C   UNL     1      -9.774  10.925  69.623  1.00  0.00     0.206 C  
BRANCH  20  21
HETATM   21  C   UNL     1      -9.721  10.138  68.294  1.00  0.00    -0.154 A  
HETATM   22  C   UNL     1      -8.406   8.549  67.026  1.00  0.00    -0.110 A  
HETATM   23  C   UNL     1     -10.782   8.586  66.752  1.00  0.00    -0.081 A  
HETATM   24  C   UNL     1     -10.872   9.670  67.619  1.00  0.00    -0.276 A  
HETATM   25  C   UNL     1      -9.566   7.991  66.484  1.00  0.00    -0.295 A  
HETATM   26  C   UNL     1      -8.479   9.613  67.920  1.00  0.00    -0.122 A  
ENDBRANCH  20  21
ENDBRANCH   8  20
BRANCH  13  27
HETATM   27  N   UNL     1      -9.134  15.622  67.004  1.00  0.00    -0.208 NA 
HETATM   28  H   UNL     1      -8.187  15.956  66.830  1.00  0.00     0.000 HD 
BRANCH  27  29
HETATM   29  C   UNL     1     -10.190  16.279  66.657  1.00  0.00    -0.284 C  
HETATM   30  H   UNL     1     -11.909  16.190  65.631  1.00  0.00     0.000 HD 
HETATM   31  O   UNL     1     -11.132  15.707  65.886  1.00  0.00    -0.272 OA 
BRANCH  29  32
HETATM   32  C   UNL     1     -10.568  17.729  66.968  1.00  0.00    -0.266 C  
HETATM   33  C   UNL     1     -10.115  18.270  68.322  1.00  0.00    -0.386 C  
HETATM   34  N   UNL     1     -10.307  19.733  68.353  1.00  0.00    -0.443 NA 
HETATM   35  C   UNL     1      -9.445  20.507  67.396  1.00  0.00    -0.411 C  
HETATM   36  C   UNL     1     -10.380  20.269  69.700  1.00  0.00     0.327 C  
HETATM   37  C   UNL     1      -8.197  21.247  68.008  1.00  0.00     0.740 C  
HETATM   38  C   UNL     1      -7.219  20.211  68.419  1.00  0.00    -0.259 A  
HETATM   39  C   UNL     1      -6.559  19.935  69.591  1.00  0.00    -0.338 A  
HETATM   40  N   UNL     1      -6.016  18.670  69.465  1.00  0.00    -0.248 NA 
HETATM   41  C   UNL     1      -6.296  18.146  68.218  1.00  0.00    -0.193 A  
HETATM   42  H   UNL     1      -5.484  18.191  70.192  1.00  0.00     0.000 HD 
HETATM   43  C   UNL     1      -6.097  16.884  67.657  1.00  0.00    -0.161 A  
HETATM   44  C   UNL     1      -6.619  16.670  66.368  1.00  0.00     0.125 A  
HETATM   45  C   UNL     1      -7.419  17.624  65.726  1.00  0.00    -0.043 A  
HETATM   46  C   UNL     1      -7.760  18.804  66.394  1.00  0.00    -0.289 A  
HETATM   47  C   UNL     1      -9.022  19.626  66.130  1.00  0.00    -0.375 C  
HETATM   48  C   UNL     1      -7.041  19.104  67.564  1.00  0.00    -0.229 A  
HETATM   49  C   UNL     1     -10.241  18.730  65.814  1.00  0.00    -0.159 C  
ENDBRANCH  29  32
ENDBRANCH  27  29
ENDBRANCH  13  27
TORSDOF 5
ENDMDL
MODEL      129
REMARK 921   NORMALIZED FREE ENERGY PREDICTED BY IDOCK:   -2.85 KCAL/MOL
REMARK 922        TOTAL FREE ENERGY PREDICTED BY IDOCK:   -5.52 KCAL/MOL
REMARK 923 INTER-LIGAND FREE ENERGY PREDICTED BY IDOCK:   -5.62 KCAL/MOL
REMARK 924 INTRA-LIGAND FREE ENERGY PREDICTED BY IDOCK:    0.10 KCAL/MOL
REMARK 927      BINDING AFFINITY PREDICTED BY RF-SCORE:    0.00 PKD
ROOT
HETATM    1  C   UNL     1      -7.773  11.537  68.209  1.00  0.00    -0.123 C  
HETATM    2  C   UNL     1      -7.580  12.962  68.715  1.00  0.00    -0.025 C  
HETATM    3  C   UNL     1      -6.309  13.430  67.950  1.00  0.00    -0.151 C  
HETATM    4  C   UNL     1      -5.674  12.173  67.372  1.00  0.00    -0.135 C  
HETATM    5  N   UNL     1      -6.455  11.085  67.911  1.00  0.00    -0.061 N  
HETATM    6  C   UNL     1      -6.322   9.880  67.270  1.00  0.00    -0.068 C  
HETATM    7  O   UNL     1      -5.206   9.538  66.894  1.00  0.00    -0.034 OA 
HETATM    8  C   UNL     1      -7.632   9.007  67.185  1.00  0.00    -0.091 C  
HETATM    9  C   UNL     1      -8.842  10.453  68.633  1.00  0.00    -0.142 C  
HETATM   10  N   UNL     1      -8.985   9.776  67.391  1.00  0.00    -0.134 N  
HETATM   11  C   UNL     1     -10.198   9.152  67.706  1.00  0.00    -0.224 C  
HETATM   12  H   UNL     1     -10.617  10.555  69.290  1.00  0.00     0.000 HD 
HETATM   13  C   UNL     1      -9.959   8.333  69.007  1.00  0.00    -0.189 C  
HETATM   14  O   UNL     1     -11.225   9.322  67.075  1.00  0.00     0.186 OA 
HETATM   15  O   UNL     1      -9.974  11.207  69.035  1.00  0.00    -0.199 OA 
HETATM   16  O   UNL     1      -8.773   9.246  69.455  1.00  0.00    -0.130 OA 
HETATM   17  C   UNL     1     -11.024   6.389  67.381  1.00  0.00    -0.463 C  
HETATM   18  C   UNL     1      -9.097   5.672  68.805  1.00  0.00    -0.126 C  
HETATM   19  C   UNL     1      -9.801   6.897  68.217  1.00  0.00    -0.141 C  
ENDROOT
BRANCH   8  20
HETATM   20  C   UNL     1      -7.484   8.091  65.956  1.00  0.00    -0.077 C  
BRANCH  20  21
HETATM   21  C   UNL     1      -7.122   6.648  66.375  1.00  0.00    -0.067 A  
HETATM   22  C   UNL     1      -7.018   4.361  65.587  1.00  0.00    -0.059 A  
HETATM   23  C   UNL     1      -5.483   5.090  67.271  1.00  0.00    -0.013 A  
HETATM   24  C   UNL     1      -6.098   6.338  67.299  1.00  0.00    -0.021 A  
HETATM   25  C   UNL     1      -5.904   4.113  66.391  1.00  0.00    -0.023 A  
HETATM   26  C   UNL     1      -7.625   5.613  65.579  1.00  0.00    -0.083 A  
ENDBRANCH  20  21
ENDBRANCH   8  20
BRANCH  13  27
HETATM   27  N   UNL     1     -11.021   8.403  70.045  1.00  0.00    -0.334 NA 
HETATM   28  H   UNL     1     -12.002   8.574  69.827  1.00  0.00     0.000 HD 
BRANCH  27  29
HETATM   29  C   UNL     1     -10.584   8.226  71.248  1.00  0.00    -0.219 C  
HETATM   30  H   UNL     1      -9.447   8.999  72.706  1.00  0.00     0.000 HD 
HETATM   31  O   UNL     1      -9.768   9.128  71.821  1.00  0.00    -0.283 OA 
BRANCH  29  32
HETATM   32  C   UNL     1     -10.828   7.052  72.198  1.00  0.00    -0.255 C  
HETATM   33  C   UNL     1     -10.323   5.688  71.732  1.00  0.00    -0.215 C  
HETATM   34  N   UNL     1     -10.382   4.735  72.857  1.00  0.00    -0.177 NA 
HETATM   35  C   UNL     1      -9.458   5.043  74.000  1.00  0.00    -0.126 C  
HETATM   36  C   UNL     1     -10.401   3.349  72.426  1.00  0.00    -0.082 C  
HETATM   37  C   UNL     1      -8.145   4.179  74.102  1.00  0.00    -0.091 C  
HETATM   38  C   UNL     1      -7.264   4.569  72.976  1.00  0.00    -0.079 A  
HETATM   39  C   UNL     1      -6.627   3.873  71.979  1.00  0.00    -0.015 A  
HETATM   40  N   UNL     1      -6.201   4.796  71.044  1.00  0.00    -0.018 NA 
HETATM   41  C   UNL     1      -6.531   6.077  71.444  1.00  0.00    -0.049 A  
HETATM   42  H   UNL     1      -5.710   4.565  70.179  1.00  0.00     0.000 HD 
HETATM   43  C   UNL     1      -6.449   7.316  70.808  1.00  0.00    -0.043 A  
HETATM   44  C   UNL     1      -6.993   8.420  71.491  1.00  0.00    -0.075 A  
HETATM   45  C   UNL     1      -7.707   8.271  72.687  1.00  0.00    -0.169 A  
HETATM   46  C   UNL     1      -7.938   6.991  73.202  1.00  0.00    -0.109 A  
HETATM   47  C   UNL     1      -9.121   6.604  74.089  1.00  0.00    -0.203 C  
HETATM   48  C   UNL     1      -7.190   5.939  72.647  1.00  0.00    -0.090 A  
HETATM   49  C   UNL     1     -10.417   7.339  73.678  1.00  0.00    -0.391 C  
ENDBRANCH  29  32
ENDBRANCH  27  29
ENDBRANCH  13  27
TORSDOF 5
ENDMDL
MODEL      130
REMARK 921   NORMALIZED FREE ENERGY PREDICTED BY IDOCK:   -2.61 KCAL/MOL
REMARK 922        TOTAL FREE ENERGY PREDICTED BY IDOCK:   -5.22 KCAL/MOL
REMARK 923 INTER-LIGAND FREE ENERGY PREDICTED BY IDOCK:   -5.51 KCAL/MOL
REMARK 924 INTRA-LIGAND FREE ENERGY PREDICTED BY IDOCK:    0.30 KCAL/MOL
REMARK 927      BINDING AFFINITY PREDICTED BY RF-SCORE:    0.00 PKD
ROOT
HETATM    1  C   UNL     1      -8.986   4.981  66.850  1.00  0.00    -0.112 C  
HETATM    2  C   UNL     1      -9.458   4.732  65.422  1.00  0.00    -0.159 C  
HETATM    3  C   UNL     1      -9.853   3.227  65.447  1.00  0.00     0.071 C  
HETATM    4  C   UNL     1      -9.253   2.652  66.723  1.00  0.00    -0.083 C  
HETATM    5  N   UNL     1      -8.461   3.726  67.274  1.00  0.00    -0.098 N  
HETATM    6  C   UNL     1      -8.109   3.593  68.593  1.00  0.00    -0.069 C  
HETATM    7  O   UNL     1      -7.776   2.485  69.000  1.00  0.00    -0.046 OA 
HETATM    8  C   UNL     1      -8.070   4.931  69.425  1.00  0.00    -0.078 C  
HETATM    9  C   UNL     1      -8.376   6.288  67.496  1.00  0.00    -0.113 C  
HETATM   10  N   UNL     1      -8.871   6.139  68.820  1.00  0.00    -0.121 N  
HETATM   11  C   UNL     1      -8.674   7.474  69.198  1.00  0.00    -0.136 C  
HETATM   12  H   UNL     1      -8.587   8.139  67.148  1.00  0.00     0.000 HD 
HETATM   13  C   UNL     1      -7.168   7.789  68.969  1.00  0.00    -0.080 C  
HETATM   14  O   UNL     1      -9.573   8.209  69.560  1.00  0.00    -0.166 OA 
HETATM   15  O   UNL     1      -8.954   7.353  66.760  1.00  0.00    -0.129 OA 
HETATM   16  O   UNL     1      -7.021   6.674  67.884  1.00  0.00    -0.077 OA 
HETATM   17  C   UNL     1      -7.454   8.585  71.585  1.00  0.00    -0.128 C  
HETATM   18  C   UNL     1      -5.348   7.344  71.055  1.00  0.00    -0.027 C  
HETATM   19  C   UNL     1      -6.768   7.622  70.557  1.00  0.00    -0.042 C  
ENDROOT
BRANCH   8  20
HETATM   20  C   UNL     1      -8.306   4.553  70.899  1.00  0.00    -0.095 C  
BRANCH  20  21
HETATM   21  C   UNL     1      -9.694   5.031  71.382  1.00  0.00    -0.231 A  
HETATM   22  C   UNL     1     -10.806   6.543  72.912  1.00  0.00    -0.288 A  
HETATM   23  C   UNL     1     -11.874   5.968  70.849  1.00  0.00     0.086 A  
HETATM   24  C   UNL     1     -10.831   5.100  70.544  1.00  0.00    -0.004 A  
HETATM   25  C   UNL     1     -11.851   6.724  72.004  1.00  0.00    -0.351 A  
HETATM   26  C   UNL     1      -9.739   5.702  72.609  1.00  0.00    -0.171 A  
ENDBRANCH  20  21
ENDBRANCH   8  20
BRANCH  13  27
HETATM   27  N   UNL     1      -6.849   9.098  68.341  1.00  0.00    -0.063 NA 
HETATM   28  H   UNL     1      -6.091   9.225  67.670  1.00  0.00     0.000 HD 
BRANCH  27  29
HETATM   29  C   UNL     1      -7.621  10.060  68.724  1.00  0.00    -0.083 C  
HETATM   30  H   UNL     1      -7.917  11.461  70.126  1.00  0.00     0.000 HD 
HETATM   31  O   UNL     1      -7.350  10.753  69.844  1.00  0.00    -0.126 OA 
BRANCH  29  32
HETATM   32  C   UNL     1      -8.917  10.565  68.089  1.00  0.00    -0.138 C  
HETATM   33  C   UNL     1      -9.676  11.641  68.864  1.00  0.00    -0.013 C  
HETATM   34  N   UNL     1     -10.731  12.211  68.003  1.00  0.00    -0.206 NA 
HETATM   35  C   UNL     1     -10.234  12.971  66.807  1.00  0.00    -0.246 C  
HETATM   36  C   UNL     1     -11.792  12.856  68.756  1.00  0.00    -0.315 C  
HETATM   37  C   UNL     1     -10.278  14.542  66.899  1.00  0.00    -0.264 C  
HETATM   38  C   UNL     1      -9.253  14.961  67.885  1.00  0.00    -0.183 A  
HETATM   39  C   UNL     1      -9.280  15.745  69.012  1.00  0.00    -0.243 A  
HETATM   40  N   UNL     1      -8.097  15.525  69.691  1.00  0.00    -0.184 NA 
HETATM   41  C   UNL     1      -7.301  14.633  68.998  1.00  0.00    -0.134 A  
HETATM   42  H   UNL     1      -7.845  15.961  70.579  1.00  0.00     0.000 HD 
HETATM   43  C   UNL     1      -6.102  13.993  69.314  1.00  0.00    -0.100 A  
HETATM   44  C   UNL     1      -5.624  13.043  68.392  1.00  0.00    -0.072 A  
HETATM   45  C   UNL     1      -6.376  12.651  67.277  1.00  0.00    -0.099 A  
HETATM   46  C   UNL     1      -7.661  13.171  67.091  1.00  0.00    -0.032 A  
HETATM   47  C   UNL     1      -8.790  12.466  66.339  1.00  0.00    -0.048 C  
HETATM   48  C   UNL     1      -8.016  14.283  67.873  1.00  0.00    -0.156 A  
HETATM   49  C   UNL     1      -8.779  10.940  66.578  1.00  0.00    -0.165 C  
ENDBRANCH  29  32
ENDBRANCH  27  29
ENDBRANCH  13  27
TORSDOF 5
ENDMDL
MODEL      131
REMARK 921   NORMALIZED FREE ENERGY PREDICTED BY IDOCK:   -2.48 KCAL/MOL
REMARK 922        TOTAL FREE ENERGY PREDICTED BY IDOCK:   -5.05 KCAL/MOL
REMARK 923 INTER-LIGAND FREE ENERGY PREDICTED BY IDOCK:   -4.53 KCAL/MOL
REMARK 924 INTRA-LIGAND FREE ENERGY PREDICTED BY IDOCK:   -0.51 KCAL/MOL
REMARK 927      BINDING AFFINITY PREDICTED BY RF-SCORE:    0.00 PKD
ROOT
HETATM    1  C   UNL     1     -10.784  13.317  65.317  1.00  0.00    -0.311 C  
HETATM    2  C   UNL     1     -11.173  13.452  63.849  1.00  0.00    -0.239 C  
HETATM    3  C   UNL     1     -11.858  14.848  63.801  1.00  0.00     0.379 C  
HETATM    4  C   UNL     1     -12.138  15.234  65.247  1.00  0.00     0.205 C  
HETATM    5  N   UNL     1     -11.773  14.069  66.016  1.00  0.00    -0.354 N  
HETATM    6  C   UNL     1     -11.588  14.274  67.360  1.00  0.00    -0.369 C  
HETATM    7  O   UNL     1     -12.361  15.022  67.948  1.00  0.00     0.023 OA 
HETATM    8  C   UNL     1     -10.444  13.420  68.027  1.00  0.00    -0.239 C  
HETATM    9  C   UNL     1     -10.113  12.103  66.075  1.00  0.00    -0.235 C  
HETATM   10  N   UNL     1      -9.370  12.826  67.048  1.00  0.00    -0.222 N  
HETATM   11  C   UNL     1      -8.507  11.773  67.380  1.00  0.00    -0.158 C  
HETATM   12  H   UNL     1      -8.925  10.726  65.541  1.00  0.00     0.000 HD 
HETATM   13  C   UNL     1      -9.402  10.580  67.822  1.00  0.00    -0.149 C  
HETATM   14  O   UNL     1      -7.298  11.830  67.252  1.00  0.00    -0.123 OA 
HETATM   15  O   UNL     1      -9.329  11.456  65.086  1.00  0.00    -0.213 OA 
HETATM   16  O   UNL     1     -10.625  11.092  66.996  1.00  0.00    -0.231 OA 
HETATM   17  C   UNL     1      -7.702  10.758  69.977  1.00  0.00     0.379 C  
HETATM   18  C   UNL     1     -10.105  10.332  70.526  1.00  0.00     0.219 C  
HETATM   19  C   UNL     1      -9.168  10.846  69.430  1.00  0.00     0.087 C  
ENDROOT
BRANCH   8  20
HETATM   20  C   UNL     1      -9.963  14.199  69.265  1.00  0.00     0.117 C  
BRANCH  20  21
HETATM   21  C   UNL     1     -11.017  14.161  70.394  1.00  0.00     0.347 A  
HETATM   22  C   UNL     1     -12.568  15.527  71.655  1.00  0.00    -0.486 A  
HETATM   23  C   UNL     1     -13.071  13.217  71.290  1.00  0.00    -0.275 A  
HETATM   24  C   UNL     1     -11.852  13.047  70.643  1.00  0.00    -0.069 A  
HETATM   25  C   UNL     1     -13.458  14.456  71.759  1.00  0.00    -0.456 A  
HETATM   26  C   UNL     1     -11.358  15.383  70.983  1.00  0.00    -0.411 A  
ENDBRANCH  20  21
ENDBRANCH   8  20
BRANCH  13  27
HETATM   27  N   UNL     1      -9.022   9.236  67.312  1.00  0.00    -0.123 NA 
HETATM   28  H   UNL     1      -8.314   9.092  66.594  1.00  0.00     0.000 HD 
BRANCH  27  29
HETATM   29  C   UNL     1      -9.673   8.268  67.866  1.00  0.00    -0.161 C  
HETATM   30  H   UNL     1     -11.490   7.473  68.157  1.00  0.00     0.000 HD 
HETATM   31  O   UNL     1     -11.010   8.185  67.750  1.00  0.00    -0.057 OA 
BRANCH  29  32
HETATM   32  C   UNL     1      -9.144   7.124  68.733  1.00  0.00    -0.134 C  
HETATM   33  C   UNL     1      -9.545   5.712  68.309  1.00  0.00    -0.121 C  
HETATM   34  N   UNL     1      -8.742   4.729  69.062  1.00  0.00    -0.087 NA 
HETATM   35  C   UNL     1      -7.271   4.746  68.763  1.00  0.00    -0.057 C  
HETATM   36  C   UNL     1      -9.355   3.414  69.110  1.00  0.00    -0.167 C  
HETATM   37  C   UNL     1      -6.725   3.600  67.830  1.00  0.00    -0.046 C  
HETATM   38  C   UNL     1      -7.246   3.848  66.465  1.00  0.00    -0.068 A  
HETATM   39  C   UNL     1      -7.942   3.088  65.558  1.00  0.00    -0.086 A  
HETATM   40  N   UNL     1      -8.416   3.947  64.584  1.00  0.00    -0.104 NA 
HETATM   41  C   UNL     1      -8.007   5.242  64.841  1.00  0.00    -0.105 A  
HETATM   42  H   UNL     1      -8.987   3.664  63.787  1.00  0.00     0.000 HD 
HETATM   43  C   UNL     1      -8.323   6.467  64.253  1.00  0.00     0.074 A  
HETATM   44  C   UNL     1      -7.794   7.620  64.859  1.00  0.00    -0.128 A  
HETATM   45  C   UNL     1      -7.096   7.564  66.073  1.00  0.00    -0.069 A  
HETATM   46  C   UNL     1      -6.960   6.341  66.737  1.00  0.00    -0.068 A  
HETATM   47  C   UNL     1      -6.785   6.181  68.248  1.00  0.00    -0.068 C  
HETATM   48  C   UNL     1      -7.276   5.183  66.008  1.00  0.00    -0.073 A  
HETATM   49  C   UNL     1      -7.615   7.216  69.039  1.00  0.00    -0.100 C  
ENDBRANCH  29  32
ENDBRANCH  27  29
ENDBRANCH  13  27
TORSDOF 5
ENDMDL
MODEL      132
REMARK 921   NORMALIZED FREE ENERGY PREDICTED BY IDOCK:   -2.47 KCAL/MOL
REMARK 922        TOTAL FREE ENERGY PREDICTED BY IDOCK:   -5.04 KCAL/MOL
REMARK 923 INTER-LIGAND FREE ENERGY PREDICTED BY IDOCK:   -5.87 KCAL/MOL
REMARK 924 INTRA-LIGAND FREE ENERGY PREDICTED BY IDOCK:    0.83 KCAL/MOL
REMARK 927      BINDING AFFINITY PREDICTED BY RF-SCORE:    0.00 PKD
ROOT
HETATM    1  C   UNL     1     -10.622   7.424  71.475  1.00  0.00    -0.206 C  
HETATM    2  C   UNL     1     -11.717   7.423  72.535  1.00  0.00    -0.277 C  
HETATM    3  C   UNL     1     -11.956   5.905  72.782  1.00  0.00    -0.039 C  
HETATM    4  C   UNL     1     -11.281   5.176  71.628  1.00  0.00     0.216 C  
HETATM    5  N   UNL     1     -10.840   6.224  70.738  1.00  0.00    -0.264 N  
HETATM    6  C   UNL     1      -9.896   5.862  69.812  1.00  0.00    -0.169 C  
HETATM    7  O   UNL     1     -10.004   4.771  69.262  1.00  0.00    -0.200 OA 
HETATM    8  C   UNL     1      -8.817   6.961  69.475  1.00  0.00    -0.133 C  
HETATM    9  C   UNL     1      -9.955   8.640  70.716  1.00  0.00    -0.197 C  
HETATM   10  N   UNL     1      -8.650   8.107  70.536  1.00  0.00    -0.127 N  
HETATM   11  C   UNL     1      -8.029   9.334  70.269  1.00  0.00    -0.146 C  
HETATM   12  H   UNL     1      -9.636  10.451  71.176  1.00  0.00     0.000 HD 
HETATM   13  C   UNL     1      -8.779   9.963  69.060  1.00  0.00    -0.151 C  
HETATM   14  O   UNL     1      -7.125   9.790  70.943  1.00  0.00    -0.296 OA 
HETATM   15  O   UNL     1     -10.037   9.720  71.632  1.00  0.00     0.143 OA 
HETATM   16  O   UNL     1     -10.091   9.170  69.361  1.00  0.00    -0.185 OA 
HETATM   17  C   UNL     1      -6.184  10.080  68.156  1.00  0.00    -0.053 C  
HETATM   18  C   UNL     1      -7.891   9.399  66.460  1.00  0.00    -0.097 C  
HETATM   19  C   UNL     1      -7.633   9.517  67.964  1.00  0.00    -0.086 C  
ENDROOT
BRANCH   8  20
HETATM   20  C   UNL     1      -7.559   6.222  68.983  1.00  0.00    -0.096 C  
BRANCH  20  21
HETATM   21  C   UNL     1      -7.820   5.513  67.634  1.00  0.00    -0.097 A  
HETATM   22  C   UNL     1      -8.435   5.893  65.324  1.00  0.00    -0.144 A  
HETATM   23  C   UNL     1      -7.025   4.039  65.871  1.00  0.00    -0.065 A  
HETATM   24  C   UNL     1      -7.138   4.344  67.223  1.00  0.00    -0.068 A  
HETATM   25  C   UNL     1      -7.630   4.829  64.914  1.00  0.00    -0.077 A  
HETATM   26  C   UNL     1      -8.534   6.232  66.670  1.00  0.00    -0.114 A  
ENDBRANCH  20  21
ENDBRANCH   8  20
BRANCH  13  27
HETATM   27  N   UNL     1      -9.081  11.416  69.145  1.00  0.00    -0.393 NA 
HETATM   28  H   UNL     1      -9.795  11.802  69.763  1.00  0.00     0.000 HD 
BRANCH  27  29
HETATM   29  C   UNL     1      -8.355  12.145  68.364  1.00  0.00    -0.143 C  
HETATM   30  H   UNL     1      -7.945  12.590  66.453  1.00  0.00     0.000 HD 
HETATM   31  O   UNL     1      -8.479  12.054  67.028  1.00  0.00    -0.172 OA 
BRANCH  29  32
HETATM   32  C   UNL     1      -7.260  13.151  68.727  1.00  0.00    -0.085 C  
HETATM   33  C   UNL     1      -6.818  14.100  67.616  1.00  0.00    -0.179 C  
HETATM   34  N   UNL     1      -5.978  15.169  68.191  1.00  0.00    -0.125 NA 
HETATM   35  C   UNL     1      -6.687  16.095  69.137  1.00  0.00    -0.190 C  
HETATM   36  C   UNL     1      -5.127  15.813  67.208  1.00  0.00     0.160 C  
HETATM   37  C   UNL     1      -7.082  17.513  68.578  1.00  0.00    -0.226 C  
HETATM   38  C   UNL     1      -8.165  17.317  67.585  1.00  0.00    -0.198 A  
HETATM   39  C   UNL     1      -8.338  17.694  66.277  1.00  0.00    -0.216 A  
HETATM   40  N   UNL     1      -9.402  16.966  65.779  1.00  0.00    -0.528 NA 
HETATM   41  C   UNL     1      -9.930  16.149  66.760  1.00  0.00    -0.258 A  
HETATM   42  H   UNL     1      -9.750  17.024  64.821  1.00  0.00     0.000 HD 
HETATM   43  C   UNL     1     -10.898  15.145  66.734  1.00  0.00    -0.322 A  
HETATM   44  C   UNL     1     -11.107  14.430  67.928  1.00  0.00    -0.288 A  
HETATM   45  C   UNL     1     -10.295  14.617  69.054  1.00  0.00    -0.237 A  
HETATM   46  C   UNL     1      -9.209  15.496  68.987  1.00  0.00    -0.238 A  
HETATM   47  C   UNL     1      -7.941  15.387  69.834  1.00  0.00     0.101 C  
HETATM   48  C   UNL     1      -9.165  16.368  67.886  1.00  0.00    -0.202 A  
HETATM   49  C   UNL     1      -7.523  13.918  70.063  1.00  0.00     0.793 C  
ENDBRANCH  29  32
ENDBRANCH  27  29
ENDBRANCH  13  27
TORSDOF 5
ENDMDL
MODEL      133
REMARK 921   NORMALIZED FREE ENERGY PREDICTED BY IDOCK:   -2.44 KCAL/MOL
REMARK 922        TOTAL FREE ENERGY PREDICTED BY IDOCK:   -5.00 KCAL/MOL
REMARK 923 INTER-LIGAND FREE ENERGY PREDICTED BY IDOCK:   -5.83 KCAL/MOL
REMARK 924 INTRA-LIGAND FREE ENERGY PREDICTED BY IDOCK:    0.83 KCAL/MOL
REMARK 927      BINDING AFFINITY PREDICTED BY RF-SCORE:    0.00 PKD
ROOT
HETATM    1  C   UNL     1     -10.345   7.500  70.279  1.00  0.00    -0.213 C  
HETATM    2  C   UNL     1     -10.844   7.262  71.700  1.00  0.00    -0.246 C  
HETATM    3  C   UNL     1     -10.965   5.713  71.767  1.00  0.00    -0.290 C  
HETATM    4  C   UNL     1     -10.892   5.218  70.329  1.00  0.00    -0.035 C  
HETATM    5  N   UNL     1     -10.886   6.418  69.526  1.00  0.00    -0.285 N  
HETATM    6  C   UNL     1     -10.466   6.267  68.230  1.00  0.00    -0.228 C  
HETATM    7  O   UNL     1     -10.824   5.270  67.612  1.00  0.00    -0.069 OA 
HETATM    8  C   UNL     1      -9.641   7.473  67.638  1.00  0.00    -0.143 C  
HETATM    9  C   UNL     1     -10.077   8.860  69.519  1.00  0.00    -0.198 C  
HETATM   10  N   UNL     1      -9.000   8.448  68.689  1.00  0.00    -0.140 N  
HETATM   11  C   UNL     1      -8.551   9.739  68.384  1.00  0.00    -0.119 C  
HETATM   12  H   UNL     1      -9.562  10.594  70.086  1.00  0.00     0.000 HD 
HETATM   13  C   UNL     1      -9.758  10.500  67.762  1.00  0.00    -0.160 C  
HETATM   14  O   UNL     1      -7.435  10.143  68.650  1.00  0.00    -0.079 OA 
HETATM   15  O   UNL     1      -9.724   9.777  70.543  1.00  0.00    -0.249 OA 
HETATM   16  O   UNL     1     -10.802   9.585  68.478  1.00  0.00    -0.203 OA 
HETATM   17  C   UNL     1      -7.848  10.924  65.829  1.00  0.00    -0.057 C  
HETATM   18  C   UNL     1     -10.145  10.407  64.986  1.00  0.00    -0.379 C  
HETATM   19  C   UNL     1      -9.235  10.305  66.212  1.00  0.00    -0.191 C  
ENDROOT
BRANCH   8  20
HETATM   20  C   UNL     1      -8.750   6.903  66.519  1.00  0.00    -0.137 C  
BRANCH  20  21
HETATM   21  C   UNL     1      -7.409   6.383  67.084  1.00  0.00    -0.083 A  
HETATM   22  C   UNL     1      -6.242   5.839  69.135  1.00  0.00    -0.036 A  
HETATM   23  C   UNL     1      -5.703   4.650  67.131  1.00  0.00    -0.022 A  
HETATM   24  C   UNL     1      -6.592   5.444  66.413  1.00  0.00    -0.056 A  
HETATM   25  C   UNL     1      -5.554   4.808  68.494  1.00  0.00    -0.016 A  
HETATM   26  C   UNL     1      -7.159   6.623  68.440  1.00  0.00    -0.083 A  
ENDBRANCH  20  21
ENDBRANCH   8  20
BRANCH  13  27
HETATM   27  N   UNL     1      -9.971  11.899  68.217  1.00  0.00    -0.198 NA 
HETATM   28  H   UNL     1      -9.348  12.374  68.870  1.00  0.00     0.000 HD 
BRANCH  27  29
HETATM   29  C   UNL     1     -11.018  12.457  67.706  1.00  0.00    -0.228 C  
HETATM   30  H   UNL     1     -12.436  12.298  66.299  1.00  0.00     0.000 HD 
HETATM   31  O   UNL     1     -11.666  11.888  66.675  1.00  0.00    -0.546 OA 
BRANCH  29  32
HETATM   32  C   UNL     1     -11.682  13.783  68.083  1.00  0.00    -0.392 C  
HETATM   33  C   UNL     1     -11.058  14.545  69.250  1.00  0.00    -0.270 C  
HETATM   34  N   UNL     1     -11.627  15.906  69.305  1.00  0.00    -0.371 NA 
HETATM   35  C   UNL     1     -11.288  16.784  68.134  1.00  0.00    -0.026 C  
HETATM   36  C   UNL     1     -11.491  16.526  70.610  1.00  0.00     0.001 C  
HETATM   37  C   UNL     1     -10.174  17.873  68.366  1.00  0.00    -0.398 C  
HETATM   38  C   UNL     1      -8.880  17.166  68.511  1.00  0.00    -0.265 A  
HETATM   39  C   UNL     1      -7.888  17.178  69.461  1.00  0.00     0.426 A  
HETATM   40  N   UNL     1      -7.073  16.089  69.214  1.00  0.00    -0.210 NA 
HETATM   41  C   UNL     1      -7.513  15.398  68.101  1.00  0.00    -0.115 A  
HETATM   42  H   UNL     1      -6.261  15.832  69.774  1.00  0.00     0.000 HD 
HETATM   43  C   UNL     1      -7.131  14.184  67.531  1.00  0.00    -0.184 A  
HETATM   44  C   UNL     1      -7.891  13.725  66.439  1.00  0.00     1.395 A  
HETATM   45  C   UNL     1      -9.060  14.378  66.025  1.00  0.00     0.063 A  
HETATM   46  C   UNL     1      -9.523  15.487  66.739  1.00  0.00    -0.257 A  
HETATM   47  C   UNL     1     -10.985  15.929  66.817  1.00  0.00    -0.151 C  
HETATM   48  C   UNL     1      -8.635  16.068  67.660  1.00  0.00    -0.175 A  
HETATM   49  C   UNL     1     -11.952  14.725  66.865  1.00  0.00    -0.212 C  
ENDBRANCH  29  32
ENDBRANCH  27  29
ENDBRANCH  13  27
TORSDOF 5
ENDMDL
MODEL      134
REMARK 921   NORMALIZED FREE ENERGY PREDICTED BY IDOCK:   -2.43 KCAL/MOL
REMARK 922        TOTAL FREE ENERGY PREDICTED BY IDOCK:   -4.99 KCAL/MOL
REMARK 923 INTER-LIGAND FREE ENERGY PREDICTED BY IDOCK:   -5.34 KCAL/MOL
REMARK 924 INTRA-LIGAND FREE ENERGY PREDICTED BY IDOCK:    0.35 KCAL/MOL
REMARK 927      BINDING AFFINITY PREDICTED BY RF-SCORE:    0.00 PKD
ROOT
HETATM    1  C   UNL     1      -5.971  12.822  70.185  1.00  0.00    -0.135 C  
HETATM    2  C   UNL     1      -5.199  13.104  71.468  1.00  0.00    -0.166 C  
HETATM    3  C   UNL     1      -5.179  14.658  71.524  1.00  0.00    -0.148 C  
HETATM    4  C   UNL     1      -5.594  15.139  70.140  1.00  0.00    -0.129 C  
HETATM    5  N   UNL     1      -5.684  13.937  69.345  1.00  0.00    -0.086 N  
HETATM    6  C   UNL     1      -6.381  14.048  68.170  1.00  0.00    -0.128 C  
HETATM    7  O   UNL     1      -6.238  15.065  67.500  1.00  0.00    -0.276 OA 
HETATM    8  C   UNL     1      -7.223  12.782  67.755  1.00  0.00    -0.132 C  
HETATM    9  C   UNL     1      -6.295  11.441  69.486  1.00  0.00    -0.113 C  
HETATM   10  N   UNL     1      -7.552  11.768  68.909  1.00  0.00    -0.101 N  
HETATM   11  C   UNL     1      -7.959  10.445  68.694  1.00  0.00    -0.115 C  
HETATM   12  H   UNL     1      -6.548   9.677  70.132  1.00  0.00     0.000 HD 
HETATM   13  C   UNL     1      -6.862   9.773  67.821  1.00  0.00    -0.081 C  
HETATM   14  O   UNL     1      -8.961   9.962  69.188  1.00  0.00    -0.147 OA 
HETATM   15  O   UNL     1      -6.353  10.507  70.552  1.00  0.00    -0.175 OA 
HETATM   16  O   UNL     1      -5.758  10.766  68.307  1.00  0.00    -0.044 OA 
HETATM   17  C   UNL     1      -9.104   9.197  66.337  1.00  0.00    -0.211 C  
HETATM   18  C   UNL     1      -7.085   9.878  65.027  1.00  0.00    -0.131 C  
HETATM   19  C   UNL     1      -7.716   9.919  66.421  1.00  0.00    -0.104 C  
ENDROOT
BRANCH   8  20
HETATM   20  C   UNL     1      -8.372  13.278  66.859  1.00  0.00    -0.018 C  
BRANCH  20  21
HETATM   21  C   UNL     1      -9.603  13.682  67.702  1.00  0.00    -0.221 A  
HETATM   22  C   UNL     1     -10.654  15.542  68.841  1.00  0.00    -0.240 A  
HETATM   23  C   UNL     1     -12.021  13.806  67.926  1.00  0.00    -0.391 A  
HETATM   24  C   UNL     1     -10.884  13.106  67.538  1.00  0.00    -0.269 A  
HETATM   25  C   UNL     1     -11.920  15.041  68.535  1.00  0.00    -0.257 A  
HETATM   26  C   UNL     1      -9.505  14.871  68.433  1.00  0.00    -0.209 A  
ENDBRANCH  20  21
ENDBRANCH   8  20
BRANCH  13  27
HETATM   27  N   UNL     1      -6.454   8.396  68.205  1.00  0.00    -0.058 NA 
HETATM   28  H   UNL     1      -5.567   7.978  67.926  1.00  0.00     0.000 HD 
BRANCH  27  29
HETATM   29  C   UNL     1      -7.329   7.777  68.927  1.00  0.00    -0.086 C  
HETATM   30  H   UNL     1      -9.166   6.976  68.944  1.00  0.00     0.000 HD 
HETATM   31  O   UNL     1      -8.522   7.430  68.413  1.00  0.00    -0.124 OA 
BRANCH  29  32
HETATM   32  C   UNL     1      -7.248   7.370  70.400  1.00  0.00    -0.068 C  
HETATM   33  C   UNL     1      -8.353   6.446  70.908  1.00  0.00    -0.126 C  
HETATM   34  N   UNL     1      -7.984   5.931  72.242  1.00  0.00    -0.106 NA 
HETATM   35  C   UNL     1      -6.781   5.033  72.266  1.00  0.00    -0.053 C  
HETATM   36  C   UNL     1      -9.127   5.466  73.006  1.00  0.00    -0.128 C  
HETATM   37  C   UNL     1      -7.055   3.487  72.391  1.00  0.00    -0.046 C  
HETATM   38  C   UNL     1      -7.660   3.035  71.116  1.00  0.00    -0.040 A  
HETATM   39  C   UNL     1      -8.804   2.347  70.795  1.00  0.00    -0.072 A  
HETATM   40  N   UNL     1      -8.997   2.487  69.434  1.00  0.00    -0.096 NA 
HETATM   41  C   UNL     1      -7.975   3.231  68.875  1.00  0.00    -0.056 A  
HETATM   42  H   UNL     1      -9.783   2.096  68.914  1.00  0.00     0.000 HD 
HETATM   43  C   UNL     1      -7.779   3.758  67.598  1.00  0.00    -0.074 A  
HETATM   44  C   UNL     1      -6.650   4.577  67.414  1.00  0.00    -0.047 A  
HETATM   45  C   UNL     1      -5.833   4.964  68.484  1.00  0.00    -0.021 A  
HETATM   46  C   UNL     1      -6.166   4.574  69.785  1.00  0.00    -0.027 A  
HETATM   47  C   UNL     1      -5.785   5.340  71.052  1.00  0.00    -0.016 C  
HETATM   48  C   UNL     1      -7.141   3.570  69.918  1.00  0.00    -0.041 A  
HETATM   49  C   UNL     1      -5.836   6.869  70.842  1.00  0.00    -0.028 C  
ENDBRANCH  29  32
ENDBRANCH  27  29
ENDBRANCH  13  27
TORSDOF 5
ENDMDL
MODEL      135
REMARK 921   NORMALIZED FREE ENERGY PREDICTED BY IDOCK:   -2.31 KCAL/MOL
REMARK 922        TOTAL FREE ENERGY PREDICTED BY IDOCK:   -4.83 KCAL/MOL
REMARK 923 INTER-LIGAND FREE ENERGY PREDICTED BY IDOCK:   -5.60 KCAL/MOL
REMARK 924 INTRA-LIGAND FREE ENERGY PREDICTED BY IDOCK:    0.77 KCAL/MOL
REMARK 927      BINDING AFFINITY PREDICTED BY RF-SCORE:    0.00 PKD
ROOT
HETATM    1  C   UNL     1     -10.656   5.947  71.324  1.00  0.00    -0.252 C  
HETATM    2  C   UNL     1     -10.268   4.686  72.086  1.00  0.00    -0.259 C  
HETATM    3  C   UNL     1     -11.143   4.775  73.370  1.00  0.00    -0.422 C  
HETATM    4  C   UNL     1     -11.667   6.204  73.428  1.00  0.00     0.744 C  
HETATM    5  N   UNL     1     -11.003   6.884  72.341  1.00  0.00    -0.236 N  
HETATM    6  C   UNL     1     -11.561   8.074  71.951  1.00  0.00    -0.298 C  
HETATM    7  O   UNL     1     -11.980   8.834  72.817  1.00  0.00    -0.220 OA 
HETATM    8  C   UNL     1     -11.501   8.379  70.406  1.00  0.00    -0.125 C  
HETATM    9  C   UNL     1     -10.088   6.518  69.964  1.00  0.00    -0.174 C  
HETATM   10  N   UNL     1     -11.267   7.140  69.470  1.00  0.00    -0.142 N  
HETATM   11  C   UNL     1     -10.832   7.236  68.141  1.00  0.00    -0.068 C  
HETATM   12  H   UNL     1      -9.331   5.713  68.424  1.00  0.00     0.000 HD 
HETATM   13  C   UNL     1      -9.492   8.027  68.162  1.00  0.00    -0.143 C  
HETATM   14  O   UNL     1     -11.408   6.712  67.206  1.00  0.00    -0.324 OA 
HETATM   15  O   UNL     1      -9.672   5.370  69.242  1.00  0.00    -0.140 OA 
HETATM   16  O   UNL     1      -9.187   7.621  69.640  1.00  0.00    -0.147 OA 
HETATM   17  C   UNL     1     -10.904   9.481  66.304  1.00  0.00     0.333 C  
HETATM   18  C   UNL     1      -9.554  10.821  67.928  1.00  0.00    -0.171 C  
HETATM   19  C   UNL     1     -10.185   9.446  67.695  1.00  0.00    -0.281 C  
ENDROOT
BRANCH   8  20
HETATM   20  C   UNL     1     -12.667   9.334  70.089  1.00  0.00     0.798 C  
BRANCH  20  21
HETATM   21  C   UNL     1     -12.401  10.747  70.655  1.00  0.00    -0.465 A  
HETATM   22  C   UNL     1     -11.801  13.009  70.036  1.00  0.00    -0.355 A  
HETATM   23  C   UNL     1     -13.181  12.648  71.956  1.00  0.00    -0.531 A  
HETATM   24  C   UNL     1     -13.068  11.272  71.786  1.00  0.00    -0.527 A  
HETATM   25  C   UNL     1     -12.592  13.522  71.065  1.00  0.00    -0.438 A  
HETATM   26  C   UNL     1     -11.701  11.636  69.832  1.00  0.00    -0.414 A  
ENDBRANCH  20  21
ENDBRANCH   8  20
BRANCH  13  27
HETATM   27  N   UNL     1      -8.398   7.510  67.299  1.00  0.00    -0.118 NA 
HETATM   28  H   UNL     1      -8.558   7.114  66.373  1.00  0.00     0.000 HD 
BRANCH  27  29
HETATM   29  C   UNL     1      -7.225   7.609  67.832  1.00  0.00    -0.094 C  
HETATM   30  H   UNL     1      -5.817   8.887  68.464  1.00  0.00     0.000 HD 
HETATM   31  O   UNL     1      -6.680   8.814  68.072  1.00  0.00    -0.066 OA 
BRANCH  29  32
HETATM   32  C   UNL     1      -6.255   6.497  68.237  1.00  0.00    -0.032 C  
HETATM   33  C   UNL     1      -6.884   5.209  68.765  1.00  0.00    -0.051 C  
HETATM   34  N   UNL     1      -5.851   4.158  68.844  1.00  0.00    -0.021 NA 
HETATM   35  C   UNL     1      -5.288   3.719  67.523  1.00  0.00    -0.016 C  
HETATM   36  C   UNL     1      -6.199   3.088  69.761  1.00  0.00    -0.028 C  
HETATM   37  C   UNL     1      -5.808   2.346  66.953  1.00  0.00    -0.022 C  
HETATM   38  C   UNL     1      -7.223   2.533  66.555  1.00  0.00    -0.064 A  
HETATM   39  C   UNL     1      -8.392   1.878  66.854  1.00  0.00    -0.087 A  
HETATM   40  N   UNL     1      -9.432   2.688  66.438  1.00  0.00    -0.385 NA 
HETATM   41  C   UNL     1      -8.943   3.839  65.850  1.00  0.00    -0.135 A  
HETATM   42  H   UNL     1     -10.421   2.467  66.549  1.00  0.00     0.000 HD 
HETATM   43  C   UNL     1      -9.560   5.007  65.402  1.00  0.00    -0.066 A  
HETATM   44  C   UNL     1      -8.718   6.040  64.950  1.00  0.00     0.068 A  
HETATM   45  C   UNL     1      -7.324   5.963  65.068  1.00  0.00    -0.072 A  
HETATM   46  C   UNL     1      -6.743   4.858  65.698  1.00  0.00    -0.056 A  
HETATM   47  C   UNL     1      -5.394   4.872  66.418  1.00  0.00    -0.009 C  
HETATM   48  C   UNL     1      -7.569   3.744  65.918  1.00  0.00    -0.085 A  
HETATM   49  C   UNL     1      -5.152   6.199  67.170  1.00  0.00    -0.005 C  
ENDBRANCH  29  32
ENDBRANCH  27  29
ENDBRANCH  13  27
TORSDOF 5
ENDMDL
MODEL      136
REMARK 921   NORMALIZED FREE ENERGY PREDICTED BY IDOCK:   -2.30 KCAL/MOL
REMARK 922        TOTAL FREE ENERGY PREDICTED BY IDOCK:   -4.82 KCAL/MOL
REMARK 923 INTER-LIGAND FREE ENERGY PREDICTED BY IDOCK:   -3.88 KCAL/MOL
REMARK 924 INTRA-LIGAND FREE ENERGY PREDICTED BY IDOCK:   -0.94 KCAL/MOL
REMARK 927      BINDING AFFINITY PREDICTED BY RF-SCORE:    0.00 PKD
ROOT
HETATM    1  C   UNL     1     -10.957  12.222  65.307  1.00  0.00    -0.307 C  
HETATM    2  C   UNL     1     -12.263  11.719  64.705  1.00  0.00    -0.036 C  
HETATM    3  C   UNL     1     -13.014  13.037  64.359  1.00  0.00    -0.039 C  
HETATM    4  C   UNL     1     -12.282  14.149  65.098  1.00  0.00    -0.433 C  
HETATM    5  N   UNL     1     -11.299  13.468  65.908  1.00  0.00    -0.305 N  
HETATM    6  C   UNL     1     -10.279  14.247  66.391  1.00  0.00    -0.291 C  
HETATM    7  O   UNL     1     -10.545  15.374  66.794  1.00  0.00    -0.298 OA 
HETATM    8  C   UNL     1      -8.869  13.548  66.471  1.00  0.00     0.027 C  
HETATM    9  C   UNL     1      -9.759  11.408  65.939  1.00  0.00    -0.227 C  
HETATM   10  N   UNL     1      -8.685  12.268  65.580  1.00  0.00     0.427 N  
HETATM   11  C   UNL     1      -7.671  11.321  65.773  1.00  0.00     0.221 C  
HETATM   12  H   UNL     1      -9.056   9.672  65.640  1.00  0.00     0.000 HD 
HETATM   13  C   UNL     1      -7.799  10.817  67.240  1.00  0.00    -0.113 C  
HETATM   14  O   UNL     1      -6.915  10.957  64.893  1.00  0.00     0.166 OA 
HETATM   15  O   UNL     1      -9.777  10.162  65.260  1.00  0.00    -0.256 OA 
HETATM   16  O   UNL     1      -9.317  11.180  67.313  1.00  0.00    -0.159 OA 
HETATM   17  C   UNL     1      -5.147  11.540  67.188  1.00  0.00    -0.079 C  
HETATM   18  C   UNL     1      -6.394  12.151  69.268  1.00  0.00    -0.103 C  
HETATM   19  C   UNL     1      -6.572  11.763  67.798  1.00  0.00    -0.075 C  
ENDROOT
BRANCH   8  20
HETATM   20  C   UNL     1      -7.808  14.661  66.392  1.00  0.00     1.104 C  
BRANCH  20  21
HETATM   21  C   UNL     1      -7.259  15.010  67.794  1.00  0.00    -0.186 A  
HETATM   22  C   UNL     1      -5.448  16.125  68.951  1.00  0.00    -0.112 A  
HETATM   23  C   UNL     1      -7.611  16.038  69.969  1.00  0.00     0.611 A  
HETATM   24  C   UNL     1      -8.084  15.267  68.912  1.00  0.00    -0.180 A  
HETATM   25  C   UNL     1      -6.313  16.508  69.977  1.00  0.00    -0.015 A  
HETATM   26  C   UNL     1      -5.912  15.381  67.870  1.00  0.00    -0.165 A  
ENDBRANCH  20  21
ENDBRANCH   8  20
BRANCH  13  27
HETATM   27  N   UNL     1      -7.657   9.354  67.458  1.00  0.00    -0.091 NA 
HETATM   28  H   UNL     1      -7.460   8.695  66.706  1.00  0.00     0.000 HD 
BRANCH  27  29
HETATM   29  C   UNL     1      -7.806   8.995  68.690  1.00  0.00    -0.101 C  
HETATM   30  H   UNL     1      -8.348   9.609  70.519  1.00  0.00     0.000 HD 
HETATM   31  O   UNL     1      -8.238   9.872  69.613  1.00  0.00    -0.139 OA 
BRANCH  29  32
HETATM   32  C   UNL     1      -7.516   7.641  69.340  1.00  0.00    -0.089 C  
HETATM   33  C   UNL     1      -7.667   7.573  70.858  1.00  0.00    -0.090 C  
HETATM   34  N   UNL     1      -7.629   6.162  71.291  1.00  0.00    -0.093 NA 
HETATM   35  C   UNL     1      -8.780   5.321  70.819  1.00  0.00    -0.131 C  
HETATM   36  C   UNL     1      -7.275   6.007  72.690  1.00  0.00    -0.086 C  
HETATM   37  C   UNL     1      -9.904   5.003  71.875  1.00  0.00    -0.236 C  
HETATM   38  C   UNL     1     -10.633   6.265  72.147  1.00  0.00    -0.256 A  
HETATM   39  C   UNL     1     -10.943   6.959  73.290  1.00  0.00    -0.237 A  
HETATM   40  N   UNL     1     -11.365   8.217  72.904  1.00  0.00    -0.363 NA 
HETATM   41  C   UNL     1     -11.355   8.327  71.526  1.00  0.00    -0.268 A  
HETATM   42  H   UNL     1     -11.644   8.959  73.545  1.00  0.00     0.000 HD 
HETATM   43  C   UNL     1     -11.556   9.405  70.663  1.00  0.00    -0.330 A  
HETATM   44  C   UNL     1     -11.356   9.168  69.291  1.00  0.00     0.232 A  
HETATM   45  C   UNL     1     -10.847   7.952  68.816  1.00  0.00     0.009 A  
HETATM   46  C   UNL     1     -10.475   6.956  69.724  1.00  0.00    -0.240 A  
HETATM   47  C   UNL     1      -9.413   5.887  69.463  1.00  0.00    -0.166 C  
HETATM   48  C   UNL     1     -10.903   7.114  71.053  1.00  0.00    -0.262 A  
HETATM   49  C   UNL     1      -8.227   6.437  68.641  1.00  0.00    -0.121 C  
ENDBRANCH  29  32
ENDBRANCH  27  29
ENDBRANCH  13  27
TORSDOF 5
ENDMDL
MODEL      137
REMARK 921   NORMALIZED FREE ENERGY PREDICTED BY IDOCK:   -2.24 KCAL/MOL
REMARK 922        TOTAL FREE ENERGY PREDICTED BY IDOCK:   -4.74 KCAL/MOL
REMARK 923 INTER-LIGAND FREE ENERGY PREDICTED BY IDOCK:   -5.49 KCAL/MOL
REMARK 924 INTRA-LIGAND FREE ENERGY PREDICTED BY IDOCK:    0.75 KCAL/MOL
REMARK 927      BINDING AFFINITY PREDICTED BY RF-SCORE:    0.00 PKD
ROOT
HETATM    1  C   UNL     1     -11.746  11.896  70.105  1.00  0.00    -0.253 C  
HETATM    2  C   UNL     1     -12.736  12.247  71.210  1.00  0.00    -0.351 C  
HETATM    3  C   UNL     1     -13.168  13.695  70.838  1.00  0.00    -0.111 C  
HETATM    4  C   UNL     1     -12.161  14.188  69.808  1.00  0.00    -0.354 C  
HETATM    5  N   UNL     1     -11.165  13.144  69.739  1.00  0.00    -0.038 N  
HETATM    6  C   UNL     1     -10.348  13.171  68.638  1.00  0.00    -0.196 C  
HETATM    7  O   UNL     1      -9.943  14.256  68.236  1.00  0.00    -0.225 OA 
HETATM    8  C   UNL     1      -9.929  11.762  68.068  1.00  0.00    -0.188 C  
HETATM    9  C   UNL     1     -10.871  10.594  69.913  1.00  0.00    -0.241 C  
HETATM   10  N   UNL     1     -10.836  10.552  68.492  1.00  0.00    -0.217 N  
HETATM   11  C   UNL     1     -10.443   9.211  68.398  1.00  0.00    -0.199 C  
HETATM   12  H   UNL     1     -11.103   8.778  70.405  1.00  0.00     0.000 HD 
HETATM   13  C   UNL     1      -9.121   9.071  69.207  1.00  0.00    -0.145 C  
HETATM   14  O   UNL     1     -11.099   8.356  67.833  1.00  0.00     0.083 OA 
HETATM   15  O   UNL     1     -11.630   9.561  70.521  1.00  0.00    -0.265 OA 
HETATM   16  O   UNL     1      -9.452  10.304  70.108  1.00  0.00    -0.059 OA 
HETATM   17  C   UNL     1      -8.355   7.977  66.803  1.00  0.00    -0.116 C  
HETATM   18  C   UNL     1      -6.672   9.468  67.899  1.00  0.00    -0.066 C  
HETATM   19  C   UNL     1      -8.159   9.107  67.871  1.00  0.00    -0.105 C  
ENDROOT
BRANCH   8  20
HETATM   20  C   UNL     1      -9.609  11.956  66.574  1.00  0.00    -0.226 C  
BRANCH  20  21
HETATM   21  C   UNL     1     -10.776  12.655  65.840  1.00  0.00    -0.293 A  
HETATM   22  C   UNL     1     -13.177  12.969  65.859  1.00  0.00     1.238 A  
HETATM   23  C   UNL     1     -11.775  14.707  65.001  1.00  0.00    -0.385 A  
HETATM   24  C   UNL     1     -10.653  13.908  65.197  1.00  0.00    -0.391 A  
HETATM   25  C   UNL     1     -13.031  14.267  65.368  1.00  0.00    -0.230 A  
HETATM   26  C   UNL     1     -12.063  12.166  66.090  1.00  0.00    -0.068 A  
ENDBRANCH  20  21
ENDBRANCH   8  20
BRANCH  13  27
HETATM   27  N   UNL     1      -8.996   7.874  70.080  1.00  0.00    -0.145 NA 
HETATM   28  H   UNL     1      -9.702   7.608  70.765  1.00  0.00     0.000 HD 
BRANCH  27  29
HETATM   29  C   UNL     1      -7.910   7.202  69.887  1.00  0.00    -0.113 C  
HETATM   30  H   UNL     1      -5.925   7.183  70.168  1.00  0.00     0.000 HD 
HETATM   31  O   UNL     1      -6.725   7.677  70.309  1.00  0.00    -0.045 OA 
BRANCH  29  32
HETATM   32  C   UNL     1      -7.720   5.864  69.170  1.00  0.00    -0.091 C  
HETATM   33  C   UNL     1      -6.752   4.878  69.822  1.00  0.00    -0.043 C  
HETATM   34  N   UNL     1      -6.891   3.558  69.177  1.00  0.00    -0.044 NA 
HETATM   35  C   UNL     1      -8.218   2.885  69.384  1.00  0.00    -0.051 C  
HETATM   36  C   UNL     1      -5.726   2.711  69.361  1.00  0.00    -0.022 C  
HETATM   37  C   UNL     1      -8.264   1.720  70.442  1.00  0.00    -0.058 C  
HETATM   38  C   UNL     1      -8.097   2.328  71.784  1.00  0.00    -0.048 A  
HETATM   39  C   UNL     1      -7.241   2.100  72.833  1.00  0.00    -0.032 A  
HETATM   40  N   UNL     1      -7.357   3.174  73.695  1.00  0.00    -0.053 NA 
HETATM   41  C   UNL     1      -8.297   4.072  73.225  1.00  0.00    -0.089 A  
HETATM   42  H   UNL     1      -6.824   3.289  74.557  1.00  0.00     0.000 HD 
HETATM   43  C   UNL     1      -8.676   5.348  73.642  1.00  0.00    -0.116 A  
HETATM   44  C   UNL     1      -9.611   6.029  72.840  1.00  0.00    -0.158 A  
HETATM   45  C   UNL     1     -10.042   5.517  71.609  1.00  0.00    -0.249 A  
HETATM   46  C   UNL     1      -9.497   4.323  71.127  1.00  0.00    -0.233 A  
HETATM   47  C   UNL     1      -9.386   3.945  69.650  1.00  0.00    -0.246 C  
HETATM   48  C   UNL     1      -8.761   3.546  72.038  1.00  0.00    -0.116 A  
HETATM   49  C   UNL     1      -9.058   5.167  68.764  1.00  0.00    -0.140 C  
ENDBRANCH  29  32
ENDBRANCH  27  29
ENDBRANCH  13  27
TORSDOF 5
ENDMDL
MODEL      138
REMARK 921   NORMALIZED FREE ENERGY PREDICTED BY IDOCK:   -2.17 KCAL/MOL
REMARK 922        TOTAL FREE ENERGY PREDICTED BY IDOCK:   -4.64 KCAL/MOL
REMARK 923 INTER-LIGAND FREE ENERGY PREDICTED BY IDOCK:   -4.01 KCAL/MOL
REMARK 924 INTRA-LIGAND FREE ENERGY PREDICTED BY IDOCK:   -0.64 KCAL/MOL
REMARK 927      BINDING AFFINITY PREDICTED BY RF-SCORE:    0.00 PKD
ROOT
HETATM    1  C   UNL     1      -7.244   8.307  71.945  1.00  0.00    -0.090 C  
HETATM    2  C   UNL     1      -6.541   9.035  73.085  1.00  0.00     0.234 C  
HETATM    3  C   UNL     1      -6.537   7.973  74.222  1.00  0.00    -0.133 C  
HETATM    4  C   UNL     1      -7.526   6.895  73.799  1.00  0.00    -0.080 C  
HETATM    5  N   UNL     1      -8.137   7.407  72.595  1.00  0.00    -0.101 N  
HETATM    6  C   UNL     1      -8.794   6.486  71.820  1.00  0.00    -0.138 C  
HETATM    7  O   UNL     1      -9.466   5.626  72.378  1.00  0.00    -0.144 OA 
HETATM    8  C   UNL     1      -8.691   6.712  70.263  1.00  0.00    -0.147 C  
HETATM    9  C   UNL     1      -7.648   8.834  70.510  1.00  0.00    -0.085 C  
HETATM   10  N   UNL     1      -7.509   7.624  69.777  1.00  0.00    -0.088 N  
HETATM   11  C   UNL     1      -7.456   8.227  68.514  1.00  0.00    -0.095 C  
HETATM   12  H   UNL     1      -6.923  10.143  69.346  1.00  0.00     0.000 HD 
HETATM   13  C   UNL     1      -8.752   9.075  68.365  1.00  0.00    -0.130 C  
HETATM   14  O   UNL     1      -6.509   8.119  67.757  1.00  0.00    -0.051 OA 
HETATM   15  O   UNL     1      -6.680   9.827  70.209  1.00  0.00    -0.080 OA 
HETATM   16  O   UNL     1      -8.920   9.229  69.910  1.00  0.00    -0.153 OA 
HETATM   17  C   UNL     1      -8.870   7.573  66.065  1.00  0.00    -0.179 C  
HETATM   18  C   UNL     1     -11.042   7.886  67.264  1.00  0.00     0.234 C  
HETATM   19  C   UNL     1      -9.522   7.954  67.437  1.00  0.00    -0.179 C  
ENDROOT
BRANCH   8  20
HETATM   20  C   UNL     1      -8.887   5.338  69.595  1.00  0.00    -0.126 C  
BRANCH  20  21
HETATM   21  C   UNL     1      -7.555   4.802  69.020  1.00  0.00    -0.067 A  
HETATM   22  C   UNL     1      -5.351   4.011  69.634  1.00  0.00    -0.008 A  
HETATM   23  C   UNL     1      -6.389   3.165  67.651  1.00  0.00    -0.036 A  
HETATM   24  C   UNL     1      -7.473   4.016  67.848  1.00  0.00    -0.067 A  
HETATM   25  C   UNL     1      -5.349   3.122  68.557  1.00  0.00    -0.013 A  
HETATM   26  C   UNL     1      -6.440   4.846  69.864  1.00  0.00    -0.035 A  
ENDBRANCH  20  21
ENDBRANCH   8  20
BRANCH  13  27
HETATM   27  N   UNL     1      -8.598  10.430  67.773  1.00  0.00    -0.121 NA 
HETATM   28  H   UNL     1      -7.834  11.060  68.013  1.00  0.00     0.000 HD 
BRANCH  27  29
HETATM   29  C   UNL     1      -9.525  10.735  66.926  1.00  0.00    -0.168 C  
HETATM   30  H   UNL     1     -10.086  10.626  65.005  1.00  0.00     0.000 HD 
HETATM   31  O   UNL     1      -9.405  10.402  65.628  1.00  0.00    -0.176 OA 
BRANCH  29  32
HETATM   32  C   UNL     1     -10.826  11.504  67.157  1.00  0.00    -0.314 C  
HETATM   33  C   UNL     1     -11.019  12.105  68.548  1.00  0.00    -0.238 C  
HETATM   34  N   UNL     1     -12.166  13.033  68.526  1.00  0.00    -0.131 NA 
HETATM   35  C   UNL     1     -11.978  14.256  67.674  1.00  0.00    -0.365 C  
HETATM   36  C   UNL     1     -12.732  13.270  69.841  1.00  0.00     0.233 C  
HETATM   37  C   UNL     1     -11.657  15.601  68.428  1.00  0.00    -0.358 C  
HETATM   38  C   UNL     1     -10.286  15.487  68.982  1.00  0.00    -0.235 A  
HETATM   39  C   UNL     1      -9.748  15.650  70.234  1.00  0.00     0.332 A  
HETATM   40  N   UNL     1      -8.475  15.114  70.204  1.00  0.00    -0.166 NA 
HETATM   41  C   UNL     1      -8.181  14.636  68.941  1.00  0.00    -0.145 A  
HETATM   42  H   UNL     1      -7.841  15.076  71.002  1.00  0.00     0.000 HD 
HETATM   43  C   UNL     1      -7.110  13.899  68.435  1.00  0.00    -0.104 A  
HETATM   44  C   UNL     1      -7.199  13.484  67.094  1.00  0.00     0.164 A  
HETATM   45  C   UNL     1      -8.362  13.676  66.335  1.00  0.00     0.645 A  
HETATM   46  C   UNL     1      -9.490  14.248  66.931  1.00  0.00    -0.272 A  
HETATM   47  C   UNL     1     -10.933  14.001  66.490  1.00  0.00    -0.306 C  
HETATM   48  C   UNL     1      -9.305  14.870  68.178  1.00  0.00    -0.193 A  
HETATM   49  C   UNL     1     -11.157  12.542  66.036  1.00  0.00    -0.329 C  
ENDBRANCH  29  32
ENDBRANCH  27  29
ENDBRANCH  13  27
TORSDOF 5
ENDMDL
MODEL      139
REMARK 921   NORMALIZED FREE ENERGY PREDICTED BY IDOCK:   -2.14 KCAL/MOL
REMARK 922        TOTAL FREE ENERGY PREDICTED BY IDOCK:   -4.61 KCAL/MOL
REMARK 923 INTER-LIGAND FREE ENERGY PREDICTED BY IDOCK:   -6.45 KCAL/MOL
REMARK 924 INTRA-LIGAND FREE ENERGY PREDICTED BY IDOCK:    1.84 KCAL/MOL
REMARK 927      BINDING AFFINITY PREDICTED BY RF-SCORE:    0.00 PKD
ROOT
HETATM    1  C   UNL     1     -10.527   6.007  71.224  1.00  0.00    -0.230 C  
HETATM    2  C   UNL     1     -10.065   4.709  71.875  1.00  0.00    -0.266 C  
HETATM    3  C   UNL     1     -10.980   4.608  73.130  1.00  0.00    -0.364 C  
HETATM    4  C   UNL     1     -11.613   5.982  73.305  1.00  0.00     0.314 C  
HETATM    5  N   UNL     1     -10.972   6.812  72.312  1.00  0.00    -0.235 N  
HETATM    6  C   UNL     1     -11.608   7.991  72.018  1.00  0.00    -0.316 C  
HETATM    7  O   UNL     1     -12.108   8.630  72.937  1.00  0.00    -0.217 OA 
HETATM    8  C   UNL     1     -11.528   8.449  70.512  1.00  0.00    -0.179 C  
HETATM    9  C   UNL     1      -9.966   6.748  69.945  1.00  0.00    -0.172 C  
HETATM   10  N   UNL     1     -11.174   7.328  69.471  1.00  0.00    -0.104 N  
HETATM   11  C   UNL     1     -10.711   7.584  68.174  1.00  0.00    -0.085 C  
HETATM   12  H   UNL     1      -9.107   6.154  68.363  1.00  0.00     0.000 HD 
HETATM   13  C   UNL     1      -9.436   8.465  68.317  1.00  0.00    -0.138 C  
HETATM   14  O   UNL     1     -11.219   7.114  67.174  1.00  0.00    -0.276 OA 
HETATM   15  O   UNL     1      -9.444   5.709  69.132  1.00  0.00    -0.120 OA 
HETATM   16  O   UNL     1      -9.142   7.940  69.759  1.00  0.00    -0.146 OA 
HETATM   17  C   UNL     1     -10.902   9.987  66.557  1.00  0.00    -0.013 C  
HETATM   18  C   UNL     1      -9.704  11.257  68.348  1.00  0.00    -0.194 C  
HETATM   19  C   UNL     1     -10.221   9.869  67.963  1.00  0.00    -0.219 C  
ENDROOT
BRANCH   8  20
HETATM   20  C   UNL     1     -12.754   9.342  70.246  1.00  0.00     0.487 C  
BRANCH  20  21
HETATM   21  C   UNL     1     -12.609  10.711  70.949  1.00  0.00    -0.503 A  
HETATM   22  C   UNL     1     -12.240  13.071  70.554  1.00  0.00    -0.392 A  
HETATM   23  C   UNL     1     -13.535  12.389  72.446  1.00  0.00    -0.294 A  
HETATM   24  C   UNL     1     -13.296  11.054  72.136  1.00  0.00    -0.285 A  
HETATM   25  C   UNL     1     -13.052  13.401  71.640  1.00  0.00    -0.463 A  
HETATM   26  C   UNL     1     -12.016  11.741  70.211  1.00  0.00    -0.429 A  
ENDBRANCH  20  21
ENDBRANCH   8  20
BRANCH  13  27
HETATM   27  N   UNL     1      -8.282   8.116  67.448  1.00  0.00    -0.121 NA 
HETATM   28  H   UNL     1      -8.150   8.503  66.515  1.00  0.00     0.000 HD 
BRANCH  27  29
HETATM   29  C   UNL     1      -7.462   7.275  67.986  1.00  0.00    -0.102 C  
HETATM   30  H   UNL     1      -6.119   7.006  69.448  1.00  0.00     0.000 HD 
HETATM   31  O   UNL     1      -6.722   7.624  69.053  1.00  0.00    -0.047 OA 
BRANCH  29  32
HETATM   32  C   UNL     1      -7.136   5.842  67.560  1.00  0.00    -0.074 C  
HETATM   33  C   UNL     1      -8.058   5.220  66.513  1.00  0.00    -0.108 C  
HETATM   34  N   UNL     1      -7.456   3.968  66.014  1.00  0.00    -0.086 NA 
HETATM   35  C   UNL     1      -6.175   4.139  65.248  1.00  0.00    -0.027 C  
HETATM   36  C   UNL     1      -8.427   3.071  65.414  1.00  0.00    -0.100 C  
HETATM   37  C   UNL     1      -6.268   4.032  63.680  1.00  0.00    -0.018 C  
HETATM   38  C   UNL     1      -6.996   5.228  63.192  1.00  0.00    -0.038 A  
HETATM   39  C   UNL     1      -8.096   5.413  62.392  1.00  0.00    -0.094 A  
HETATM   40  N   UNL     1      -8.490   6.729  62.539  1.00  0.00    -0.338 NA 
HETATM   41  C   UNL     1      -7.639   7.396  63.399  1.00  0.00    -0.114 A  
HETATM   42  H   UNL     1      -9.296   7.150  62.076  1.00  0.00     0.000 HD 
HETATM   43  C   UNL     1      -7.677   8.669  63.969  1.00  0.00    -0.134 A  
HETATM   44  C   UNL     1      -6.676   8.977  64.908  1.00  0.00    -0.069 A  
HETATM   45  C   UNL     1      -5.761   8.015  65.357  1.00  0.00    -0.037 A  
HETATM   46  C   UNL     1      -5.868   6.695  64.908  1.00  0.00    -0.031 A  
HETATM   47  C   UNL     1      -5.395   5.466  65.684  1.00  0.00    -0.013 C  
HETATM   48  C   UNL     1      -6.706   6.465  63.804  1.00  0.00    -0.040 A  
HETATM   49  C   UNL     1      -5.631   5.615  67.204  1.00  0.00    -0.016 C  
ENDBRANCH  29  32
ENDBRANCH  27  29
ENDBRANCH  13  27
TORSDOF 5
ENDMDL
MODEL      140
REMARK 921   NORMALIZED FREE ENERGY PREDICTED BY IDOCK:   -2.00 KCAL/MOL
REMARK 922        TOTAL FREE ENERGY PREDICTED BY IDOCK:   -4.43 KCAL/MOL
REMARK 923 INTER-LIGAND FREE ENERGY PREDICTED BY IDOCK:   -5.24 KCAL/MOL
REMARK 924 INTRA-LIGAND FREE ENERGY PREDICTED BY IDOCK:    0.81 KCAL/MOL
REMARK 927      BINDING AFFINITY PREDICTED BY RF-SCORE:    0.00 PKD
ROOT
HETATM    1  C   UNL     1     -12.018   8.903  71.367  1.00  0.00    -0.311 C  
HETATM    2  C   UNL     1     -13.177   9.853  71.644  1.00  0.00    -0.519 C  
HETATM    3  C   UNL     1     -14.012   9.078  72.705  1.00  0.00    -0.381 C  
HETATM    4  C   UNL     1     -13.499   7.644  72.684  1.00  0.00     0.574 C  
HETATM    5  N   UNL     1     -12.562   7.604  71.586  1.00  0.00    -0.329 N  
HETATM    6  C   UNL     1     -11.698   6.539  71.576  1.00  0.00    -0.324 C  
HETATM    7  O   UNL     1     -12.130   5.434  71.887  1.00  0.00     0.368 OA 
HETATM    8  C   UNL     1     -10.245   6.847  71.050  1.00  0.00    -0.197 C  
HETATM    9  C   UNL     1     -10.831   9.037  70.332  1.00  0.00    -0.246 C  
HETATM   10  N   UNL     1      -9.816   8.358  71.060  1.00  0.00    -0.179 N  
HETATM   11  C   UNL     1      -8.742   8.870  70.321  1.00  0.00    -0.169 C  
HETATM   12  H   UNL     1      -9.919  10.515  69.572  1.00  0.00     0.000 HD 
HETATM   13  C   UNL     1      -9.002   8.500  68.833  1.00  0.00    -0.146 C  
HETATM   14  O   UNL     1      -7.846   9.533  70.810  1.00  0.00    -0.242 OA 
HETATM   15  O   UNL     1     -10.633  10.434  70.195  1.00  0.00    -0.273 OA 
HETATM   16  O   UNL     1     -10.547   8.400  69.047  1.00  0.00    -0.218 OA 
HETATM   17  C   UNL     1      -6.455   7.516  69.156  1.00  0.00    -0.040 C  
HETATM   18  C   UNL     1      -8.013   6.070  67.839  1.00  0.00    -0.106 C  
HETATM   19  C   UNL     1      -7.961   7.223  68.844  1.00  0.00    -0.123 C  
ENDROOT
BRANCH   8  20
HETATM   20  C   UNL     1      -9.304   5.809  71.691  1.00  0.00    -0.162 C  
BRANCH  20  21
HETATM   21  C   UNL     1      -8.443   6.448  72.803  1.00  0.00    -0.121 A  
HETATM   22  C   UNL     1      -6.241   7.327  73.295  1.00  0.00    -0.060 A  
HETATM   23  C   UNL     1      -8.141   8.218  74.444  1.00  0.00    -0.259 A  
HETATM   24  C   UNL     1      -8.967   7.299  73.803  1.00  0.00    -0.251 A  
HETATM   25  C   UNL     1      -6.790   8.271  74.166  1.00  0.00    -0.170 A  
HETATM   26  C   UNL     1      -7.056   6.422  72.622  1.00  0.00    -0.075 A  
ENDBRANCH  20  21
ENDBRANCH   8  20
BRANCH  13  27
HETATM   27  N   UNL     1      -8.737   9.559  67.825  1.00  0.00    -0.116 NA 
HETATM   28  H   UNL     1      -7.815   9.969  67.677  1.00  0.00     0.000 HD 
BRANCH  27  29
HETATM   29  C   UNL     1      -9.783   9.913  67.155  1.00  0.00    -0.178 C  
HETATM   30  H   UNL     1     -11.760  10.230  67.253  1.00  0.00     0.000 HD 
HETATM   31  O   UNL     1     -10.990   9.970  67.745  1.00  0.00    -0.283 OA 
BRANCH  29  32
HETATM   32  C   UNL     1      -9.901  10.273  65.673  1.00  0.00    -0.332 C  
HETATM   33  C   UNL     1     -11.270  10.756  65.200  1.00  0.00     0.450 C  
HETATM   34  N   UNL     1     -11.148  11.319  63.841  1.00  0.00    -0.334 NA 
HETATM   35  C   UNL     1     -10.318  12.566  63.741  1.00  0.00    -0.388 C  
HETATM   36  C   UNL     1     -12.409  11.349  63.123  1.00  0.00     0.391 C  
HETATM   37  C   UNL     1     -11.099  13.926  63.600  1.00  0.00     0.674 C  
HETATM   38  C   UNL     1     -11.771  14.194  64.894  1.00  0.00    -0.395 A  
HETATM   39  C   UNL     1     -13.066  14.470  65.256  1.00  0.00     0.182 A  
HETATM   40  N   UNL     1     -13.147  14.321  66.627  1.00  0.00     0.094 NA 
HETATM   41  C   UNL     1     -11.914  13.980  67.151  1.00  0.00    -0.430 A  
HETATM   42  H   UNL     1     -13.998  14.444  67.177  1.00  0.00     0.000 HD 
HETATM   43  C   UNL     1     -11.503  13.593  68.426  1.00  0.00    -0.346 A  
HETATM   44  C   UNL     1     -10.159  13.206  68.572  1.00  0.00    -0.203 A  
HETATM   45  C   UNL     1      -9.301  13.078  67.471  1.00  0.00    -0.200 A  
HETATM   46  C   UNL     1      -9.797  13.289  66.180  1.00  0.00    -0.286 A  
HETATM   47  C   UNL     1      -9.230  12.652  64.911  1.00  0.00     0.696 C  
HETATM   48  C   UNL     1     -11.056  13.904  66.075  1.00  0.00    -0.289 A  
HETATM   49  C   UNL     1      -8.756  11.202  65.153  1.00  0.00     0.005 C  
ENDBRANCH  29  32
ENDBRANCH  27  29
ENDBRANCH  13  27
TORSDOF 5
ENDMDL
MODEL      141
REMARK 921   NORMALIZED FREE ENERGY PREDICTED BY IDOCK:   -1.88 KCAL/MOL
REMARK 922        TOTAL FREE ENERGY PREDICTED BY IDOCK:   -4.27 KCAL/MOL
REMARK 923 INTER-LIGAND FREE ENERGY PREDICTED BY IDOCK:   -4.29 KCAL/MOL
REMARK 924 INTRA-LIGAND FREE ENERGY PREDICTED BY IDOCK:    0.02 KCAL/MOL
REMARK 927      BINDING AFFINITY PREDICTED BY RF-SCORE:    0.00 PKD
ROOT
HETATM    1  C   UNL     1      -7.095   7.713  71.592  1.00  0.00    -0.063 C  
HETATM    2  C   UNL     1      -6.380   8.334  72.787  1.00  0.00    -0.089 C  
HETATM    3  C   UNL     1      -6.109   7.106  73.703  1.00  0.00    -0.058 C  
HETATM    4  C   UNL     1      -6.980   5.977  73.169  1.00  0.00    -0.084 C  
HETATM    5  N   UNL     1      -7.782   6.588  72.135  1.00  0.00    -0.097 N  
HETATM    6  C   UNL     1      -8.386   5.724  71.258  1.00  0.00    -0.127 C  
HETATM    7  O   UNL     1      -8.870   4.688  71.699  1.00  0.00    -0.121 OA 
HETATM    8  C   UNL     1      -8.484   6.227  69.767  1.00  0.00    -0.126 C  
HETATM    9  C   UNL     1      -7.720   8.410  70.319  1.00  0.00    -0.080 C  
HETATM   10  N   UNL     1      -7.497   7.380  69.365  1.00  0.00    -0.089 N  
HETATM   11  C   UNL     1      -7.664   8.191  68.235  1.00  0.00    -0.114 C  
HETATM   12  H   UNL     1      -7.312   9.995  69.363  1.00  0.00     0.000 HD 
HETATM   13  C   UNL     1      -9.072   8.843  68.353  1.00  0.00    -0.137 C  
HETATM   14  O   UNL     1      -6.798   8.363  67.397  1.00  0.00    -0.068 OA 
HETATM   15  O   UNL     1      -6.936   9.577  70.130  1.00  0.00    -0.065 OA 
HETATM   16  O   UNL     1      -9.092   8.702  69.908  1.00  0.00    -0.145 OA 
HETATM   17  C   UNL     1      -9.230   7.758  65.831  1.00  0.00    -0.078 C  
HETATM   18  C   UNL     1     -11.283   7.523  67.241  1.00  0.00     0.271 C  
HETATM   19  C   UNL     1      -9.777   7.792  67.298  1.00  0.00    -0.224 C  
ENDROOT
BRANCH   8  20
HETATM   20  C   UNL     1      -8.560   4.975  68.874  1.00  0.00    -0.091 C  
BRANCH  20  21
HETATM   21  C   UNL     1      -7.222   4.731  68.139  1.00  0.00    -0.065 A  
HETATM   22  C   UNL     1      -5.793   3.005  67.223  1.00  0.00    -0.023 A  
HETATM   23  C   UNL     1      -5.786   5.181  66.229  1.00  0.00    -0.018 A  
HETATM   24  C   UNL     1      -6.673   5.634  67.200  1.00  0.00    -0.062 A  
HETATM   25  C   UNL     1      -5.376   3.864  66.204  1.00  0.00    -0.013 A  
HETATM   26  C   UNL     1      -6.704   3.432  68.184  1.00  0.00    -0.045 A  
ENDBRANCH  20  21
ENDBRANCH   8  20
BRANCH  13  27
HETATM   27  N   UNL     1      -9.170  10.286  68.012  1.00  0.00    -0.134 NA 
HETATM   28  H   UNL     1      -8.643  10.717  67.253  1.00  0.00     0.000 HD 
BRANCH  27  29
HETATM   29  C   UNL     1      -9.985  10.944  68.768  1.00  0.00    -0.195 C  
HETATM   30  H   UNL     1     -11.695  10.844  69.808  1.00  0.00     0.000 HD 
HETATM   31  O   UNL     1     -11.096  10.361  69.252  1.00  0.00    -0.225 OA 
BRANCH  29  32
HETATM   32  C   UNL     1      -9.916  12.405  69.216  1.00  0.00     0.516 C  
HETATM   33  C   UNL     1      -9.053  13.334  68.365  1.00  0.00    -0.137 C  
HETATM   34  N   UNL     1      -9.311  14.735  68.754  1.00  0.00    -0.198 NA 
HETATM   35  C   UNL     1     -10.698  15.231  68.461  1.00  0.00    -0.247 C  
HETATM   36  C   UNL     1      -8.234  15.634  68.383  1.00  0.00    -0.146 C  
HETATM   37  C   UNL     1     -10.864  16.165  67.204  1.00  0.00    -0.216 C  
HETATM   38  C   UNL     1     -10.653  15.333  65.996  1.00  0.00    -0.327 A  
HETATM   39  C   UNL     1      -9.833  15.435  64.900  1.00  0.00     0.261 A  
HETATM   40  N   UNL     1      -9.854  14.211  64.259  1.00  0.00    -0.359 NA 
HETATM   41  C   UNL     1     -10.699  13.336  64.914  1.00  0.00    -0.351 A  
HETATM   42  H   UNL     1      -9.320  13.985  63.419  1.00  0.00     0.000 HD 
HETATM   43  C   UNL     1     -10.959  11.975  64.755  1.00  0.00    -0.361 A  
HETATM   44  C   UNL     1     -11.817  11.376  65.695  1.00  0.00     0.563 A  
HETATM   45  C   UNL     1     -12.284  12.070  66.819  1.00  0.00     0.441 A  
HETATM   46  C   UNL     1     -11.851  13.379  67.053  1.00  0.00    -0.443 A  
HETATM   47  C   UNL     1     -11.762  14.038  68.430  1.00  0.00    -0.389 C  
HETATM   48  C   UNL     1     -11.200  14.033  65.993  1.00  0.00    -0.310 A  
HETATM   49  C   UNL     1     -11.311  13.041  69.521  1.00  0.00    -0.223 C  
ENDBRANCH  29  32
ENDBRANCH  27  29
ENDBRANCH  13  27
TORSDOF 5
ENDMDL
MODEL      142
REMARK 921   NORMALIZED FREE ENERGY PREDICTED BY IDOCK:   -1.88 KCAL/MOL
REMARK 922        TOTAL FREE ENERGY PREDICTED BY IDOCK:   -4.27 KCAL/MOL
REMARK 923 INTER-LIGAND FREE ENERGY PREDICTED BY IDOCK:   -5.13 KCAL/MOL
REMARK 924 INTRA-LIGAND FREE ENERGY PREDICTED BY IDOCK:    0.86 KCAL/MOL
REMARK 927      BINDING AFFINITY PREDICTED BY RF-SCORE:    0.00 PKD
ROOT
HETATM    1  C   UNL     1      -8.304   9.198  68.473  1.00  0.00    -0.123 C  
HETATM    2  C   UNL     1      -7.195   8.503  67.692  1.00  0.00    -0.084 C  
HETATM    3  C   UNL     1      -6.852   7.281  68.593  1.00  0.00    -0.076 C  
HETATM    4  C   UNL     1      -7.495   7.557  69.945  1.00  0.00    -0.084 C  
HETATM    5  N   UNL     1      -8.019   8.898  69.837  1.00  0.00    -0.102 N  
HETATM    6  C   UNL     1      -8.952   9.253  70.778  1.00  0.00    -0.232 C  
HETATM    7  O   UNL     1      -8.781   8.889  71.937  1.00  0.00    -0.343 OA 
HETATM    8  C   UNL     1     -10.106  10.198  70.269  1.00  0.00    -0.071 C  
HETATM    9  C   UNL     1      -9.061  10.549  68.162  1.00  0.00    -0.141 C  
HETATM   10  N   UNL     1     -10.331  10.231  68.715  1.00  0.00    -0.184 N  
HETATM   11  C   UNL     1     -11.036  11.242  68.049  1.00  0.00    -0.247 C  
HETATM   12  H   UNL     1      -9.492  11.467  66.560  1.00  0.00     0.000 HD 
HETATM   13  C   UNL     1     -10.348  12.588  68.420  1.00  0.00    -0.230 C  
HETATM   14  O   UNL     1     -11.957  11.028  67.284  1.00  0.00    -0.351 OA 
HETATM   15  O   UNL     1      -9.036  10.654  66.747  1.00  0.00    -0.150 OA 
HETATM   16  O   UNL     1      -8.983  11.895  68.728  1.00  0.00    -0.087 OA 
HETATM   17  C   UNL     1     -12.959  13.165  69.063  1.00  0.00     1.645 C  
HETATM   18  C   UNL     1     -11.238  13.999  70.675  1.00  0.00     0.329 C  
HETATM   19  C   UNL     1     -11.479  12.993  69.547  1.00  0.00    -0.289 C  
ENDROOT
BRANCH   8  20
HETATM   20  C   UNL     1     -11.320   9.961  71.186  1.00  0.00    -0.443 C  
BRANCH  20  21
HETATM   21  C   UNL     1     -11.571   8.451  71.401  1.00  0.00    -0.332 A  
HETATM   22  C   UNL     1     -11.135   6.256  70.479  1.00  0.00    -0.399 A  
HETATM   23  C   UNL     1     -11.405   6.500  72.843  1.00  0.00    -0.172 A  
HETATM   24  C   UNL     1     -11.680   7.854  72.678  1.00  0.00    -0.398 A  
HETATM   25  C   UNL     1     -11.089   5.704  71.760  1.00  0.00    -0.265 A  
HETATM   26  C   UNL     1     -11.376   7.614  70.297  1.00  0.00    -0.197 A  
ENDBRANCH  20  21
ENDBRANCH   8  20
BRANCH  13  27
HETATM   27  N   UNL     1     -10.142  13.559  67.313  1.00  0.00    -0.233 NA 
HETATM   28  H   UNL     1     -10.909  13.986  66.795  1.00  0.00     0.000 HD 
BRANCH  27  29
HETATM   29  C   UNL     1      -8.898  13.811  67.069  1.00  0.00    -0.218 C  
HETATM   30  H   UNL     1      -7.398  13.539  65.769  1.00  0.00     0.000 HD 
HETATM   31  O   UNL     1      -8.312  13.353  65.949  1.00  0.00     1.135 OA 
BRANCH  29  32
HETATM   32  C   UNL     1      -7.885  14.574  67.924  1.00  0.00    -0.153 C  
HETATM   33  C   UNL     1      -7.124  15.701  67.227  1.00  0.00    -0.207 C  
HETATM   34  N   UNL     1      -6.408  16.504  68.237  1.00  0.00    -0.125 NA 
HETATM   35  C   UNL     1      -7.288  17.257  69.193  1.00  0.00    -0.157 C  
HETATM   36  C   UNL     1      -5.301  17.260  67.680  1.00  0.00    -0.117 C  
HETATM   37  C   UNL     1      -7.453  18.802  68.935  1.00  0.00    -0.321 C  
HETATM   38  C   UNL     1      -8.254  18.966  67.698  1.00  0.00    -0.290 A  
HETATM   39  C   UNL     1      -8.066  19.656  66.526  1.00  0.00    -0.320 A  
HETATM   40  N   UNL     1      -9.002  19.189  65.623  1.00  0.00    -0.180 NA 
HETATM   41  C   UNL     1      -9.805  18.230  66.211  1.00  0.00    -0.321 A  
HETATM   42  H   UNL     1      -9.088  19.507  64.658  1.00  0.00     0.000 HD 
HETATM   43  C   UNL     1     -10.783  17.375  65.702  1.00  0.00    -0.113 A  
HETATM   44  C   UNL     1     -11.328  16.430  66.591  1.00  0.00     0.477 A  
HETATM   45  C   UNL     1     -10.824  16.256  67.887  1.00  0.00    -0.330 A  
HETATM   46  C   UNL     1      -9.714  16.998  68.303  1.00  0.00    -0.275 A  
HETATM   47  C   UNL     1      -8.713  16.552  69.370  1.00  0.00     0.066 C  
HETATM   48  C   UNL     1      -9.344  18.092  67.503  1.00  0.00    -0.258 A  
HETATM   49  C   UNL     1      -8.442  15.033  69.310  1.00  0.00    -0.167 C  
ENDBRANCH  29  32
ENDBRANCH  27  29
ENDBRANCH  13  27
TORSDOF 5
ENDMDL
MODEL      143
REMARK 921   NORMALIZED FREE ENERGY PREDICTED BY IDOCK:   -1.88 KCAL/MOL
REMARK 922        TOTAL FREE ENERGY PREDICTED BY IDOCK:   -4.27 KCAL/MOL
REMARK 923 INTER-LIGAND FREE ENERGY PREDICTED BY IDOCK:   -5.64 KCAL/MOL
REMARK 924 INTRA-LIGAND FREE ENERGY PREDICTED BY IDOCK:    1.37 KCAL/MOL
REMARK 927      BINDING AFFINITY PREDICTED BY RF-SCORE:    0.00 PKD
ROOT
HETATM    1  C   UNL     1      -8.361  12.370  68.351  1.00  0.00    -0.137 C  
HETATM    2  C   UNL     1      -7.753  13.419  69.275  1.00  0.00     0.385 C  
HETATM    3  C   UNL     1      -8.143  14.756  68.582  1.00  0.00    -0.153 C  
HETATM    4  C   UNL     1      -8.601  14.389  67.177  1.00  0.00    -0.218 C  
HETATM    5  N   UNL     1      -8.335  12.974  67.061  1.00  0.00    -0.142 N  
HETATM    6  C   UNL     1      -8.979  12.327  66.038  1.00  0.00     0.066 C  
HETATM    7  O   UNL     1      -9.074  12.895  64.955  1.00  0.00     0.647 OA 
HETATM    8  C   UNL     1      -9.440  10.852  66.350  1.00  0.00    -0.187 C  
HETATM    9  C   UNL     1      -8.278  10.793  68.424  1.00  0.00    -0.129 C  
HETATM   10  N   UNL     1      -9.548  10.473  67.870  1.00  0.00    -0.149 N  
HETATM   11  C   UNL     1      -9.585   9.156  68.346  1.00  0.00    -0.151 C  
HETATM   12  H   UNL     1      -8.093   9.558  69.851  1.00  0.00     0.000 HD 
HETATM   13  C   UNL     1      -8.308   8.448  67.809  1.00  0.00    -0.130 C  
HETATM   14  O   UNL     1     -10.448   8.736  69.094  1.00  0.00    -0.222 OA 
HETATM   15  O   UNL     1      -8.143  10.507  69.807  1.00  0.00    -0.116 OA 
HETATM   16  O   UNL     1      -7.527   9.793  67.668  1.00  0.00    -0.090 OA 
HETATM   17  C   UNL     1     -10.248   6.686  66.974  1.00  0.00    -0.288 C  
HETATM   18  C   UNL     1      -8.416   7.136  65.332  1.00  0.00    -0.090 C  
HETATM   19  C   UNL     1      -9.103   7.682  66.586  1.00  0.00    -0.198 C  
ENDROOT
BRANCH   8  20
HETATM   20  C   UNL     1     -10.634  10.548  65.427  1.00  0.00    -0.143 C  
BRANCH  20  21
HETATM   21  C   UNL     1     -11.634  11.726  65.401  1.00  0.00    -0.190 A  
HETATM   22  C   UNL     1     -12.401  13.654  66.649  1.00  0.00    -0.381 A  
HETATM   23  C   UNL     1     -12.513  13.685  64.260  1.00  0.00    -0.304 A  
HETATM   24  C   UNL     1     -12.042  12.377  64.214  1.00  0.00    -0.516 A  
HETATM   25  C   UNL     1     -12.653  14.346  65.463  1.00  0.00    -0.345 A  
HETATM   26  C   UNL     1     -11.900  12.356  66.622  1.00  0.00    -0.394 A  
ENDBRANCH  20  21
ENDBRANCH   8  20
BRANCH  13  27
HETATM   27  N   UNL     1      -7.575   7.579  68.766  1.00  0.00    -0.104 NA 
HETATM   28  H   UNL     1      -6.569   7.644  68.920  1.00  0.00     0.000 HD 
BRANCH  27  29
HETATM   29  C   UNL     1      -8.330   6.733  69.385  1.00  0.00    -0.132 C  
HETATM   30  H   UNL     1      -9.108   4.887  69.329  1.00  0.00     0.000 HD 
HETATM   31  O   UNL     1      -8.552   5.509  68.874  1.00  0.00    -0.100 OA 
BRANCH  29  32
HETATM   32  C   UNL     1      -9.110   6.913  70.689  1.00  0.00    -0.155 C  
HETATM   33  C   UNL     1      -9.881   5.694  71.190  1.00  0.00    -0.177 C  
HETATM   34  N   UNL     1     -10.339   5.939  72.571  1.00  0.00    -0.191 NA 
HETATM   35  C   UNL     1      -9.244   6.064  73.591  1.00  0.00    -0.127 C  
HETATM   36  C   UNL     1     -11.458   5.098  72.956  1.00  0.00    -0.274 C  
HETATM   37  C   UNL     1      -8.995   4.816  74.519  1.00  0.00    -0.111 C  
HETATM   38  C   UNL     1      -8.412   3.742  73.679  1.00  0.00    -0.087 A  
HETATM   39  C   UNL     1      -8.743   2.431  73.443  1.00  0.00    -0.070 A  
HETATM   40  N   UNL     1      -8.023   2.021  72.338  1.00  0.00    -0.052 NA 
HETATM   41  C   UNL     1      -7.214   3.043  71.880  1.00  0.00    -0.039 A  
HETATM   42  H   UNL     1      -8.080   1.092  71.918  1.00  0.00     0.000 HD 
HETATM   43  C   UNL     1      -6.417   3.182  70.744  1.00  0.00    -0.027 A  
HETATM   44  C   UNL     1      -5.807   4.434  70.542  1.00  0.00    -0.013 A  
HETATM   45  C   UNL     1      -6.090   5.535  71.359  1.00  0.00    -0.033 A  
HETATM   46  C   UNL     1      -7.042   5.416  72.377  1.00  0.00    -0.083 A  
HETATM   47  C   UNL     1      -7.875   6.570  72.936  1.00  0.00    -0.101 C  
HETATM   48  C   UNL     1      -7.452   4.115  72.715  1.00  0.00    -0.074 A  
HETATM   49  C   UNL     1      -8.281   7.576  71.836  1.00  0.00    -0.116 C  
ENDBRANCH  29  32
ENDBRANCH  27  29
ENDBRANCH  13  27
TORSDOF 5
ENDMDL
MODEL      144
REMARK 921   NORMALIZED FREE ENERGY PREDICTED BY IDOCK:   -1.84 KCAL/MOL
REMARK 922        TOTAL FREE ENERGY PREDICTED BY IDOCK:   -4.22 KCAL/MOL
REMARK 923 INTER-LIGAND FREE ENERGY PREDICTED BY IDOCK:   -7.90 KCAL/MOL
REMARK 924 INTRA-LIGAND FREE ENERGY PREDICTED BY IDOCK:    3.69 KCAL/MOL
REMARK 927      BINDING AFFINITY PREDICTED BY RF-SCORE:    0.00 PKD
ROOT
HETATM    1  C   UNL     1      -5.971  12.822  70.185  1.00  0.00    -0.135 C  
HETATM    2  C   UNL     1      -5.199  13.104  71.468  1.00  0.00    -0.166 C  
HETATM    3  C   UNL     1      -5.179  14.658  71.524  1.00  0.00    -0.148 C  
HETATM    4  C   UNL     1      -5.594  15.139  70.140  1.00  0.00    -0.129 C  
HETATM    5  N   UNL     1      -5.684  13.937  69.345  1.00  0.00    -0.086 N  
HETATM    6  C   UNL     1      -6.381  14.048  68.170  1.00  0.00    -0.128 C  
HETATM    7  O   UNL     1      -6.238  15.065  67.500  1.00  0.00    -0.276 OA 
HETATM    8  C   UNL     1      -7.223  12.782  67.755  1.00  0.00    -0.132 C  
HETATM    9  C   UNL     1      -6.295  11.441  69.486  1.00  0.00    -0.113 C  
HETATM   10  N   UNL     1      -7.552  11.768  68.909  1.00  0.00    -0.101 N  
HETATM   11  C   UNL     1      -7.959  10.445  68.694  1.00  0.00    -0.115 C  
HETATM   12  H   UNL     1      -6.548   9.677  70.132  1.00  0.00     0.000 HD 
HETATM   13  C   UNL     1      -6.862   9.773  67.821  1.00  0.00    -0.081 C  
HETATM   14  O   UNL     1      -8.961   9.962  69.188  1.00  0.00    -0.147 OA 
HETATM   15  O   UNL     1      -6.353  10.507  70.552  1.00  0.00    -0.175 OA 
HETATM   16  O   UNL     1      -5.758  10.766  68.307  1.00  0.00    -0.044 OA 
HETATM   17  C   UNL     1      -9.104   9.197  66.337  1.00  0.00    -0.211 C  
HETATM   18  C   UNL     1      -7.085   9.878  65.027  1.00  0.00    -0.131 C  
HETATM   19  C   UNL     1      -7.716   9.919  66.421  1.00  0.00    -0.104 C  
ENDROOT
BRANCH   8  20
HETATM   20  C   UNL     1      -8.372  13.278  66.859  1.00  0.00    -0.018 C  
BRANCH  20  21
HETATM   21  C   UNL     1      -9.603  13.682  67.702  1.00  0.00    -0.221 A  
HETATM   22  C   UNL     1     -10.654  15.542  68.841  1.00  0.00    -0.240 A  
HETATM   23  C   UNL     1     -12.021  13.806  67.926  1.00  0.00    -0.391 A  
HETATM   24  C   UNL     1     -10.884  13.106  67.538  1.00  0.00    -0.269 A  
HETATM   25  C   UNL     1     -11.920  15.041  68.535  1.00  0.00    -0.257 A  
HETATM   26  C   UNL     1      -9.505  14.871  68.433  1.00  0.00    -0.209 A  
ENDBRANCH  20  21
ENDBRANCH   8  20
BRANCH  13  27
HETATM   27  N   UNL     1      -6.454   8.396  68.205  1.00  0.00    -0.058 NA 
HETATM   28  H   UNL     1      -5.567   7.978  67.926  1.00  0.00     0.000 HD 
BRANCH  27  29
HETATM   29  C   UNL     1      -7.329   7.777  68.927  1.00  0.00    -0.086 C  
HETATM   30  H   UNL     1      -9.166   6.976  68.944  1.00  0.00     0.000 HD 
HETATM   31  O   UNL     1      -8.522   7.430  68.413  1.00  0.00    -0.124 OA 
BRANCH  29  32
HETATM   32  C   UNL     1      -7.248   7.370  70.400  1.00  0.00    -0.068 C  
HETATM   33  C   UNL     1      -8.360   7.891  71.308  1.00  0.00    -0.113 C  
HETATM   34  N   UNL     1      -8.296   7.195  72.608  1.00  0.00    -0.107 NA 
HETATM   35  C   UNL     1      -8.590   5.723  72.556  1.00  0.00    -0.120 C  
HETATM   36  C   UNL     1      -8.953   7.926  73.677  1.00  0.00    -0.275 C  
HETATM   37  C   UNL     1     -10.016   5.268  73.047  1.00  0.00    -0.188 C  
HETATM   38  C   UNL     1     -11.004   5.741  72.048  1.00  0.00    -0.317 A  
HETATM   39  C   UNL     1     -12.153   6.488  72.124  1.00  0.00    -0.264 A  
HETATM   40  N   UNL     1     -12.482   6.864  70.836  1.00  0.00    -0.503 NA 
HETATM   41  C   UNL     1     -11.574   6.343  69.933  1.00  0.00    -0.353 A  
HETATM   42  H   UNL     1     -13.282   7.445  70.586  1.00  0.00     0.000 HD 
HETATM   43  C   UNL     1     -11.385   6.536  68.565  1.00  0.00    -0.179 A  
HETATM   44  C   UNL     1     -10.266   5.913  67.982  1.00  0.00    -0.224 A  
HETATM   45  C   UNL     1      -9.306   5.245  68.753  1.00  0.00    -0.157 A  
HETATM   46  C   UNL     1      -9.423   5.233  70.146  1.00  0.00    -0.217 A  
HETATM   47  C   UNL     1      -8.254   5.099  71.122  1.00  0.00    -0.116 C  
HETATM   48  C   UNL     1     -10.656   5.641  70.684  1.00  0.00    -0.347 A  
HETATM   49  C   UNL     1      -6.996   5.844  70.622  1.00  0.00    -0.062 C  
ENDBRANCH  29  32
ENDBRANCH  27  29
ENDBRANCH  13  27
TORSDOF 5
ENDMDL
MODEL      145
REMARK 921   NORMALIZED FREE ENERGY PREDICTED BY IDOCK:   -1.82 KCAL/MOL
REMARK 922        TOTAL FREE ENERGY PREDICTED BY IDOCK:   -4.20 KCAL/MOL
REMARK 923 INTER-LIGAND FREE ENERGY PREDICTED BY IDOCK:   -4.80 KCAL/MOL
REMARK 924 INTRA-LIGAND FREE ENERGY PREDICTED BY IDOCK:    0.61 KCAL/MOL
REMARK 927      BINDING AFFINITY PREDICTED BY RF-SCORE:    0.00 PKD
ROOT
HETATM    1  C   UNL     1      -7.747   9.175  66.081  1.00  0.00    -0.095 C  
HETATM    2  C   UNL     1      -8.012   8.598  64.696  1.00  0.00    -0.141 C  
HETATM    3  C   UNL     1      -8.074   7.067  64.966  1.00  0.00    -0.119 C  
HETATM    4  C   UNL     1      -7.493   6.858  66.358  1.00  0.00    -0.074 C  
HETATM    5  N   UNL     1      -7.009   8.159  66.754  1.00  0.00    -0.072 N  
HETATM    6  C   UNL     1      -6.768   8.324  68.094  1.00  0.00    -0.065 C  
HETATM    7  O   UNL     1      -6.246   7.403  68.712  1.00  0.00    -0.029 OA 
HETATM    8  C   UNL     1      -7.099   9.752  68.673  1.00  0.00    -0.071 C  
HETATM    9  C   UNL     1      -7.498  10.674  66.518  1.00  0.00    -0.134 C  
HETATM   10  N   UNL     1      -8.077  10.631  67.815  1.00  0.00    -0.110 N  
HETATM   11  C   UNL     1      -8.211  12.018  67.958  1.00  0.00    -0.156 C  
HETATM   12  H   UNL     1      -8.068  12.347  65.832  1.00  0.00     0.000 HD 
HETATM   13  C   UNL     1      -6.793  12.629  67.766  1.00  0.00    -0.128 C  
HETATM   14  O   UNL     1      -9.278  12.577  68.128  1.00  0.00    -0.200 OA 
HETATM   15  O   UNL     1      -8.217  11.445  65.569  1.00  0.00     0.093 OA 
HETATM   16  O   UNL     1      -6.303  11.417  66.910  1.00  0.00    -0.109 OA 
HETATM   17  C   UNL     1      -7.498  13.750  70.176  1.00  0.00     1.130 C  
HETATM   18  C   UNL     1      -5.133  12.955  70.004  1.00  0.00    -0.089 C  
HETATM   19  C   UNL     1      -6.524  12.817  69.380  1.00  0.00    -0.096 C  
ENDROOT
BRANCH   8  20
HETATM   20  C   UNL     1      -7.392   9.573  70.174  1.00  0.00    -0.124 C  
BRANCH  20  21
HETATM   21  C   UNL     1      -8.738   8.846  70.398  1.00  0.00    -0.200 A  
HETATM   22  C   UNL     1      -9.927   7.376  71.910  1.00  0.00    -0.196 A  
HETATM   23  C   UNL     1     -11.157   8.967  70.615  1.00  0.00    -0.314 A  
HETATM   24  C   UNL     1      -9.985   9.369  69.983  1.00  0.00    -0.253 A  
HETATM   25  C   UNL     1     -11.134   8.008  71.607  1.00  0.00    -0.300 A  
HETATM   26  C   UNL     1      -8.739   7.786  71.311  1.00  0.00    -0.140 A  
ENDBRANCH  20  21
ENDBRANCH   8  20
BRANCH  13  27
HETATM   27  N   UNL     1      -6.702  13.857  66.934  1.00  0.00    -0.147 NA 
HETATM   28  H   UNL     1      -6.335  13.860  65.983  1.00  0.00     0.000 HD 
BRANCH  27  29
HETATM   29  C   UNL     1      -7.131  14.921  67.529  1.00  0.00    -0.189 C  
HETATM   30  H   UNL     1      -6.616  16.457  68.708  1.00  0.00     0.000 HD 
HETATM   31  O   UNL     1      -6.301  15.675  68.271  1.00  0.00    -0.102 OA 
BRANCH  29  32
HETATM   32  C   UNL     1      -8.547  15.497  67.567  1.00  0.00    -0.184 C  
HETATM   33  C   UNL     1      -8.814  16.569  68.622  1.00  0.00    -0.237 C  
HETATM   34  N   UNL     1     -10.115  17.210  68.350  1.00  0.00    -0.294 NA 
HETATM   35  C   UNL     1     -10.181  17.998  67.073  1.00  0.00    -0.362 C  
HETATM   36  C   UNL     1     -10.681  17.864  69.517  1.00  0.00     0.709 C  
HETATM   37  C   UNL     1     -10.098  19.565  67.203  1.00  0.00    -0.515 C  
HETATM   38  C   UNL     1      -8.717  19.907  67.618  1.00  0.00    -0.395 A  
HETATM   39  C   UNL     1      -8.187  20.647  68.646  1.00  0.00     0.762 A  
HETATM   40  N   UNL     1      -6.837  20.357  68.704  1.00  0.00    -0.225 NA 
HETATM   41  C   UNL     1      -6.491  19.464  67.708  1.00  0.00    -0.221 A  
HETATM   42  H   UNL     1      -6.187  20.748  69.386  1.00  0.00     0.000 HD 
HETATM   43  C   UNL     1      -5.314  18.769  67.429  1.00  0.00    -0.154 A  
HETATM   44  C   UNL     1      -5.359  17.839  66.374  1.00  0.00    -0.219 A  
HETATM   45  C   UNL     1      -6.555  17.518  65.720  1.00  0.00    -0.067 A  
HETATM   46  C   UNL     1      -7.755  18.092  66.151  1.00  0.00    -0.259 A  
HETATM   47  C   UNL     1      -9.137  17.459  65.987  1.00  0.00    -0.086 C  
HETATM   48  C   UNL     1      -7.658  19.185  67.029  1.00  0.00    -0.242 A  
HETATM   49  C   UNL     1      -9.095  15.925  66.168  1.00  0.00    -0.385 C  
ENDBRANCH  29  32
ENDBRANCH  27  29
ENDBRANCH  13  27
TORSDOF 5
ENDMDL
MODEL      146
REMARK 921   NORMALIZED FREE ENERGY PREDICTED BY IDOCK:   -1.76 KCAL/MOL
REMARK 922        TOTAL FREE ENERGY PREDICTED BY IDOCK:   -4.11 KCAL/MOL
REMARK 923 INTER-LIGAND FREE ENERGY PREDICTED BY IDOCK:   -3.58 KCAL/MOL
REMARK 924 INTRA-LIGAND FREE ENERGY PREDICTED BY IDOCK:   -0.53 KCAL/MOL
REMARK 927      BINDING AFFINITY PREDICTED BY RF-SCORE:    0.00 PKD
ROOT
HETATM    1  C   UNL     1      -9.917  15.357  67.295  1.00  0.00    -0.226 C  
HETATM    2  C   UNL     1     -11.322  15.712  66.822  1.00  0.00     0.013 C  
HETATM    3  C   UNL     1     -11.313  17.268  66.848  1.00  0.00     0.759 C  
HETATM    4  C   UNL     1     -10.087  17.671  67.657  1.00  0.00    -0.339 C  
HETATM    5  N   UNL     1      -9.554  16.428  68.163  1.00  0.00    -0.224 N  
HETATM    6  C   UNL     1      -8.261  16.473  68.617  1.00  0.00    -0.234 C  
HETATM    7  O   UNL     1      -7.901  17.454  69.259  1.00  0.00    -0.094 OA 
HETATM    8  C   UNL     1      -7.400  15.181  68.345  1.00  0.00    -0.115 C  
HETATM    9  C   UNL     1      -9.274  13.940  67.570  1.00  0.00    -0.205 C  
HETATM   10  N   UNL     1      -7.928  14.229  67.214  1.00  0.00    -0.191 N  
HETATM   11  C   UNL     1      -7.529  12.894  67.067  1.00  0.00     0.110 C  
HETATM   12  H   UNL     1      -9.564  12.211  66.848  1.00  0.00     0.000 HD 
HETATM   13  C   UNL     1      -7.835  12.182  68.416  1.00  0.00    -0.149 C  
HETATM   14  O   UNL     1      -7.100  12.431  66.027  1.00  0.00     1.071 OA 
HETATM   15  O   UNL     1      -9.950  13.064  66.683  1.00  0.00    -0.238 OA 
HETATM   16  O   UNL     1      -8.953  13.206  68.792  1.00  0.00    -0.011 OA 
HETATM   17  C   UNL     1      -5.187  11.515  68.086  1.00  0.00    -0.043 C  
HETATM   18  C   UNL     1      -5.865  12.138  70.412  1.00  0.00    -0.154 C  
HETATM   19  C   UNL     1      -6.275  12.249  68.942  1.00  0.00    -0.078 C  
ENDROOT
BRANCH   8  20
HETATM   20  C   UNL     1      -5.925  15.622  68.308  1.00  0.00    -0.117 C  
BRANCH  20  21
HETATM   21  C   UNL     1      -5.731  16.847  67.386  1.00  0.00    -0.181 A  
HETATM   22  C   UNL     1      -6.660  18.012  65.478  1.00  0.00    -0.156 A  
HETATM   23  C   UNL     1      -5.484  19.255  67.150  1.00  0.00    -0.164 A  
HETATM   24  C   UNL     1      -5.188  18.076  67.827  1.00  0.00    -0.143 A  
HETATM   25  C   UNL     1      -6.254  19.240  66.004  1.00  0.00    -0.207 A  
HETATM   26  C   UNL     1      -6.400  16.826  66.158  1.00  0.00     0.494 A  
ENDBRANCH  20  21
ENDBRANCH   8  20
BRANCH  13  27
HETATM   27  N   UNL     1      -8.447  10.830  68.334  1.00  0.00    -0.130 NA 
HETATM   28  H   UNL     1      -8.643  10.360  67.451  1.00  0.00     0.000 HD 
BRANCH  27  29
HETATM   29  C   UNL     1      -8.707  10.306  69.486  1.00  0.00    -0.139 C  
HETATM   30  H   UNL     1     -10.117  10.048  70.886  1.00  0.00     0.000 HD 
HETATM   31  O   UNL     1      -9.926  10.433  70.039  1.00  0.00    -0.156 OA 
BRANCH  29  32
HETATM   32  C   UNL     1      -7.778   9.532  70.423  1.00  0.00    -0.177 C  
HETATM   33  C   UNL     1      -8.451   8.743  71.544  1.00  0.00    -0.167 C  
HETATM   34  N   UNL     1      -7.462   7.845  72.173  1.00  0.00    -0.078 NA 
HETATM   35  C   UNL     1      -6.939   6.753  71.285  1.00  0.00    -0.074 C  
HETATM   36  C   UNL     1      -7.841   7.433  73.512  1.00  0.00    -0.110 C  
HETATM   37  C   UNL     1      -7.525   5.310  71.517  1.00  0.00    -0.096 C  
HETATM   38  C   UNL     1      -8.937   5.322  71.068  1.00  0.00    -0.159 A  
HETATM   39  C   UNL     1     -10.128   4.975  71.656  1.00  0.00    -0.196 A  
HETATM   40  N   UNL     1     -11.139   5.490  70.868  1.00  0.00    -0.128 NA 
HETATM   41  C   UNL     1     -10.612   6.137  69.767  1.00  0.00    -0.280 A  
HETATM   42  H   UNL     1     -12.135   5.403  71.070  1.00  0.00     0.000 HD 
HETATM   43  C   UNL     1     -11.187   6.921  68.767  1.00  0.00    -0.095 A  
HETATM   44  C   UNL     1     -10.309   7.524  67.847  1.00  0.00    -0.266 A  
HETATM   45  C   UNL     1      -8.918   7.460  67.999  1.00  0.00    -0.132 A  
HETATM   46  C   UNL     1      -8.373   6.827  69.121  1.00  0.00    -0.125 A  
HETATM   47  C   UNL     1      -7.014   7.157  69.738  1.00  0.00    -0.054 C  
HETATM   48  C   UNL     1      -9.242   6.032  69.887  1.00  0.00    -0.159 A  
HETATM   49  C   UNL     1      -6.705   8.670  69.682  1.00  0.00    -0.039 C  
ENDBRANCH  29  32
ENDBRANCH  27  29
ENDBRANCH  13  27
TORSDOF 5
ENDMDL
MODEL      147
REMARK 921   NORMALIZED FREE ENERGY PREDICTED BY IDOCK:   -1.66 KCAL/MOL
REMARK 922        TOTAL FREE ENERGY PREDICTED BY IDOCK:   -3.99 KCAL/MOL
REMARK 923 INTER-LIGAND FREE ENERGY PREDICTED BY IDOCK:   -4.64 KCAL/MOL
REMARK 924 INTRA-LIGAND FREE ENERGY PREDICTED BY IDOCK:    0.64 KCAL/MOL
REMARK 927      BINDING AFFINITY PREDICTED BY RF-SCORE:    0.00 PKD
ROOT
HETATM    1  C   UNL     1     -10.805  11.557  65.264  1.00  0.00    -0.259 C  
HETATM    2  C   UNL     1     -10.365  10.783  64.027  1.00  0.00    -0.357 C  
HETATM    3  C   UNL     1     -10.583  11.813  62.881  1.00  0.00     0.010 C  
HETATM    4  C   UNL     1     -11.446  12.923  63.466  1.00  0.00    -0.412 C  
HETATM    5  N   UNL     1     -11.800  12.457  64.785  1.00  0.00    -0.372 N  
HETATM    6  C   UNL     1     -12.268  13.413  65.651  1.00  0.00    -0.463 C  
HETATM    7  O   UNL     1     -13.029  14.271  65.217  1.00  0.00    -0.679 OA 
HETATM    8  C   UNL     1     -11.848  13.229  67.159  1.00  0.00    -0.374 C  
HETATM    9  C   UNL     1     -10.910  11.079  66.767  1.00  0.00    -0.251 C  
HETATM   10  N   UNL     1     -10.604  12.306  67.418  1.00  0.00    -0.219 N  
HETATM   11  C   UNL     1     -10.299  11.737  68.661  1.00  0.00    -0.214 C  
HETATM   12  H   UNL     1      -9.979   9.787  67.796  1.00  0.00     0.000 HD 
HETATM   13  C   UNL     1     -11.548  10.921  69.101  1.00  0.00    -0.319 C  
HETATM   14  O   UNL     1      -9.214  11.845  69.201  1.00  0.00     0.196 OA 
HETATM   15  O   UNL     1      -9.916  10.074  66.892  1.00  0.00    -0.190 OA 
HETATM   16  O   UNL     1     -12.036  10.727  67.630  1.00  0.00    -0.411 OA 
HETATM   17  C   UNL     1     -11.163  12.488  71.328  1.00  0.00     3.238 C  
HETATM   18  C   UNL     1     -13.541  12.187  70.614  1.00  0.00     1.591 C  
HETATM   19  C   UNL     1     -12.092  12.083  70.133  1.00  0.00    -0.377 C  
ENDROOT
BRANCH   8  20
HETATM   20  C   UNL     1     -11.880  14.624  67.809  1.00  0.00    -0.359 C  
BRANCH  20  21
HETATM   21  C   UNL     1     -10.452  15.192  67.983  1.00  0.00    -0.247 A  
HETATM   22  C   UNL     1      -8.616  16.234  66.798  1.00  0.00    -0.273 A  
HETATM   23  C   UNL     1      -8.950  16.734  69.114  1.00  0.00    -0.115 A  
HETATM   24  C   UNL     1     -10.005  15.828  69.163  1.00  0.00    -0.241 A  
HETATM   25  C   UNL     1      -8.280  16.977  67.932  1.00  0.00    -0.200 A  
HETATM   26  C   UNL     1      -9.689  15.347  66.821  1.00  0.00    -0.254 A  
ENDBRANCH  20  21
ENDBRANCH   8  20
BRANCH  13  27
HETATM   27  N   UNL     1     -11.295   9.580  69.691  1.00  0.00    -0.429 NA 
HETATM   28  H   UNL     1     -11.749   8.730  69.358  1.00  0.00     0.000 HD 
BRANCH  27  29
HETATM   29  C   UNL     1     -10.445   9.592  70.664  1.00  0.00    -0.308 C  
HETATM   30  H   UNL     1     -10.171  10.066  72.592  1.00  0.00     0.000 HD 
HETATM   31  O   UNL     1     -10.796  10.057  71.876  1.00  0.00     0.522 OA 
BRANCH  29  32
HETATM   32  C   UNL     1      -8.976   9.165  70.664  1.00  0.00    -0.292 C  
HETATM   33  C   UNL     1      -8.428   8.629  71.985  1.00  0.00    -0.122 C  
HETATM   34  N   UNL     1      -7.108   8.011  71.752  1.00  0.00    -0.069 NA 
HETATM   35  C   UNL     1      -7.125   6.780  70.891  1.00  0.00    -0.068 C  
HETATM   36  C   UNL     1      -6.303   7.919  72.956  1.00  0.00    -0.070 C  
HETATM   37  C   UNL     1      -6.989   5.397  71.631  1.00  0.00    -0.067 C  
HETATM   38  C   UNL     1      -8.241   5.170  72.391  1.00  0.00    -0.117 A  
HETATM   39  C   UNL     1      -8.521   4.879  73.703  1.00  0.00    -0.105 A  
HETATM   40  N   UNL     1      -9.874   5.086  73.888  1.00  0.00    -0.147 NA 
HETATM   41  C   UNL     1     -10.470   5.478  72.704  1.00  0.00    -0.215 A  
HETATM   42  H   UNL     1     -10.365   4.966  74.774  1.00  0.00     0.000 HD 
HETATM   43  C   UNL     1     -11.753   5.930  72.396  1.00  0.00    -0.307 A  
HETATM   44  C   UNL     1     -11.979   6.356  71.074  1.00  0.00    -0.265 A  
HETATM   45  C   UNL     1     -10.938   6.455  70.141  1.00  0.00    -0.395 A  
HETATM   46  C   UNL     1      -9.626   6.177  70.536  1.00  0.00    -0.192 A  
HETATM   47  C   UNL     1      -8.374   6.772  69.891  1.00  0.00    -0.135 C  
HETATM   48  C   UNL     1      -9.457   5.528  71.771  1.00  0.00    -0.175 A  
HETATM   49  C   UNL     1      -8.584   8.242  69.466  1.00  0.00    -0.134 C  
ENDBRANCH  29  32
ENDBRANCH  27  29
ENDBRANCH  13  27
TORSDOF 5
ENDMDL
MODEL      148
REMARK 921   NORMALIZED FREE ENERGY PREDICTED BY IDOCK:   -1.59 KCAL/MOL
REMARK 922        TOTAL FREE ENERGY PREDICTED BY IDOCK:   -3.90 KCAL/MOL
REMARK 923 INTER-LIGAND FREE ENERGY PREDICTED BY IDOCK:   -4.83 KCAL/MOL
REMARK 924 INTRA-LIGAND FREE ENERGY PREDICTED BY IDOCK:    0.93 KCAL/MOL
REMARK 927      BINDING AFFINITY PREDICTED BY RF-SCORE:    0.00 PKD
ROOT
HETATM    1  C   UNL     1     -11.431  11.145  70.065  1.00  0.00    -0.292 C  
HETATM    2  C   UNL     1     -11.437  12.666  69.966  1.00  0.00    -0.090 C  
HETATM    3  C   UNL     1     -12.517  13.075  71.009  1.00  0.00    -0.385 C  
HETATM    4  C   UNL     1     -13.285  11.803  71.345  1.00  0.00    -0.097 C  
HETATM    5  N   UNL     1     -12.764  10.807  70.439  1.00  0.00    -0.310 N  
HETATM    6  C   UNL     1     -13.024   9.503  70.771  1.00  0.00    -0.022 C  
HETATM    7  O   UNL     1     -14.132   9.223  71.216  1.00  0.00    -0.249 OA 
HETATM    8  C   UNL     1     -11.878   8.474  70.435  1.00  0.00     0.086 C  
HETATM    9  C   UNL     1     -10.614  10.084  69.226  1.00  0.00    -0.227 C  
HETATM   10  N   UNL     1     -10.447   9.085  70.223  1.00  0.00    -0.204 N  
HETATM   11  C   UNL     1      -9.399   8.413  69.580  1.00  0.00    -0.161 C  
HETATM   12  H   UNL     1      -8.932  10.123  68.352  1.00  0.00     0.000 HD 
HETATM   13  C   UNL     1      -9.918   8.016  68.169  1.00  0.00    -0.185 C  
HETATM   14  O   UNL     1      -8.294   8.269  70.069  1.00  0.00    -0.117 OA 
HETATM   15  O   UNL     1      -9.423  10.761  68.857  1.00  0.00    -0.179 OA 
HETATM   16  O   UNL     1     -10.976   9.164  68.149  1.00  0.00    -0.111 OA 
HETATM   17  C   UNL     1      -9.018   5.581  69.076  1.00  0.00    -0.118 C  
HETATM   18  C   UNL     1     -11.185   5.537  67.830  1.00  0.00     0.713 C  
HETATM   19  C   UNL     1     -10.224   6.453  68.590  1.00  0.00    -0.201 C  
ENDROOT
BRANCH   8  20
HETATM   20  C   UNL     1     -12.038   7.288  71.404  1.00  0.00    -0.370 C  
BRANCH  20  21
HETATM   21  C   UNL     1     -10.929   7.293  72.480  1.00  0.00    -0.322 A  
HETATM   22  C   UNL     1      -9.136   5.972  73.431  1.00  0.00    -0.131 A  
HETATM   23  C   UNL     1      -8.964   8.358  73.438  1.00  0.00    -0.166 A  
HETATM   24  C   UNL     1     -10.233   8.458  72.878  1.00  0.00    -0.154 A  
HETATM   25  C   UNL     1      -8.389   7.126  73.676  1.00  0.00    -0.161 A  
HETATM   26  C   UNL     1     -10.395   6.051  72.842  1.00  0.00    -0.219 A  
ENDBRANCH  20  21
ENDBRANCH   8  20
BRANCH  13  27
HETATM   27  N   UNL     1      -8.983   8.222  67.032  1.00  0.00    -0.136 NA 
HETATM   28  H   UNL     1      -9.286   8.533  66.110  1.00  0.00     0.000 HD 
BRANCH  27  29
HETATM   29  C   UNL     1      -7.749   7.969  67.321  1.00  0.00    -0.101 C  
HETATM   30  H   UNL     1      -6.030   8.756  67.987  1.00  0.00     0.000 HD 
HETATM   31  O   UNL     1      -6.937   8.941  67.773  1.00  0.00    -0.073 OA 
BRANCH  29  32
HETATM   32  C   UNL     1      -6.980   6.653  67.193  1.00  0.00    -0.071 C  
HETATM   33  C   UNL     1      -7.692   5.522  66.454  1.00  0.00    -0.099 C  
HETATM   34  N   UNL     1      -6.730   4.438  66.175  1.00  0.00    -0.049 NA 
HETATM   35  C   UNL     1      -5.627   4.796  65.221  1.00  0.00    -0.014 C  
HETATM   36  C   UNL     1      -7.371   3.158  65.937  1.00  0.00    -0.072 C  
HETATM   37  C   UNL     1      -5.764   4.259  63.747  1.00  0.00    -0.014 C  
HETATM   38  C   UNL     1      -6.880   4.994  63.104  1.00  0.00    -0.034 A  
HETATM   39  C   UNL     1      -8.020   4.608  62.444  1.00  0.00    -0.068 A  
HETATM   40  N   UNL     1      -8.828   5.724  62.339  1.00  0.00    -0.330 NA 
HETATM   41  C   UNL     1      -8.207   6.825  62.897  1.00  0.00     0.032 A  
HETATM   42  H   UNL     1      -9.753   5.734  61.909  1.00  0.00     0.000 HD 
HETATM   43  C   UNL     1      -8.644   8.123  63.162  1.00  0.00     0.183 A  
HETATM   44  C   UNL     1      -7.756   8.965  63.857  1.00  0.00    -0.129 A  
HETATM   45  C   UNL     1      -6.547   8.492  64.383  1.00  0.00    -0.067 A  
HETATM   46  C   UNL     1      -6.224   7.136  64.267  1.00  0.00    -0.037 A  
HETATM   47  C   UNL     1      -5.320   6.366  65.230  1.00  0.00    -0.017 C  
HETATM   48  C   UNL     1      -6.994   6.374  63.371  1.00  0.00    -0.047 A  
HETATM   49  C   UNL     1      -5.509   6.825  66.692  1.00  0.00    -0.017 C  
ENDBRANCH  29  32
ENDBRANCH  27  29
ENDBRANCH  13  27
TORSDOF 5
ENDMDL
MODEL      149
REMARK 921   NORMALIZED FREE ENERGY PREDICTED BY IDOCK:   -1.58 KCAL/MOL
REMARK 922        TOTAL FREE ENERGY PREDICTED BY IDOCK:   -3.89 KCAL/MOL
REMARK 923 INTER-LIGAND FREE ENERGY PREDICTED BY IDOCK:   -3.87 KCAL/MOL
REMARK 924 INTRA-LIGAND FREE ENERGY PREDICTED BY IDOCK:   -0.02 KCAL/MOL
REMARK 927      BINDING AFFINITY PREDICTED BY RF-SCORE:    0.00 PKD
ROOT
HETATM    1  C   UNL     1      -7.291   9.173  67.515  1.00  0.00    -0.084 C  
HETATM    2  C   UNL     1      -6.147   9.557  66.584  1.00  0.00    -0.064 C  
HETATM    3  C   UNL     1      -5.166   8.358  66.730  1.00  0.00    -0.032 C  
HETATM    4  C   UNL     1      -5.619   7.587  67.963  1.00  0.00    -0.027 C  
HETATM    5  N   UNL     1      -6.673   8.392  68.534  1.00  0.00    -0.062 N  
HETATM    6  C   UNL     1      -7.488   7.757  69.437  1.00  0.00    -0.088 C  
HETATM    7  O   UNL     1      -6.979   6.982  70.239  1.00  0.00    -0.062 OA 
HETATM    8  C   UNL     1      -9.003   8.189  69.405  1.00  0.00    -0.147 C  
HETATM    9  C   UNL     1      -8.592   9.984  67.900  1.00  0.00    -0.121 C  
HETATM   10  N   UNL     1      -9.489   8.897  68.090  1.00  0.00    -0.142 N  
HETATM   11  C   UNL     1     -10.660   9.660  68.001  1.00  0.00    -0.243 C  
HETATM   12  H   UNL     1      -9.645  11.274  66.993  1.00  0.00     0.000 HD 
HETATM   13  C   UNL     1     -10.557  10.773  69.083  1.00  0.00    -0.222 C  
HETATM   14  O   UNL     1     -11.521   9.473  67.161  1.00  0.00     0.430 OA 
HETATM   15  O   UNL     1      -8.862  10.786  66.762  1.00  0.00    -0.138 OA 
HETATM   16  O   UNL     1      -8.995  10.723  69.094  1.00  0.00    -0.159 OA 
HETATM   17  C   UNL     1     -13.009   9.695  69.706  1.00  0.00     1.306 C  
HETATM   18  C   UNL     1     -11.552  10.270  71.656  1.00  0.00     0.119 C  
HETATM   19  C   UNL     1     -11.537   9.991  70.151  1.00  0.00    -0.320 C  
ENDROOT
BRANCH   8  20
HETATM   20  C   UNL     1      -9.821   7.004  69.951  1.00  0.00    -0.173 C  
BRANCH  20  21
HETATM   21  C   UNL     1     -10.003   5.909  68.876  1.00  0.00    -0.201 A  
HETATM   22  C   UNL     1     -10.711   5.522  66.593  1.00  0.00    -0.332 A  
HETATM   23  C   UNL     1      -9.036   4.110  67.555  1.00  0.00    -0.161 A  
HETATM   24  C   UNL     1      -9.166   4.774  68.771  1.00  0.00    -0.170 A  
HETATM   25  C   UNL     1      -9.768   4.502  66.452  1.00  0.00    -0.218 A  
HETATM   26  C   UNL     1     -10.832   6.218  67.792  1.00  0.00    -0.424 A  
ENDBRANCH  20  21
ENDBRANCH   8  20
BRANCH  13  27
HETATM   27  N   UNL     1     -10.978  12.139  68.677  1.00  0.00    -0.233 NA 
HETATM   28  H   UNL     1     -11.082  12.425  67.704  1.00  0.00     0.000 HD 
BRANCH  27  29
HETATM   29  C   UNL     1     -11.202  12.931  69.673  1.00  0.00    -0.002 C  
HETATM   30  H   UNL     1     -12.406  13.300  71.232  1.00  0.00     0.000 HD 
HETATM   31  O   UNL     1     -12.242  12.718  70.499  1.00  0.00    -0.368 OA 
BRANCH  29  32
HETATM   32  C   UNL     1     -10.447  14.195  70.087  1.00  0.00     0.694 C  
HETATM   33  C   UNL     1      -9.189  14.524  69.286  1.00  0.00     0.110 C  
HETATM   34  N   UNL     1      -8.743  15.892  69.616  1.00  0.00    -0.096 NA 
HETATM   35  C   UNL     1      -9.682  16.986  69.198  1.00  0.00    -0.165 C  
HETATM   36  C   UNL     1      -7.342  16.121  69.312  1.00  0.00    -0.231 C  
HETATM   37  C   UNL     1      -9.291  17.800  67.908  1.00  0.00    -0.266 C  
HETATM   38  C   UNL     1      -9.448  16.897  66.743  1.00  0.00    -0.269 A  
HETATM   39  C   UNL     1      -8.622  16.514  65.716  1.00  0.00     0.186 A  
HETATM   40  N   UNL     1      -9.208  15.421  65.107  1.00  0.00     0.043 NA 
HETATM   41  C   UNL     1     -10.412  15.117  65.713  1.00  0.00    -0.339 A  
HETATM   42  H   UNL     1      -8.808  14.909  64.320  1.00  0.00     0.000 HD 
HETATM   43  C   UNL     1     -11.302  14.052  65.567  1.00  0.00    -0.313 A  
HETATM   44  C   UNL     1     -12.397  14.012  66.449  1.00  0.00    -0.468 A  
HETATM   45  C   UNL     1     -12.525  14.915  67.513  1.00  0.00     0.564 A  
HETATM   46  C   UNL     1     -11.516  15.854  67.748  1.00  0.00    -0.128 A  
HETATM   47  C   UNL     1     -11.194  16.470  69.110  1.00  0.00    -0.221 C  
HETATM   48  C   UNL     1     -10.566  16.036  66.729  1.00  0.00    -0.297 A  
HETATM   49  C   UNL     1     -11.359  15.451  70.260  1.00  0.00    -0.332 C  
ENDBRANCH  29  32
ENDBRANCH  27  29
ENDBRANCH  13  27
TORSDOF 5
ENDMDL
MODEL      150
REMARK 921   NORMALIZED FREE ENERGY PREDICTED BY IDOCK:   -1.56 KCAL/MOL
REMARK 922        TOTAL FREE ENERGY PREDICTED BY IDOCK:   -3.86 KCAL/MOL
REMARK 923 INTER-LIGAND FREE ENERGY PREDICTED BY IDOCK:   -5.79 KCAL/MOL
REMARK 924 INTRA-LIGAND FREE ENERGY PREDICTED BY IDOCK:    1.93 KCAL/MOL
REMARK 927      BINDING AFFINITY PREDICTED BY RF-SCORE:    0.00 PKD
ROOT
HETATM    1  C   UNL     1      -7.715   3.969  71.686  1.00  0.00    -0.065 C  
HETATM    2  C   UNL     1      -7.151   4.149  73.091  1.00  0.00    -0.067 C  
HETATM    3  C   UNL     1      -7.400   2.759  73.744  1.00  0.00    -0.045 C  
HETATM    4  C   UNL     1      -8.383   2.033  72.835  1.00  0.00    -0.058 C  
HETATM    5  N   UNL     1      -8.760   3.013  71.844  1.00  0.00    -0.076 N  
HETATM    6  C   UNL     1      -9.351   2.518  70.709  1.00  0.00    -0.143 C  
HETATM    7  O   UNL     1     -10.161   1.604  70.823  1.00  0.00     0.029 OA 
HETATM    8  C   UNL     1      -8.990   3.270  69.372  1.00  0.00    -0.114 C  
HETATM    9  C   UNL     1      -7.852   5.018  70.512  1.00  0.00    -0.074 C  
HETATM   10  N   UNL     1      -7.686   4.143  69.405  1.00  0.00    -0.054 N  
HETATM   11  C   UNL     1      -7.393   5.146  68.472  1.00  0.00    -0.070 C  
HETATM   12  H   UNL     1      -6.864   6.558  70.014  1.00  0.00     0.000 HD 
HETATM   13  C   UNL     1      -8.587   6.144  68.494  1.00  0.00    -0.113 C  
HETATM   14  O   UNL     1      -6.349   5.201  67.849  1.00  0.00    -0.037 OA 
HETATM   15  O   UNL     1      -6.782   5.927  70.720  1.00  0.00    -0.049 OA 
HETATM   16  O   UNL     1      -8.984   5.755  69.954  1.00  0.00    -0.128 OA 
HETATM   17  C   UNL     1      -8.448   5.590  65.804  1.00  0.00    -0.134 C  
HETATM   18  C   UNL     1     -10.754   5.718  66.765  1.00  0.00    -0.369 C  
HETATM   19  C   UNL     1      -9.279   5.532  67.131  1.00  0.00    -0.111 C  
ENDROOT
BRANCH   8  20
HETATM   20  C   UNL     1      -9.174   2.261  68.223  1.00  0.00    -0.243 C  
BRANCH  20  21
HETATM   21  C   UNL     1      -7.816   1.887  67.586  1.00  0.00    -0.059 A  
HETATM   22  C   UNL     1      -6.403   2.266  65.657  1.00  0.00    -0.024 A  
HETATM   23  C   UNL     1      -5.394   1.770  67.768  1.00  0.00    -0.013 A  
HETATM   24  C   UNL     1      -6.653   1.607  68.338  1.00  0.00    -0.029 A  
HETATM   25  C   UNL     1      -5.258   2.142  66.446  1.00  0.00    -0.005 A  
HETATM   26  C   UNL     1      -7.671   2.137  66.217  1.00  0.00    -0.071 A  
ENDBRANCH  20  21
ENDBRANCH   8  20
BRANCH  13  27
HETATM   27  N   UNL     1      -8.248   7.591  68.471  1.00  0.00    -0.124 NA 
HETATM   28  H   UNL     1      -8.590   8.255  69.164  1.00  0.00     0.000 HD 
BRANCH  27  29
HETATM   29  C   UNL     1      -7.479   7.929  67.490  1.00  0.00    -0.093 C  
HETATM   30  H   UNL     1      -5.758   7.524  66.545  1.00  0.00     0.000 HD 
HETATM   31  O   UNL     1      -6.324   7.276  67.266  1.00  0.00    -0.050 OA 
BRANCH  29  32
HETATM   32  C   UNL     1      -7.653   9.060  66.475  1.00  0.00    -0.089 C  
HETATM   33  C   UNL     1      -9.090   9.450  66.136  1.00  0.00    -0.171 C  
HETATM   34  N   UNL     1      -9.087  10.715  65.375  1.00  0.00    -0.182 NA 
HETATM   35  C   UNL     1      -8.603  11.915  66.139  1.00  0.00     0.052 C  
HETATM   36  C   UNL     1     -10.298  10.915  64.601  1.00  0.00    -0.338 C  
HETATM   37  C   UNL     1      -9.704  12.912  66.660  1.00  0.00    -0.254 C  
HETATM   38  C   UNL     1     -10.450  12.229  67.744  1.00  0.00    -0.225 A  
HETATM   39  C   UNL     1     -11.780  11.980  67.975  1.00  0.00    -0.331 A  
HETATM   40  N   UNL     1     -11.850  11.040  68.985  1.00  0.00    -0.360 NA 
HETATM   41  C   UNL     1     -10.583  10.706  69.424  1.00  0.00    -0.239 A  
HETATM   42  H   UNL     1     -12.716  10.647  69.356  1.00  0.00     0.000 HD 
HETATM   43  C   UNL     1     -10.114   9.732  70.305  1.00  0.00    -0.323 A  
HETATM   44  C   UNL     1      -8.718   9.604  70.430  1.00  0.00    -0.213 A  
HETATM   45  C   UNL     1      -7.833  10.320  69.613  1.00  0.00    -0.168 A  
HETATM   46  C   UNL     1      -8.338  11.148  68.605  1.00  0.00    -0.154 A  
HETATM   47  C   UNL     1      -7.600  11.506  67.315  1.00  0.00    -0.143 C  
HETATM   48  C   UNL     1      -9.710  11.447  68.655  1.00  0.00    -0.182 A  
HETATM   49  C   UNL     1      -6.775  10.318  66.772  1.00  0.00    -0.083 C  
ENDBRANCH  29  32
ENDBRANCH  27  29
ENDBRANCH  13  27
TORSDOF 5
ENDMDL
MODEL      151
REMARK 921   NORMALIZED FREE ENERGY PREDICTED BY IDOCK:   -1.52 KCAL/MOL
REMARK 922        TOTAL FREE ENERGY PREDICTED BY IDOCK:   -3.80 KCAL/MOL
REMARK 923 INTER-LIGAND FREE ENERGY PREDICTED BY IDOCK:   -7.04 KCAL/MOL
REMARK 924 INTRA-LIGAND FREE ENERGY PREDICTED BY IDOCK:    3.24 KCAL/MOL
REMARK 927      BINDING AFFINITY PREDICTED BY RF-SCORE:    0.00 PKD
ROOT
HETATM    1  C   UNL     1      -9.203   4.121  72.281  1.00  0.00    -0.121 C  
HETATM    2  C   UNL     1      -8.507   3.095  73.168  1.00  0.00    -0.081 C  
HETATM    3  C   UNL     1      -9.325   3.170  74.489  1.00  0.00    -0.110 C  
HETATM    4  C   UNL     1     -10.157   4.443  74.402  1.00  0.00    -0.206 C  
HETATM    5  N   UNL     1      -9.711   5.092  73.192  1.00  0.00    -0.147 N  
HETATM    6  C   UNL     1     -10.541   6.064  72.695  1.00  0.00    -0.219 C  
HETATM    7  O   UNL     1     -11.085   6.828  73.484  1.00  0.00    -0.179 OA 
HETATM    8  C   UNL     1     -10.616   6.155  71.123  1.00  0.00    -0.246 C  
HETATM    9  C   UNL     1      -8.837   4.606  70.822  1.00  0.00    -0.119 C  
HETATM   10  N   UNL     1     -10.146   4.879  70.338  1.00  0.00    -0.247 N  
HETATM   11  C   UNL     1      -9.800   4.880  68.980  1.00  0.00    -0.180 C  
HETATM   12  H   UNL     1      -7.982   3.778  69.346  1.00  0.00     0.000 HD 
HETATM   13  C   UNL     1      -8.676   5.940  68.804  1.00  0.00    -0.109 C  
HETATM   14  O   UNL     1     -10.281   4.116  68.164  1.00  0.00     0.097 OA 
HETATM   15  O   UNL     1      -8.202   3.487  70.223  1.00  0.00    -0.055 OA 
HETATM   16  O   UNL     1      -8.224   5.823  70.295  1.00  0.00    -0.106 OA 
HETATM   17  C   UNL     1     -10.457   6.773  66.881  1.00  0.00    -0.350 C  
HETATM   18  C   UNL     1      -9.380   8.591  68.219  1.00  0.00    -0.143 C  
HETATM   19  C   UNL     1      -9.691   7.093  68.210  1.00  0.00    -0.148 C  
ENDROOT
BRANCH   8  20
HETATM   20  C   UNL     1     -11.980   6.776  70.772  1.00  0.00    -0.433 C  
BRANCH  20  21
HETATM   21  C   UNL     1     -12.047   8.259  71.204  1.00  0.00    -0.274 A  
HETATM   22  C   UNL     1     -11.449  10.508  70.538  1.00  0.00    -0.433 A  
HETATM   23  C   UNL     1     -13.387  10.165  71.897  1.00  0.00    -0.505 A  
HETATM   24  C   UNL     1     -13.111   8.803  71.959  1.00  0.00    -0.436 A  
HETATM   25  C   UNL     1     -12.592  11.017  71.157  1.00  0.00    -0.522 A  
HETATM   26  C   UNL     1     -11.174   9.144  70.562  1.00  0.00    -0.309 A  
ENDBRANCH  20  21
ENDBRANCH   8  20
BRANCH  13  27
HETATM   27  N   UNL     1      -7.530   5.559  67.937  1.00  0.00    -0.079 NA 
HETATM   28  H   UNL     1      -6.925   6.241  67.481  1.00  0.00     0.000 HD 
BRANCH  27  29
HETATM   29  C   UNL     1      -7.372   4.283  67.815  1.00  0.00    -0.068 C  
HETATM   30  H   UNL     1      -6.595   2.641  68.662  1.00  0.00     0.000 HD 
HETATM   31  O   UNL     1      -6.711   3.580  68.751  1.00  0.00    -0.043 OA 
BRANCH  29  32
HETATM   32  C   UNL     1      -7.814   3.363  66.675  1.00  0.00    -0.081 C  
HETATM   33  C   UNL     1      -8.871   3.922  65.725  1.00  0.00    -0.125 C  
HETATM   34  N   UNL     1      -8.981   3.043  64.545  1.00  0.00    -0.111 NA 
HETATM   35  C   UNL     1      -7.761   2.995  63.671  1.00  0.00    -0.068 C  
HETATM   36  C   UNL     1     -10.245   3.187  63.845  1.00  0.00    -0.194 C  
HETATM   37  C   UNL     1      -7.817   3.821  62.331  1.00  0.00    -0.062 C  
HETATM   38  C   UNL     1      -7.793   5.259  62.690  1.00  0.00    -0.078 A  
HETATM   39  C   UNL     1      -8.597   6.331  62.387  1.00  0.00     0.092 A  
HETATM   40  N   UNL     1      -8.258   7.353  63.252  1.00  0.00    -0.348 NA 
HETATM   41  C   UNL     1      -7.228   6.960  64.086  1.00  0.00    -0.068 A  
HETATM   42  H   UNL     1      -8.705   8.270  63.273  1.00  0.00     0.000 HD 
HETATM   43  C   UNL     1      -6.631   7.557  65.196  1.00  0.00    -0.044 A  
HETATM   44  C   UNL     1      -5.663   6.800  65.883  1.00  0.00    -0.030 A  
HETATM   45  C   UNL     1      -5.403   5.462  65.559  1.00  0.00    -0.013 A  
HETATM   46  C   UNL     1      -6.157   4.832  64.564  1.00  0.00    -0.022 A  
HETATM   47  C   UNL     1      -6.429   3.329  64.492  1.00  0.00    -0.034 C  
HETATM   48  C   UNL     1      -6.935   5.659  63.736  1.00  0.00    -0.050 A  
HETATM   49  C   UNL     1      -6.630   2.710  65.892  1.00  0.00    -0.032 C  
ENDBRANCH  29  32
ENDBRANCH  27  29
ENDBRANCH  13  27
TORSDOF 5
ENDMDL
MODEL      152
REMARK 921   NORMALIZED FREE ENERGY PREDICTED BY IDOCK:   -1.40 KCAL/MOL
REMARK 922        TOTAL FREE ENERGY PREDICTED BY IDOCK:   -3.66 KCAL/MOL
REMARK 923 INTER-LIGAND FREE ENERGY PREDICTED BY IDOCK:   -4.63 KCAL/MOL
REMARK 924 INTRA-LIGAND FREE ENERGY PREDICTED BY IDOCK:    0.97 KCAL/MOL
REMARK 927      BINDING AFFINITY PREDICTED BY RF-SCORE:    0.00 PKD
ROOT
HETATM    1  C   UNL     1     -10.721   7.955  70.969  1.00  0.00    -0.220 C  
HETATM    2  C   UNL     1     -11.717   8.797  71.759  1.00  0.00    -0.416 C  
HETATM    3  C   UNL     1     -12.305   7.773  72.772  1.00  0.00     0.062 C  
HETATM    4  C   UNL     1     -11.900   6.395  72.267  1.00  0.00    -0.271 C  
HETATM    5  N   UNL     1     -11.270   6.640  70.992  1.00  0.00    -0.283 N  
HETATM    6  C   UNL     1     -10.501   5.618  70.498  1.00  0.00    -0.277 C  
HETATM    7  O   UNL     1     -10.906   4.467  70.627  1.00  0.00     0.378 OA 
HETATM    8  C   UNL     1      -9.209   6.058  69.711  1.00  0.00    -0.143 C  
HETATM    9  C   UNL     1      -9.824   8.354  69.730  1.00  0.00    -0.187 C  
HETATM   10  N   UNL     1      -8.702   7.519  69.983  1.00  0.00    -0.139 N  
HETATM   11  C   UNL     1      -7.817   8.208  69.144  1.00  0.00    -0.107 C  
HETATM   12  H   UNL     1      -9.044   9.982  69.151  1.00  0.00     0.000 HD 
HETATM   13  C   UNL     1      -8.462   8.226  67.728  1.00  0.00    -0.131 C  
HETATM   14  O   UNL     1      -6.790   8.730  69.534  1.00  0.00    -0.046 OA 
HETATM   15  O   UNL     1      -9.583   9.742  69.896  1.00  0.00    -0.211 OA 
HETATM   16  O   UNL     1      -9.907   8.067  68.299  1.00  0.00    -0.161 OA 
HETATM   17  C   UNL     1      -5.977   7.208  67.135  1.00  0.00    -0.040 C  
HETATM   18  C   UNL     1      -7.898   6.135  65.946  1.00  0.00    -0.107 C  
HETATM   19  C   UNL     1      -7.529   6.995  67.157  1.00  0.00    -0.095 C  
ENDROOT
BRANCH   8  20
HETATM   20  C   UNL     1      -8.202   4.897  69.812  1.00  0.00    -0.073 C  
BRANCH  20  21
HETATM   21  C   UNL     1      -8.616   3.717  68.903  1.00  0.00    -0.117 A  
HETATM   22  C   UNL     1      -9.368   3.153  66.672  1.00  0.00    -0.131 A  
HETATM   23  C   UNL     1      -8.071   1.567  67.907  1.00  0.00    -0.063 A  
HETATM   24  C   UNL     1      -8.059   2.422  69.005  1.00  0.00    -0.067 A  
HETATM   25  C   UNL     1      -8.680   1.939  66.726  1.00  0.00    -0.125 A  
HETATM   26  C   UNL     1      -9.341   4.034  67.748  1.00  0.00    -0.221 A  
ENDBRANCH  20  21
ENDBRANCH   8  20
BRANCH  13  27
HETATM   27  N   UNL     1      -8.393   9.509  66.980  1.00  0.00    -0.123 NA 
HETATM   28  H   UNL     1      -7.518   9.991  66.779  1.00  0.00     0.000 HD 
BRANCH  27  29
HETATM   29  C   UNL     1      -9.547   9.955  66.607  1.00  0.00    -0.184 C  
HETATM   30  H   UNL     1     -11.408  10.388  67.212  1.00  0.00     0.000 HD 
HETATM   31  O   UNL     1     -10.559  10.059  67.485  1.00  0.00    -0.242 OA 
BRANCH  29  32
HETATM   32  C   UNL     1     -10.007  10.387  65.213  1.00  0.00    -0.376 C  
HETATM   33  C   UNL     1     -11.430  10.933  65.110  1.00  0.00     0.646 C  
HETATM   34  N   UNL     1     -11.620  11.554  63.784  1.00  0.00    -0.326 NA 
HETATM   35  C   UNL     1     -10.790  12.780  63.532  1.00  0.00    -0.238 C  
HETATM   36  C   UNL     1     -13.016  11.656  63.400  1.00  0.00     0.113 C  
HETATM   37  C   UNL     1     -11.526  14.168  63.638  1.00  0.00     0.479 C  
HETATM   38  C   UNL     1     -11.851  14.394  65.067  1.00  0.00    -0.400 A  
HETATM   39  C   UNL     1     -13.007  14.692  65.746  1.00  0.00     0.255 A  
HETATM   40  N   UNL     1     -12.758  14.481  67.088  1.00  0.00    -0.136 NA 
HETATM   41  C   UNL     1     -11.449  14.080  67.280  1.00  0.00    -0.348 A  
HETATM   42  H   UNL     1     -13.443  14.604  67.834  1.00  0.00     0.000 HD 
HETATM   43  C   UNL     1     -10.756  13.622  68.400  1.00  0.00    -0.272 A  
HETATM   44  C   UNL     1      -9.433  13.187  68.197  1.00  0.00    -0.222 A  
HETATM   45  C   UNL     1      -8.875  13.086  66.916  1.00  0.00    -0.184 A  
HETATM   46  C   UNL     1      -9.661  13.372  65.795  1.00  0.00    -0.147 A  
HETATM   47  C   UNL     1      -9.447  12.778  64.402  1.00  0.00     0.475 C  
HETATM   48  C   UNL     1     -10.882  14.028  66.024  1.00  0.00    -0.295 A  
HETATM   49  C   UNL     1      -8.988  11.305  64.465  1.00  0.00     0.085 C  
ENDBRANCH  29  32
ENDBRANCH  27  29
ENDBRANCH  13  27
TORSDOF 5
ENDMDL
MODEL      153
REMARK 921   NORMALIZED FREE ENERGY PREDICTED BY IDOCK:   -1.40 KCAL/MOL
REMARK 922        TOTAL FREE ENERGY PREDICTED BY IDOCK:   -3.65 KCAL/MOL
REMARK 923 INTER-LIGAND FREE ENERGY PREDICTED BY IDOCK:   -5.49 KCAL/MOL
REMARK 924 INTRA-LIGAND FREE ENERGY PREDICTED BY IDOCK:    1.84 KCAL/MOL
REMARK 927      BINDING AFFINITY PREDICTED BY RF-SCORE:    0.00 PKD
ROOT
HETATM    1  C   UNL     1      -7.859  11.507  68.764  1.00  0.00    -0.117 C  
HETATM    2  C   UNL     1      -6.670  11.135  69.643  1.00  0.00    -0.134 C  
HETATM    3  C   UNL     1      -6.754   9.583  69.699  1.00  0.00    -0.054 C  
HETATM    4  C   UNL     1      -8.139   9.214  69.184  1.00  0.00    -0.105 C  
HETATM    5  N   UNL     1      -8.814  10.477  69.006  1.00  0.00    -0.167 N  
HETATM    6  C   UNL     1      -9.937  10.449  68.219  1.00  0.00    -0.151 C  
HETATM    7  O   UNL     1     -10.704   9.499  68.329  1.00  0.00    -0.226 OA 
HETATM    8  C   UNL     1     -10.169  11.723  67.320  1.00  0.00    -0.203 C  
HETATM    9  C   UNL     1      -8.404  12.933  68.357  1.00  0.00    -0.116 C  
HETATM   10  N   UNL     1      -8.908  12.622  67.064  1.00  0.00    -0.209 N  
HETATM   11  C   UNL     1      -8.972  13.947  66.613  1.00  0.00    -0.134 C  
HETATM   12  H   UNL     1      -7.586  14.626  68.119  1.00  0.00     0.000 HD 
HETATM   13  C   UNL     1      -9.865  14.724  67.622  1.00  0.00    -0.218 C  
HETATM   14  O   UNL     1      -8.359  14.357  65.645  1.00  0.00     1.663 OA 
HETATM   15  O   UNL     1      -7.258  13.769  68.364  1.00  0.00    -0.090 OA 
HETATM   16  O   UNL     1      -9.557  13.723  68.782  1.00  0.00    -0.160 OA 
HETATM   17  C   UNL     1     -11.111  15.363  65.256  1.00  0.00    -0.367 C  
HETATM   18  C   UNL     1     -12.631  14.856  67.177  1.00  0.00     0.835 C  
HETATM   19  C   UNL     1     -11.201  14.676  66.661  1.00  0.00    -0.349 C  
ENDROOT
BRANCH   8  20
HETATM   20  C   UNL     1     -11.014  11.275  66.113  1.00  0.00    -0.252 C  
BRANCH  20  21
HETATM   21  C   UNL     1     -10.141  11.124  64.846  1.00  0.00    -0.345 A  
HETATM   22  C   UNL     1      -8.936   9.516  63.494  1.00  0.00    -0.205 A  
HETATM   23  C   UNL     1      -9.874  11.454  62.452  1.00  0.00     0.355 A  
HETATM   24  C   UNL     1     -10.299  11.923  63.691  1.00  0.00    -0.477 A  
HETATM   25  C   UNL     1      -9.234  10.237  62.336  1.00  0.00    -0.311 A  
HETATM   26  C   UNL     1      -9.380   9.954  64.739  1.00  0.00    -0.339 A  
ENDBRANCH  20  21
ENDBRANCH   8  20
BRANCH  13  27
HETATM   27  N   UNL     1      -9.392  16.073  68.030  1.00  0.00    -0.201 NA 
HETATM   28  H   UNL     1      -9.910  16.928  67.832  1.00  0.00     0.000 HD 
BRANCH  27  29
HETATM   29  C   UNL     1      -8.265  16.060  68.661  1.00  0.00    -0.193 C  
HETATM   30  H   UNL     1      -7.307  15.389  70.288  1.00  0.00     0.000 HD 
HETATM   31  O   UNL     1      -8.136  15.399  69.825  1.00  0.00    -0.207 OA 
BRANCH  29  32
HETATM   32  C   UNL     1      -6.951  16.755  68.298  1.00  0.00    -0.161 C  
HETATM   33  C   UNL     1      -6.835  17.280  66.869  1.00  0.00    -0.196 C  
HETATM   34  N   UNL     1      -5.649  18.153  66.763  1.00  0.00    -0.137 NA 
HETATM   35  C   UNL     1      -5.720  19.422  67.563  1.00  0.00    -0.179 C  
HETATM   36  C   UNL     1      -5.173  18.301  65.400  1.00  0.00    -0.175 C  
HETATM   37  C   UNL     1      -6.037  20.744  66.768  1.00  0.00    -0.282 C  
HETATM   38  C   UNL     1      -7.448  20.669  66.320  1.00  0.00    -0.081 A  
HETATM   39  C   UNL     1      -8.070  20.799  65.103  1.00  0.00     1.128 A  
HETATM   40  N   UNL     1      -9.360  20.326  65.251  1.00  0.00    -0.229 NA 
HETATM   41  C   UNL     1      -9.580  19.922  66.554  1.00  0.00    -0.423 A  
HETATM   42  H   UNL     1     -10.052  20.281  64.503  1.00  0.00     0.000 HD 
HETATM   43  C   UNL     1     -10.643  19.262  67.171  1.00  0.00    -0.575 A  
HETATM   44  C   UNL     1     -10.473  18.906  68.522  1.00  0.00    -0.197 A  
HETATM   45  C   UNL     1      -9.250  19.078  69.185  1.00  0.00    -0.156 A  
HETATM   46  C   UNL     1      -8.145  19.567  68.482  1.00  0.00    -0.376 A  
HETATM   47  C   UNL     1      -6.686  19.273  68.830  1.00  0.00    -0.347 C  
HETATM   48  C   UNL     1      -8.394  20.138  67.222  1.00  0.00    -0.394 A  
HETATM   49  C   UNL     1      -6.493  17.827  69.339  1.00  0.00    -0.226 C  
ENDBRANCH  29  32
ENDBRANCH  27  29
ENDBRANCH  13  27
TORSDOF 5
ENDMDL
MODEL      154
REMARK 921   NORMALIZED FREE ENERGY PREDICTED BY IDOCK:   -1.30 KCAL/MOL
REMARK 922        TOTAL FREE ENERGY PREDICTED BY IDOCK:   -3.53 KCAL/MOL
REMARK 923 INTER-LIGAND FREE ENERGY PREDICTED BY IDOCK:   -3.72 KCAL/MOL
REMARK 924 INTRA-LIGAND FREE ENERGY PREDICTED BY IDOCK:    0.19 KCAL/MOL
REMARK 927      BINDING AFFINITY PREDICTED BY RF-SCORE:    0.00 PKD
ROOT
HETATM    1  C   UNL     1      -7.499   8.693  70.272  1.00  0.00    -0.066 C  
HETATM    2  C   UNL     1      -6.065   8.868  69.785  1.00  0.00    -0.035 C  
HETATM    3  C   UNL     1      -5.304   7.742  70.542  1.00  0.00    -0.023 C  
HETATM    4  C   UNL     1      -6.239   7.264  71.644  1.00  0.00    -0.037 C  
HETATM    5  N   UNL     1      -7.364   8.167  71.590  1.00  0.00    -0.076 N  
HETATM    6  C   UNL     1      -8.501   7.744  72.229  1.00  0.00    -0.128 C  
HETATM    7  O   UNL     1      -8.387   7.174  73.308  1.00  0.00    -0.112 OA 
HETATM    8  C   UNL     1      -9.859   8.144  71.535  1.00  0.00    -0.179 C  
HETATM    9  C   UNL     1      -8.783   9.557  69.955  1.00  0.00    -0.210 C  
HETATM   10  N   UNL     1      -9.767   8.533  70.017  1.00  0.00    -0.168 N  
HETATM   11  C   UNL     1     -10.760   9.245  69.331  1.00  0.00    -0.208 C  
HETATM   12  H   UNL     1      -9.322  10.600  68.466  1.00  0.00     0.000 HD 
HETATM   13  C   UNL     1     -10.979  10.573  70.110  1.00  0.00    -0.270 C  
HETATM   14  O   UNL     1     -11.260   8.866  68.289  1.00  0.00     0.169 OA 
HETATM   15  O   UNL     1      -8.549  10.081  68.657  1.00  0.00    -0.114 OA 
HETATM   16  O   UNL     1      -9.543  10.542  70.722  1.00  0.00     0.884 OA 
HETATM   17  C   UNL     1     -13.562   9.640  69.971  1.00  0.00     1.313 C  
HETATM   18  C   UNL     1     -12.894  10.653  72.158  1.00  0.00    -0.239 C  
HETATM   19  C   UNL     1     -12.343  10.043  70.867  1.00  0.00    -0.438 C  
ENDROOT
BRANCH   8  20
HETATM   20  C   UNL     1     -10.910   7.104  71.968  1.00  0.00    -0.252 C  
BRANCH  20  21
HETATM   21  C   UNL     1     -10.647   5.734  71.302  1.00  0.00    -0.319 A  
HETATM   22  C   UNL     1      -9.982   4.675  69.229  1.00  0.00    -0.231 A  
HETATM   23  C   UNL     1      -9.461   3.611  71.308  1.00  0.00    -0.231 A  
HETATM   24  C   UNL     1     -10.134   4.615  71.997  1.00  0.00    -0.262 A  
HETATM   25  C   UNL     1      -9.341   3.654  69.933  1.00  0.00    -0.246 A  
HETATM   26  C   UNL     1     -10.632   5.705  69.903  1.00  0.00    -0.399 A  
ENDBRANCH  20  21
ENDBRANCH   8  20
BRANCH  13  27
HETATM   27  N   UNL     1     -11.114  11.810  69.295  1.00  0.00    -0.346 NA 
HETATM   28  H   UNL     1     -10.831  11.867  68.318  1.00  0.00     0.000 HD 
BRANCH  27  29
HETATM   29  C   UNL     1     -11.625  12.805  69.942  1.00  0.00    -0.173 C  
HETATM   30  H   UNL     1     -13.244  13.460  70.925  1.00  0.00     0.000 HD 
HETATM   31  O   UNL     1     -12.868  12.729  70.449  1.00  0.00     0.017 OA 
BRANCH  29  32
HETATM   32  C   UNL     1     -11.022  14.182  70.222  1.00  0.00     0.239 C  
HETATM   33  C   UNL     1      -9.679  14.481  69.557  1.00  0.00     0.211 C  
HETATM   34  N   UNL     1      -9.375  15.919  69.695  1.00  0.00    -0.201 NA 
HETATM   35  C   UNL     1     -10.307  16.839  68.959  1.00  0.00    -0.326 C  
HETATM   36  C   UNL     1      -7.962  16.216  69.551  1.00  0.00     0.021 C  
HETATM   37  C   UNL     1      -9.775  17.455  67.611  1.00  0.00    -0.270 C  
HETATM   38  C   UNL     1      -9.696  16.357  66.618  1.00  0.00    -0.272 A  
HETATM   39  C   UNL     1      -8.701  15.880  65.801  1.00  0.00     0.225 A  
HETATM   40  N   UNL     1      -9.117  14.652  65.324  1.00  0.00     0.293 NA 
HETATM   41  C   UNL     1     -10.379  14.350  65.801  1.00  0.00    -0.326 A  
HETATM   42  H   UNL     1      -8.571  14.052  64.706  1.00  0.00     0.000 HD 
HETATM   43  C   UNL     1     -11.167  13.202  65.728  1.00  0.00    -0.309 A  
HETATM   44  C   UNL     1     -12.380  13.215  66.441  1.00  0.00    -0.300 A  
HETATM   45  C   UNL     1     -12.724  14.270  67.297  1.00  0.00     0.634 A  
HETATM   46  C   UNL     1     -11.823  15.321  67.497  1.00  0.00    -0.041 A  
HETATM   47  C   UNL     1     -11.752  16.184  68.757  1.00  0.00    -0.231 C  
HETATM   48  C   UNL     1     -10.742  15.411  66.603  1.00  0.00    -0.309 A  
HETATM   49  C   UNL     1     -12.027  15.364  70.036  1.00  0.00    -0.383 C  
ENDBRANCH  29  32
ENDBRANCH  27  29
ENDBRANCH  13  27
TORSDOF 5
ENDMDL
MODEL      155
REMARK 921   NORMALIZED FREE ENERGY PREDICTED BY IDOCK:   -1.23 KCAL/MOL
REMARK 922        TOTAL FREE ENERGY PREDICTED BY IDOCK:   -3.44 KCAL/MOL
REMARK 923 INTER-LIGAND FREE ENERGY PREDICTED BY IDOCK:   -7.53 KCAL/MOL
REMARK 924 INTRA-LIGAND FREE ENERGY PREDICTED BY IDOCK:    4.09 KCAL/MOL
REMARK 927      BINDING AFFINITY PREDICTED BY RF-SCORE:    0.00 PKD
ROOT
HETATM    1  C   UNL     1     -10.643  12.384  68.760  1.00  0.00    -0.183 C  
HETATM    2  C   UNL     1     -11.458  12.928  69.928  1.00  0.00    -0.147 C  
HETATM    3  C   UNL     1     -11.898  14.331  69.417  1.00  0.00    -0.372 C  
HETATM    4  C   UNL     1     -11.031  14.631  68.202  1.00  0.00    -0.261 C  
HETATM    5  N   UNL     1     -10.084  13.542  68.147  1.00  0.00    -0.243 N  
HETATM    6  C   UNL     1      -9.428  13.381  66.953  1.00  0.00    -0.253 C  
HETATM    7  O   UNL     1      -9.054  14.382  66.352  1.00  0.00    -0.243 OA 
HETATM    8  C   UNL     1      -9.132  11.890  66.537  1.00  0.00    -0.211 C  
HETATM    9  C   UNL     1      -9.839  11.029  68.637  1.00  0.00    -0.193 C  
HETATM   10  N   UNL     1     -10.004  10.793  67.245  1.00  0.00    -0.182 N  
HETATM   11  C   UNL     1      -9.665   9.434  67.289  1.00  0.00    -0.165 C  
HETATM   12  H   UNL     1     -10.051   9.309  69.407  1.00  0.00     0.000 HD 
HETATM   13  C   UNL     1      -8.248   9.344  67.924  1.00  0.00    -0.115 C  
HETATM   14  O   UNL     1     -10.418   8.543  66.943  1.00  0.00    -0.308 OA 
HETATM   15  O   UNL     1     -10.534  10.124  69.481  1.00  0.00    -0.209 OA 
HETATM   16  O   UNL     1      -8.416  10.701  68.679  1.00  0.00    -0.127 OA 
HETATM   17  C   UNL     1      -7.856   7.899  65.617  1.00  0.00    -0.109 C  
HETATM   18  C   UNL     1      -5.996   9.445  66.256  1.00  0.00    -0.059 C  
HETATM   19  C   UNL     1      -7.482   9.152  66.479  1.00  0.00    -0.093 C  
ENDROOT
BRANCH   8  20
HETATM   20  C   UNL     1      -9.019  11.865  65.001  1.00  0.00     0.422 C  
BRANCH  20  21
HETATM   21  C   UNL     1     -10.300  12.419  64.338  1.00  0.00    -0.370 A  
HETATM   22  C   UNL     1     -12.584  11.866  63.756  1.00  0.00    -0.509 A  
HETATM   23  C   UNL     1     -12.017  14.139  64.243  1.00  0.00    -0.460 A  
HETATM   24  C   UNL     1     -10.682  13.779  64.395  1.00  0.00    -0.333 A  
HETATM   25  C   UNL     1     -12.980  13.188  63.969  1.00  0.00     0.236 A  
HETATM   26  C   UNL     1     -11.258  11.483  63.935  1.00  0.00    -0.439 A  
ENDBRANCH  20  21
ENDBRANCH   8  20
BRANCH  13  27
HETATM   27  N   UNL     1      -8.036   8.271  68.931  1.00  0.00    -0.111 NA 
HETATM   28  H   UNL     1      -7.682   8.451  69.870  1.00  0.00     0.000 HD 
BRANCH  27  29
HETATM   29  C   UNL     1      -8.342   7.091  68.506  1.00  0.00    -0.121 C  
HETATM   30  H   UNL     1      -7.966   5.707  67.106  1.00  0.00     0.000 HD 
HETATM   31  O   UNL     1      -7.741   6.575  67.419  1.00  0.00    -0.098 OA 
BRANCH  29  32
HETATM   32  C   UNL     1      -9.383   6.111  69.050  1.00  0.00    -0.133 C  
HETATM   33  C   UNL     1      -8.842   4.888  69.788  1.00  0.00    -0.097 C  
HETATM   34  N   UNL     1      -9.951   4.204  70.480  1.00  0.00    -0.173 NA 
HETATM   35  C   UNL     1     -10.589   4.989  71.590  1.00  0.00    -0.117 C  
HETATM   36  C   UNL     1      -9.659   2.815  70.785  1.00  0.00    -0.117 C  
HETATM   37  C   UNL     1     -10.197   4.582  73.060  1.00  0.00    -0.220 C  
HETATM   38  C   UNL     1      -8.785   4.978  73.274  1.00  0.00    -0.111 A  
HETATM   39  C   UNL     1      -7.662   4.312  73.699  1.00  0.00    -0.082 A  
HETATM   40  N   UNL     1      -6.576   5.114  73.404  1.00  0.00    -0.069 NA 
HETATM   41  C   UNL     1      -6.991   6.296  72.822  1.00  0.00    -0.075 A  
HETATM   42  H   UNL     1      -5.604   4.867  73.591  1.00  0.00     0.000 HD 
HETATM   43  C   UNL     1      -6.298   7.352  72.231  1.00  0.00    -0.043 A  
HETATM   44  C   UNL     1      -7.070   8.363  71.629  1.00  0.00    -0.093 A  
HETATM   45  C   UNL     1      -8.461   8.256  71.503  1.00  0.00    -0.179 A  
HETATM   46  C   UNL     1      -9.108   7.094  71.935  1.00  0.00    -0.144 A  
HETATM   47  C   UNL     1     -10.428   6.566  71.373  1.00  0.00    -0.246 C  
HETATM   48  C   UNL     1      -8.365   6.216  72.743  1.00  0.00    -0.117 A  
HETATM   49  C   UNL     1     -10.540   6.794  69.849  1.00  0.00    -0.257 C  
ENDBRANCH  29  32
ENDBRANCH  27  29
ENDBRANCH  13  27
TORSDOF 5
ENDMDL
MODEL      156
REMARK 921   NORMALIZED FREE ENERGY PREDICTED BY IDOCK:   -1.07 KCAL/MOL
REMARK 922        TOTAL FREE ENERGY PREDICTED BY IDOCK:   -3.23 KCAL/MOL
REMARK 923 INTER-LIGAND FREE ENERGY PREDICTED BY IDOCK:   -3.25 KCAL/MOL
REMARK 924 INTRA-LIGAND FREE ENERGY PREDICTED BY IDOCK:    0.03 KCAL/MOL
REMARK 927      BINDING AFFINITY PREDICTED BY RF-SCORE:    0.00 PKD
ROOT
HETATM    1  C   UNL     1      -7.775  10.917  68.650  1.00  0.00    -0.122 C  
HETATM    2  C   UNL     1      -6.498  11.150  69.448  1.00  0.00    -0.100 C  
HETATM    3  C   UNL     1      -6.603  10.092  70.584  1.00  0.00    -0.088 C  
HETATM    4  C   UNL     1      -8.045   9.603  70.576  1.00  0.00    -0.109 C  
HETATM    5  N   UNL     1      -8.714  10.444  69.611  1.00  0.00    -0.104 N  
HETATM    6  C   UNL     1      -9.922   9.984  69.153  1.00  0.00    -0.204 C  
HETATM    7  O   UNL     1     -10.688   9.457  69.953  1.00  0.00    -0.216 OA 
HETATM    8  C   UNL     1     -10.235  10.288  67.639  1.00  0.00    -0.205 C  
HETATM    9  C   UNL     1      -8.338  11.702  67.399  1.00  0.00    -0.152 C  
HETATM   10  N   UNL     1      -8.997  10.630  66.736  1.00  0.00    -0.138 N  
HETATM   11  C   UNL     1      -9.089  11.266  65.491  1.00  0.00    -0.170 C  
HETATM   12  H   UNL     1      -7.523  12.665  65.984  1.00  0.00     0.000 HD 
HETATM   13  C   UNL     1      -9.842  12.607  65.726  1.00  0.00    -0.228 C  
HETATM   14  O   UNL     1      -8.588  10.826  64.474  1.00  0.00    -0.147 OA 
HETATM   15  O   UNL     1      -7.184  12.193  66.736  1.00  0.00    -0.053 OA 
HETATM   16  O   UNL     1      -9.418  12.671  67.228  1.00  0.00    -0.189 OA 
HETATM   17  C   UNL     1     -11.348  11.536  63.689  1.00  0.00    -0.412 C  
HETATM   18  C   UNL     1     -12.639  12.656  65.515  1.00  0.00    -0.182 C  
HETATM   19  C   UNL     1     -11.283  12.032  65.173  1.00  0.00    -0.368 C  
ENDROOT
BRANCH   8  20
HETATM   20  C   UNL     1     -11.224   9.211  67.158  1.00  0.00     0.649 C  
BRANCH  20  21
HETATM   21  C   UNL     1     -10.527   7.839  67.012  1.00  0.00    -0.419 A  
HETATM   22  C   UNL     1     -10.848   5.455  67.291  1.00  0.00    -0.052 A  
HETATM   23  C   UNL     1      -9.344   6.245  65.606  1.00  0.00     0.153 A  
HETATM   24  C   UNL     1      -9.563   7.556  66.017  1.00  0.00     0.042 A  
HETATM   25  C   UNL     1     -10.012   5.195  66.203  1.00  0.00    -0.216 A  
HETATM   26  C   UNL     1     -11.102   6.762  67.696  1.00  0.00    -0.309 A  
ENDBRANCH  20  21
ENDBRANCH   8  20
BRANCH  13  27
HETATM   27  N   UNL     1      -9.300  13.806  65.035  1.00  0.00     0.041 NA 
HETATM   28  H   UNL     1      -8.773  13.757  64.164  1.00  0.00     0.000 HD 
BRANCH  27  29
HETATM   29  C   UNL     1      -9.561  14.917  65.641  1.00  0.00    -0.223 C  
HETATM   30  H   UNL     1     -10.784  15.822  66.945  1.00  0.00     0.000 HD 
HETATM   31  O   UNL     1     -10.592  15.006  66.499  1.00  0.00    -0.292 OA 
BRANCH  29  32
HETATM   32  C   UNL     1      -8.861  16.271  65.511  1.00  0.00     0.605 C  
HETATM   33  C   UNL     1      -9.683  17.498  65.903  1.00  0.00    -0.044 C  
HETATM   34  N   UNL     1      -8.795  18.674  65.990  1.00  0.00    -0.482 NA 
HETATM   35  C   UNL     1      -7.768  18.616  67.084  1.00  0.00    -0.229 C  
HETATM   36  C   UNL     1      -9.507  19.933  65.868  1.00  0.00    -0.217 C  
HETATM   37  C   UNL     1      -8.058  19.473  68.373  1.00  0.00    -0.377 C  
HETATM   38  C   UNL     1      -9.194  18.841  69.084  1.00  0.00    -0.081 A  
HETATM   39  C   UNL     1     -10.403  19.299  69.545  1.00  0.00     0.410 A  
HETATM   40  N   UNL     1     -11.171  18.191  69.849  1.00  0.00     1.661 NA 
HETATM   41  C   UNL     1     -10.458  17.031  69.618  1.00  0.00    -0.099 A  
HETATM   42  H   UNL     1     -12.129  18.225  70.197  1.00  0.00     0.000 HD 
HETATM   43  C   UNL     1     -10.815  15.682  69.637  1.00  0.00    -0.287 A  
HETATM   44  C   UNL     1      -9.834  14.758  69.231  1.00  0.00    -0.123 A  
HETATM   45  C   UNL     1      -8.604  15.168  68.702  1.00  0.00    -0.172 A  
HETATM   46  C   UNL     1      -8.350  16.531  68.518  1.00  0.00    -0.210 A  
HETATM   47  C   UNL     1      -7.396  17.109  67.471  1.00  0.00    -0.180 C  
HETATM   48  C   UNL     1      -9.226  17.432  69.145  1.00  0.00     0.016 A  
HETATM   49  C   UNL     1      -7.435  16.311  66.149  1.00  0.00     0.365 C  
ENDBRANCH  29  32
ENDBRANCH  27  29
ENDBRANCH  13  27
TORSDOF 5
ENDMDL
MODEL      157
REMARK 921   NORMALIZED FREE ENERGY PREDICTED BY IDOCK:   -1.00 KCAL/MOL
REMARK 922        TOTAL FREE ENERGY PREDICTED BY IDOCK:   -3.14 KCAL/MOL
REMARK 923 INTER-LIGAND FREE ENERGY PREDICTED BY IDOCK:   -2.52 KCAL/MOL
REMARK 924 INTRA-LIGAND FREE ENERGY PREDICTED BY IDOCK:   -0.61 KCAL/MOL
REMARK 927      BINDING AFFINITY PREDICTED BY RF-SCORE:    0.00 PKD
ROOT
HETATM    1  C   UNL     1      -7.365   9.213  67.458  1.00  0.00    -0.084 C  
HETATM    2  C   UNL     1      -6.223   9.617  66.533  1.00  0.00    -0.064 C  
HETATM    3  C   UNL     1      -5.220   8.438  66.687  1.00  0.00    -0.031 C  
HETATM    4  C   UNL     1      -5.666   7.659  67.918  1.00  0.00    -0.036 C  
HETATM    5  N   UNL     1      -6.739   8.445  68.481  1.00  0.00    -0.062 N  
HETATM    6  C   UNL     1      -7.547   7.795  69.379  1.00  0.00    -0.101 C  
HETATM    7  O   UNL     1      -7.029   7.030  70.185  1.00  0.00    -0.062 OA 
HETATM    8  C   UNL     1      -9.071   8.197  69.337  1.00  0.00    -0.148 C  
HETATM    9  C   UNL     1      -8.685   9.998  67.833  1.00  0.00    -0.125 C  
HETATM   10  N   UNL     1      -9.561   8.894  68.018  1.00  0.00    -0.146 N  
HETATM   11  C   UNL     1     -10.747   9.634  67.920  1.00  0.00    -0.247 C  
HETATM   12  H   UNL     1      -9.756  11.267  66.918  1.00  0.00     0.000 HD 
HETATM   13  C   UNL     1     -10.671  10.750  69.002  1.00  0.00    -0.228 C  
HETATM   14  O   UNL     1     -11.598   9.430  67.076  1.00  0.00     0.957 OA 
HETATM   15  O   UNL     1      -8.962  10.794  66.692  1.00  0.00    -0.148 OA 
HETATM   16  O   UNL     1      -9.110  10.730  69.024  1.00  0.00    -0.179 OA 
HETATM   17  C   UNL     1     -13.106   9.625  69.610  1.00  0.00     1.824 C  
HETATM   18  C   UNL     1     -11.674  10.230  71.569  1.00  0.00    -0.202 C  
HETATM   19  C   UNL     1     -11.643   9.951  70.065  1.00  0.00    -0.235 C  
ENDROOT
BRANCH   8  20
HETATM   20  C   UNL     1      -9.869   6.997  69.879  1.00  0.00    -0.173 C  
BRANCH  20  21
HETATM   21  C   UNL     1      -9.610   6.790  71.389  1.00  0.00    -0.170 A  
HETATM   22  C   UNL     1      -9.703   7.884  73.546  1.00  0.00    -0.248 A  
HETATM   23  C   UNL     1     -10.038   5.519  73.417  1.00  0.00    -0.202 A  
HETATM   24  C   UNL     1      -9.794   5.553  72.048  1.00  0.00    -0.204 A  
HETATM   25  C   UNL     1     -10.039   6.679  74.165  1.00  0.00    -0.390 A  
HETATM   26  C   UNL     1      -9.487   7.942  72.172  1.00  0.00    -0.234 A  
ENDBRANCH  20  21
ENDBRANCH   8  20
BRANCH  13  27
HETATM   27  N   UNL     1     -11.117  12.108  68.592  1.00  0.00    -0.235 NA 
HETATM   28  H   UNL     1     -11.285  12.370  67.622  1.00  0.00     0.000 HD 
BRANCH  27  29
HETATM   29  C   UNL     1     -11.272  12.924  69.581  1.00  0.00    -0.002 C  
HETATM   30  H   UNL     1     -12.481  13.461  71.086  1.00  0.00     0.000 HD 
HETATM   31  O   UNL     1     -12.367  12.861  70.359  1.00  0.00    -0.323 OA 
BRANCH  29  32
HETATM   32  C   UNL     1     -10.365  14.069  70.036  1.00  0.00     0.810 C  
HETATM   33  C   UNL     1      -9.135  14.342  69.172  1.00  0.00     0.163 C  
HETATM   34  N   UNL     1      -8.530  15.627  69.574  1.00  0.00    -0.237 NA 
HETATM   35  C   UNL     1      -9.378  16.838  69.312  1.00  0.00    -0.074 C  
HETATM   36  C   UNL     1      -7.136  15.744  69.186  1.00  0.00    -0.176 C  
HETATM   37  C   UNL     1      -8.990  17.717  68.065  1.00  0.00    -0.263 C  
HETATM   38  C   UNL     1      -9.315  16.935  66.848  1.00  0.00    -0.254 A  
HETATM   39  C   UNL     1      -8.602  16.563  65.736  1.00  0.00     0.186 A  
HETATM   40  N   UNL     1      -9.335  15.587  65.089  1.00  0.00    -0.133 NA 
HETATM   41  C   UNL     1     -10.522  15.351  65.756  1.00  0.00    -0.355 A  
HETATM   42  H   UNL     1      -9.042  15.107  64.237  1.00  0.00     0.000 HD 
HETATM   43  C   UNL     1     -11.524  14.394  65.594  1.00  0.00    -0.336 A  
HETATM   44  C   UNL     1     -12.558  14.386  66.548  1.00  0.00     0.009 A  
HETATM   45  C   UNL     1     -12.522  15.203  67.685  1.00  0.00     0.801 A  
HETATM   46  C   UNL     1     -11.409  16.017  67.918  1.00  0.00    -0.218 A  
HETATM   47  C   UNL     1     -10.937  16.481  69.296  1.00  0.00    -0.302 C  
HETATM   48  C   UNL     1     -10.514  16.191  66.849  1.00  0.00    -0.300 A  
HETATM   49  C   UNL     1     -11.131  15.389  70.372  1.00  0.00    -0.351 C  
ENDBRANCH  29  32
ENDBRANCH  27  29
ENDBRANCH  13  27
TORSDOF 5
ENDMDL
MODEL      158
REMARK 921   NORMALIZED FREE ENERGY PREDICTED BY IDOCK:   -0.90 KCAL/MOL
REMARK 922        TOTAL FREE ENERGY PREDICTED BY IDOCK:   -3.01 KCAL/MOL
REMARK 923 INTER-LIGAND FREE ENERGY PREDICTED BY IDOCK:   -3.71 KCAL/MOL
REMARK 924 INTRA-LIGAND FREE ENERGY PREDICTED BY IDOCK:    0.71 KCAL/MOL
REMARK 927      BINDING AFFINITY PREDICTED BY RF-SCORE:    0.00 PKD
ROOT
HETATM    1  C   UNL     1      -7.050  13.335  68.916  1.00  0.00    -0.079 C  
HETATM    2  C   UNL     1      -5.677  13.955  69.149  1.00  0.00    -0.082 C  
HETATM    3  C   UNL     1      -5.976  15.482  69.097  1.00  0.00    -0.108 C  
HETATM    4  C   UNL     1      -7.366  15.622  68.492  1.00  0.00    -0.122 C  
HETATM    5  N   UNL     1      -7.734  14.282  68.101  1.00  0.00    -0.128 N  
HETATM    6  C   UNL     1      -9.069  14.075  67.862  1.00  0.00    -0.188 C  
HETATM    7  O   UNL     1      -9.699  14.944  67.270  1.00  0.00    -0.224 OA 
HETATM    8  C   UNL     1      -9.625  12.664  68.293  1.00  0.00    -0.208 C  
HETATM    9  C   UNL     1      -7.457  11.814  68.774  1.00  0.00    -0.109 C  
HETATM   10  N   UNL     1      -8.760  11.874  69.339  1.00  0.00     0.728 N  
HETATM   11  C   UNL     1      -8.880  10.498  69.571  1.00  0.00    -0.022 C  
HETATM   12  H   UNL     1      -6.746  10.200  69.469  1.00  0.00     0.000 HD 
HETATM   13  C   UNL     1      -8.664   9.790  68.203  1.00  0.00    -0.119 C  
HETATM   14  O   UNL     1      -9.049  10.016  70.675  1.00  0.00     0.042 OA 
HETATM   15  O   UNL     1      -6.501  11.114  69.554  1.00  0.00    -0.089 OA 
HETATM   16  O   UNL     1      -7.825  10.978  67.633  1.00  0.00    -0.110 OA 
HETATM   17  C   UNL     1     -11.060   8.679  68.970  1.00  0.00     0.191 C  
HETATM   18  C   UNL     1     -10.881   9.303  66.555  1.00  0.00     0.177 C  
HETATM   19  C   UNL     1     -10.272   9.553  67.937  1.00  0.00    -0.251 C  
ENDROOT
BRANCH   8  20
HETATM   20  C   UNL     1     -11.132  12.836  68.560  1.00  0.00    -0.300 C  
BRANCH  20  21
HETATM   21  C   UNL     1     -11.387  13.380  69.984  1.00  0.00    -0.009 A  
HETATM   22  C   UNL     1     -11.290  15.377  71.350  1.00  0.00    -0.449 A  
HETATM   23  C   UNL     1     -12.919  13.697  71.846  1.00  0.00    -0.432 A  
HETATM   24  C   UNL     1     -12.407  12.892  70.834  1.00  0.00    -0.365 A  
HETATM   25  C   UNL     1     -12.400  14.954  72.083  1.00  0.00    -0.430 A  
HETATM   26  C   UNL     1     -10.784  14.599  70.313  1.00  0.00     0.082 A  
ENDBRANCH  20  21
ENDBRANCH   8  20
BRANCH  13  27
HETATM   27  N   UNL     1      -7.809   8.574  68.208  1.00  0.00    -0.105 NA 
HETATM   28  H   UNL     1      -7.198   8.319  67.434  1.00  0.00     0.000 HD 
BRANCH  27  29
HETATM   29  C   UNL     1      -7.913   7.870  69.287  1.00  0.00    -0.117 C  
HETATM   30  H   UNL     1      -9.046   6.542  70.272  1.00  0.00     0.000 HD 
HETATM   31  O   UNL     1      -8.969   7.060  69.479  1.00  0.00    -0.143 OA 
BRANCH  29  32
HETATM   32  C   UNL     1      -6.982   7.824  70.500  1.00  0.00    -0.046 C  
HETATM   33  C   UNL     1      -7.483   7.034  71.707  1.00  0.00    -0.087 C  
HETATM   34  N   UNL     1      -6.375   6.853  72.666  1.00  0.00    -0.053 NA 
HETATM   35  C   UNL     1      -5.242   5.999  72.175  1.00  0.00    -0.022 C  
HETATM   36  C   UNL     1      -6.833   6.568  74.014  1.00  0.00    -0.077 C  
HETATM   37  C   UNL     1      -5.178   4.523  72.722  1.00  0.00    -0.004 C  
HETATM   38  C   UNL     1      -6.311   3.776  72.125  1.00  0.00    -0.014 A  
HETATM   39  C   UNL     1      -7.332   3.019  72.645  1.00  0.00    -0.048 A  
HETATM   40  N   UNL     1      -8.256   2.831  71.635  1.00  0.00    -0.056 NA 
HETATM   41  C   UNL     1      -7.826   3.434  70.468  1.00  0.00    -0.043 A  
HETATM   42  H   UNL     1      -9.133   2.319  71.736  1.00  0.00     0.000 HD 
HETATM   43  C   UNL     1      -8.439   3.646  69.233  1.00  0.00    -0.096 A  
HETATM   44  C   UNL     1      -7.726   4.411  68.291  1.00  0.00    -0.075 A  
HETATM   45  C   UNL     1      -6.521   5.049  68.615  1.00  0.00    -0.037 A  
HETATM   46  C   UNL     1      -6.028   4.974  69.922  1.00  0.00    -0.021 A  
HETATM   47  C   UNL     1      -5.129   6.021  70.579  1.00  0.00    -0.013 C  
HETATM   48  C   UNL     1      -6.615   4.019  70.770  1.00  0.00    -0.031 A  
HETATM   49  C   UNL     1      -5.504   7.457  70.150  1.00  0.00    -0.023 C  
ENDBRANCH  29  32
ENDBRANCH  27  29
ENDBRANCH  13  27
TORSDOF 5
ENDMDL
MODEL      159
REMARK 921   NORMALIZED FREE ENERGY PREDICTED BY IDOCK:   -0.88 KCAL/MOL
REMARK 922        TOTAL FREE ENERGY PREDICTED BY IDOCK:   -2.98 KCAL/MOL
REMARK 923 INTER-LIGAND FREE ENERGY PREDICTED BY IDOCK:   -3.16 KCAL/MOL
REMARK 924 INTRA-LIGAND FREE ENERGY PREDICTED BY IDOCK:    0.18 KCAL/MOL
REMARK 927      BINDING AFFINITY PREDICTED BY RF-SCORE:    0.00 PKD
ROOT
HETATM    1  C   UNL     1      -8.860   5.155  72.010  1.00  0.00    -0.130 C  
HETATM    2  C   UNL     1      -8.690   5.814  73.374  1.00  0.00    -0.120 C  
HETATM    3  C   UNL     1      -8.964   4.641  74.360  1.00  0.00    -0.111 C  
HETATM    4  C   UNL     1      -9.611   3.536  73.536  1.00  0.00    -0.106 C  
HETATM    5  N   UNL     1      -9.816   4.121  72.232  1.00  0.00    -0.157 N  
HETATM    6  C   UNL     1     -10.049   3.236  71.210  1.00  0.00     0.142 C  
HETATM    7  O   UNL     1     -10.771   2.270  71.428  1.00  0.00     0.733 OA 
HETATM    8  C   UNL     1      -9.434   3.632  69.814  1.00  0.00    -0.184 C  
HETATM    9  C   UNL     1      -8.793   5.795  70.566  1.00  0.00    -0.139 C  
HETATM   10  N   UNL     1      -8.269   4.684  69.850  1.00  0.00    -0.067 N  
HETATM   11  C   UNL     1      -7.846   5.419  68.735  1.00  0.00    -0.087 C  
HETATM   12  H   UNL     1      -7.861   7.275  69.835  1.00  0.00     0.000 HD 
HETATM   13  C   UNL     1      -9.095   6.169  68.190  1.00  0.00    -0.111 C  
HETATM   14  O   UNL     1      -6.688   5.471  68.364  1.00  0.00    -0.050 OA 
HETATM   15  O   UNL     1      -7.902   6.890  70.703  1.00  0.00    -0.098 OA 
HETATM   16  O   UNL     1      -9.811   6.146  69.578  1.00  0.00    -0.152 OA 
HETATM   17  C   UNL     1      -8.226   4.914  65.903  1.00  0.00    -0.113 C  
HETATM   18  C   UNL     1     -10.702   4.920  66.260  1.00  0.00    -0.217 C  
HETATM   19  C   UNL     1      -9.357   5.093  66.971  1.00  0.00    -0.127 C  
ENDROOT
BRANCH   8  20
HETATM   20  C   UNL     1      -9.224   2.325  69.027  1.00  0.00    -0.207 C  
BRANCH  20  21
HETATM   21  C   UNL     1      -7.725   2.082  68.739  1.00  0.00    -0.047 A  
HETATM   22  C   UNL     1      -6.113   1.771  66.960  1.00  0.00    -0.020 A  
HETATM   23  C   UNL     1      -5.413   2.785  69.011  1.00  0.00    -0.013 A  
HETATM   24  C   UNL     1      -6.683   2.593  69.546  1.00  0.00    -0.033 A  
HETATM   25  C   UNL     1      -5.130   2.420  67.710  1.00  0.00    -0.008 A  
HETATM   26  C   UNL     1      -7.397   1.599  67.467  1.00  0.00    -0.054 A  
ENDBRANCH  20  21
ENDBRANCH   8  20
BRANCH  13  27
HETATM   27  N   UNL     1      -8.899   7.587  67.788  1.00  0.00    -0.132 NA 
HETATM   28  H   UNL     1      -8.231   7.877  67.076  1.00  0.00     0.000 HD 
BRANCH  27  29
HETATM   29  C   UNL     1      -9.656   8.417  68.427  1.00  0.00    -0.148 C  
HETATM   30  H   UNL     1     -11.526   8.780  69.051  1.00  0.00     0.000 HD 
HETATM   31  O   UNL     1     -10.969   8.170  68.582  1.00  0.00     0.013 OA 
BRANCH  29  32
HETATM   32  C   UNL     1      -9.292   9.762  69.058  1.00  0.00    -0.161 C  
HETATM   33  C   UNL     1      -7.804  10.098  69.123  1.00  0.00    -0.120 C  
HETATM   34  N   UNL     1      -7.639  11.518  69.493  1.00  0.00     0.159 NA 
HETATM   35  C   UNL     1      -8.143  12.502  68.477  1.00  0.00    -0.089 C  
HETATM   36  C   UNL     1      -6.331  11.811  70.051  1.00  0.00    -0.092 C  
HETATM   37  C   UNL     1      -7.060  13.216  67.584  1.00  0.00    -0.162 C  
HETATM   38  C   UNL     1      -6.495  12.198  66.666  1.00  0.00     0.290 A  
HETATM   39  C   UNL     1      -5.221  11.777  66.378  1.00  0.00     0.083 A  
HETATM   40  N   UNL     1      -5.332  10.594  65.672  1.00  0.00    -0.106 NA 
HETATM   41  C   UNL     1      -6.661  10.269  65.479  1.00  0.00    -0.128 A  
HETATM   42  H   UNL     1      -4.543  10.039  65.340  1.00  0.00     0.000 HD 
HETATM   43  C   UNL     1      -7.291   9.138  64.961  1.00  0.00    -0.100 A  
HETATM   44  C   UNL     1      -8.697   9.107  65.021  1.00  0.00    -0.222 A  
HETATM   45  C   UNL     1      -9.430  10.096  65.691  1.00  0.00    -0.275 A  
HETATM   46  C   UNL     1      -8.757  11.119  66.367  1.00  0.00    -0.177 A  
HETATM   47  C   UNL     1      -9.307  11.880  67.573  1.00  0.00    -0.177 C  
HETATM   48  C   UNL     1      -7.387  11.267  66.093  1.00  0.00     0.058 A  
HETATM   49  C   UNL     1     -10.126  10.965  68.511  1.00  0.00    -0.193 C  
ENDBRANCH  29  32
ENDBRANCH  27  29
ENDBRANCH  13  27
TORSDOF 5
ENDMDL
MODEL      160
REMARK 921   NORMALIZED FREE ENERGY PREDICTED BY IDOCK:   -0.87 KCAL/MOL
REMARK 922        TOTAL FREE ENERGY PREDICTED BY IDOCK:   -2.97 KCAL/MOL
REMARK 923 INTER-LIGAND FREE ENERGY PREDICTED BY IDOCK:   -3.49 KCAL/MOL
REMARK 924 INTRA-LIGAND FREE ENERGY PREDICTED BY IDOCK:    0.52 KCAL/MOL
REMARK 927      BINDING AFFINITY PREDICTED BY RF-SCORE:    0.00 PKD
ROOT
HETATM    1  C   UNL     1     -11.599  11.411  68.740  1.00  0.00    -0.313 C  
HETATM    2  C   UNL     1     -12.682  10.856  69.658  1.00  0.00     0.076 C  
HETATM    3  C   UNL     1     -13.198  12.129  70.391  1.00  0.00     0.809 C  
HETATM    4  C   UNL     1     -12.166  13.217  70.129  1.00  0.00    -0.306 C  
HETATM    5  N   UNL     1     -11.091  12.547  69.435  1.00  0.00    -0.141 N  
HETATM    6  C   UNL     1     -10.209  13.360  68.772  1.00  0.00    -0.119 C  
HETATM    7  O   UNL     1      -9.863  14.407  69.309  1.00  0.00    -0.097 OA 
HETATM    8  C   UNL     1      -9.648  12.791  67.414  1.00  0.00    -0.199 C  
HETATM    9  C   UNL     1     -10.616  10.648  67.766  1.00  0.00    -0.236 C  
HETATM   10  N   UNL     1     -10.485  11.638  66.754  1.00  0.00    -0.222 N  
HETATM   11  C   UNL     1      -9.986  10.774  65.771  1.00  0.00    -0.251 C  
HETATM   12  H   UNL     1     -10.741   9.028  66.788  1.00  0.00     0.000 HD 
HETATM   13  C   UNL     1      -8.713  10.104  66.364  1.00  0.00    -0.130 C  
HETATM   14  O   UNL     1     -10.538  10.580  64.704  1.00  0.00    -0.250 OA 
HETATM   15  O   UNL     1     -11.332   9.487  67.374  1.00  0.00     0.138 OA 
HETATM   16  O   UNL     1      -9.195  10.314  67.836  1.00  0.00    -0.137 OA 
HETATM   17  C   UNL     1      -7.711  11.073  63.994  1.00  0.00     0.624 C  
HETATM   18  C   UNL     1      -6.222  11.335  65.986  1.00  0.00     0.052 C  
HETATM   19  C   UNL     1      -7.672  11.094  65.559  1.00  0.00     0.265 C  
ENDROOT
BRANCH   8  20
HETATM   20  C   UNL     1      -9.247  14.000  66.549  1.00  0.00    -0.240 C  
BRANCH  20  21
HETATM   21  C   UNL     1     -10.493  14.759  66.038  1.00  0.00    -0.312 A  
HETATM   22  C   UNL     1     -11.241  16.862  65.102  1.00  0.00     0.157 A  
HETATM   23  C   UNL     1     -12.402  14.849  64.535  1.00  0.00    -0.330 A  
HETATM   24  C   UNL     1     -11.581  14.126  65.394  1.00  0.00    -0.334 A  
HETATM   25  C   UNL     1     -12.214  16.203  64.348  1.00  0.00     0.520 A  
HETATM   26  C   UNL     1     -10.390  16.150  65.942  1.00  0.00    -0.384 A  
ENDBRANCH  20  21
ENDBRANCH   8  20
BRANCH  13  27
HETATM   27  N   UNL     1      -8.555   8.646  66.128  1.00  0.00    -0.134 NA 
HETATM   28  H   UNL     1      -8.753   8.201  65.232  1.00  0.00     0.000 HD 
BRANCH  27  29
HETATM   29  C   UNL     1      -8.141   7.993  67.163  1.00  0.00    -0.117 C  
HETATM   30  H   UNL     1      -6.731   7.901  68.584  1.00  0.00     0.000 HD 
HETATM   31  O   UNL     1      -7.035   8.381  67.822  1.00  0.00    -0.072 OA 
BRANCH  29  32
HETATM   32  C   UNL     1      -8.722   6.729  67.799  1.00  0.00    -0.120 C  
HETATM   33  C   UNL     1      -7.735   5.830  68.542  1.00  0.00    -0.093 C  
HETATM   34  N   UNL     1      -8.481   4.823  69.321  1.00  0.00    -0.080 NA 
HETATM   35  C   UNL     1      -9.315   5.374  70.441  1.00  0.00    -0.159 C  
HETATM   36  C   UNL     1      -7.683   3.656  69.652  1.00  0.00    -0.051 C  
HETATM   37  C   UNL     1      -8.737   5.216  71.897  1.00  0.00    -0.135 C  
HETATM   38  C   UNL     1      -7.563   6.115  72.014  1.00  0.00    -0.096 A  
HETATM   39  C   UNL     1      -6.257   5.931  72.393  1.00  0.00    -0.045 A  
HETATM   40  N   UNL     1      -5.558   7.059  72.009  1.00  0.00    -0.037 NA 
HETATM   41  C   UNL     1      -6.406   7.975  71.414  1.00  0.00    -0.036 A  
HETATM   42  H   UNL     1      -4.556   7.198  72.145  1.00  0.00     0.000 HD 
HETATM   43  C   UNL     1      -6.179   9.180  70.750  1.00  0.00    -0.053 A  
HETATM   44  C   UNL     1      -7.296   9.803  70.163  1.00  0.00    -0.159 A  
HETATM   45  C   UNL     1      -8.553   9.186  70.123  1.00  0.00    -0.195 A  
HETATM   46  C   UNL     1      -8.704   7.891  70.630  1.00  0.00    -0.135 A  
HETATM   47  C   UNL     1      -9.758   6.887  70.164  1.00  0.00    -0.175 C  
HETATM   48  C   UNL     1      -7.655   7.391  71.419  1.00  0.00    -0.082 A  
HETATM   49  C   UNL     1     -10.013   6.979  68.643  1.00  0.00    -0.156 C  
ENDBRANCH  29  32
ENDBRANCH  27  29
ENDBRANCH  13  27
TORSDOF 5
ENDMDL
MODEL      161
REMARK 921   NORMALIZED FREE ENERGY PREDICTED BY IDOCK:   -0.76 KCAL/MOL
REMARK 922        TOTAL FREE ENERGY PREDICTED BY IDOCK:   -2.83 KCAL/MOL
REMARK 923 INTER-LIGAND FREE ENERGY PREDICTED BY IDOCK:   -2.41 KCAL/MOL
REMARK 924 INTRA-LIGAND FREE ENERGY PREDICTED BY IDOCK:   -0.41 KCAL/MOL
REMARK 927      BINDING AFFINITY PREDICTED BY RF-SCORE:    0.00 PKD
ROOT
HETATM    1  C   UNL     1      -8.013   7.365  65.472  1.00  0.00    -0.122 C  
HETATM    2  C   UNL     1      -8.530   7.386  64.038  1.00  0.00     0.283 C  
HETATM    3  C   UNL     1      -7.942   6.075  63.441  1.00  0.00    -0.112 C  
HETATM    4  C   UNL     1      -6.870   5.607  64.416  1.00  0.00    -0.050 C  
HETATM    5  N   UNL     1      -6.774   6.666  65.393  1.00  0.00    -0.049 N  
HETATM    6  C   UNL     1      -6.149   6.339  66.569  1.00  0.00    -0.029 C  
HETATM    7  O   UNL     1      -5.150   5.628  66.522  1.00  0.00    -0.005 OA 
HETATM    8  C   UNL     1      -6.738   7.017  67.864  1.00  0.00    -0.065 C  
HETATM    9  C   UNL     1      -8.177   8.442  66.618  1.00  0.00    -0.105 C  
HETATM   10  N   UNL     1      -8.201   7.573  67.743  1.00  0.00    -0.118 N  
HETATM   11  C   UNL     1      -8.759   8.503  68.630  1.00  0.00    -0.139 C  
HETATM   12  H   UNL     1      -9.508   9.729  67.022  1.00  0.00     0.000 HD 
HETATM   13  C   UNL     1      -7.819   9.743  68.632  1.00  0.00    -0.081 C  
HETATM   14  O   UNL     1      -9.820   8.334  69.201  1.00  0.00    -0.172 OA 
HETATM   15  O   UNL     1      -9.410   9.082  66.332  1.00  0.00    -0.173 OA 
HETATM   16  O   UNL     1      -7.269   9.425  67.205  1.00  0.00    -0.085 OA 
HETATM   17  C   UNL     1      -7.971   9.225  71.329  1.00  0.00     0.040 C  
HETATM   18  C   UNL     1      -5.706   9.849  70.473  1.00  0.00    -0.062 C  
HETATM   19  C   UNL     1      -7.080   9.329  70.045  1.00  0.00    -0.070 C  
ENDROOT
BRANCH   8  20
HETATM   20  C   UNL     1      -6.394   6.098  69.051  1.00  0.00    -0.041 C  
BRANCH  20  21
HETATM   21  C   UNL     1      -7.382   4.913  69.145  1.00  0.00    -0.053 A  
HETATM   22  C   UNL     1      -7.628   2.545  68.707  1.00  0.00    -0.047 A  
HETATM   23  C   UNL     1      -8.857   3.538  70.503  1.00  0.00    -0.142 A  
HETATM   24  C   UNL     1      -8.356   4.790  70.163  1.00  0.00    -0.079 A  
HETATM   25  C   UNL     1      -8.467   2.407  69.814  1.00  0.00    -0.088 A  
HETATM   26  C   UNL     1      -7.092   3.784  68.371  1.00  0.00    -0.051 A  
ENDBRANCH  20  21
ENDBRANCH   8  20
BRANCH  13  27
HETATM   27  N   UNL     1      -8.474  11.077  68.595  1.00  0.00    -0.152 NA 
HETATM   28  H   UNL     1      -9.025  11.449  69.368  1.00  0.00     0.000 HD 
BRANCH  27  29
HETATM   29  C   UNL     1      -8.278  11.721  67.492  1.00  0.00    -0.152 C  
HETATM   30  H   UNL     1      -6.888  12.436  66.238  1.00  0.00     0.000 HD 
HETATM   31  O   UNL     1      -7.032  11.962  67.049  1.00  0.00    -0.141 OA 
BRANCH  29  32
HETATM   32  C   UNL     1      -9.307  12.338  66.543  1.00  0.00    -0.230 C  
HETATM   33  C   UNL     1     -10.602  12.838  67.180  1.00  0.00    -0.237 C  
HETATM   34  N   UNL     1     -11.352  13.643  66.197  1.00  0.00    -0.307 NA 
HETATM   35  C   UNL     1     -10.687  14.924  65.783  1.00  0.00    -0.331 C  
HETATM   36  C   UNL     1     -12.766  13.746  66.508  1.00  0.00    -0.024 C  
HETATM   37  C   UNL     1     -11.247  16.250  66.419  1.00  0.00     0.280 C  
HETATM   38  C   UNL     1     -10.879  16.248  67.855  1.00  0.00    -0.330 A  
HETATM   39  C   UNL     1     -11.589  16.396  69.021  1.00  0.00    -0.143 A  
HETATM   40  N   UNL     1     -10.764  15.996  70.055  1.00  0.00    -0.325 NA 
HETATM   41  C   UNL     1      -9.526  15.622  69.569  1.00  0.00    -0.275 A  
HETATM   42  H   UNL     1     -11.032  15.980  71.040  1.00  0.00     0.000 HD 
HETATM   43  C   UNL     1      -8.415  15.029  70.169  1.00  0.00     0.627 A  
HETATM   44  C   UNL     1      -7.345  14.681  69.324  1.00  0.00    -0.149 A  
HETATM   45  C   UNL     1      -7.434  14.795  67.931  1.00  0.00    -0.156 A  
HETATM   46  C   UNL     1      -8.634  15.214  67.346  1.00  0.00    -0.201 A  
HETATM   47  C   UNL     1      -9.096  14.844  65.936  1.00  0.00     0.022 C  
HETATM   48  C   UNL     1      -9.594  15.781  68.201  1.00  0.00    -0.199 A  
HETATM   49  C   UNL     1      -8.708  13.397  65.561  1.00  0.00     1.622 C  
ENDBRANCH  29  32
ENDBRANCH  27  29
ENDBRANCH  13  27
TORSDOF 5
ENDMDL
MODEL      162
REMARK 921   NORMALIZED FREE ENERGY PREDICTED BY IDOCK:   -0.48 KCAL/MOL
REMARK 922        TOTAL FREE ENERGY PREDICTED BY IDOCK:   -2.46 KCAL/MOL
REMARK 923 INTER-LIGAND FREE ENERGY PREDICTED BY IDOCK:   -4.44 KCAL/MOL
REMARK 924 INTRA-LIGAND FREE ENERGY PREDICTED BY IDOCK:    1.98 KCAL/MOL
REMARK 927      BINDING AFFINITY PREDICTED BY RF-SCORE:    0.00 PKD
ROOT
HETATM    1  C   UNL     1      -7.121   8.111  67.393  1.00  0.00    -0.083 C  
HETATM    2  C   UNL     1      -5.718   7.935  66.824  1.00  0.00    -0.036 C  
HETATM    3  C   UNL     1      -5.434   6.425  67.067  1.00  0.00    -0.012 C  
HETATM    4  C   UNL     1      -6.493   5.947  68.052  1.00  0.00    -0.043 C  
HETATM    5  N   UNL     1      -7.206   7.143  68.435  1.00  0.00    -0.088 N  
HETATM    6  C   UNL     1      -8.426   6.946  69.028  1.00  0.00    -0.128 C  
HETATM    7  O   UNL     1      -8.544   6.031  69.835  1.00  0.00    -0.127 OA 
HETATM    8  C   UNL     1      -9.533   8.012  68.674  1.00  0.00    -0.147 C  
HETATM    9  C   UNL     1      -7.993   9.421  67.536  1.00  0.00    -0.102 C  
HETATM   10  N   UNL     1      -9.286   8.853  67.371  1.00  0.00    -0.134 N  
HETATM   11  C   UNL     1      -9.938  10.059  67.085  1.00  0.00    -0.201 C  
HETATM   12  H   UNL     1      -8.092  11.040  66.554  1.00  0.00     0.000 HD 
HETATM   13  C   UNL     1      -9.662  11.015  68.281  1.00  0.00    -0.177 C  
HETATM   14  O   UNL     1     -10.529  10.272  66.043  1.00  0.00    -0.200 OA 
HETATM   15  O   UNL     1      -7.567  10.252  66.468  1.00  0.00    -0.105 OA 
HETATM   16  O   UNL     1      -8.345  10.271  68.672  1.00  0.00    -0.109 OA 
HETATM   17  C   UNL     1     -12.405  11.154  68.150  1.00  0.00     0.700 C  
HETATM   18  C   UNL     1     -11.437  11.029  70.452  1.00  0.00    -0.316 C  
HETATM   19  C   UNL     1     -11.134  10.763  68.976  1.00  0.00    -0.308 C  
ENDROOT
BRANCH   8  20
HETATM   20  C   UNL     1     -10.898   7.322  68.859  1.00  0.00    -0.119 C  
BRANCH  20  21
HETATM   21  C   UNL     1     -11.236   7.148  70.357  1.00  0.00    -0.320 A  
HETATM   22  C   UNL     1     -11.600   5.495  72.089  1.00  0.00    -0.126 A  
HETATM   23  C   UNL     1     -10.707   7.635  72.680  1.00  0.00    -0.377 A  
HETATM   24  C   UNL     1     -10.827   8.056  71.360  1.00  0.00    -0.271 A  
HETATM   25  C   UNL     1     -11.047   6.348  73.046  1.00  0.00    -0.231 A  
HETATM   26  C   UNL     1     -11.698   5.889  70.757  1.00  0.00     0.150 A  
ENDBRANCH  20  21
ENDBRANCH   8  20
BRANCH  13  27
HETATM   27  N   UNL     1      -9.322  12.423  67.945  1.00  0.00    -0.189 NA 
HETATM   28  H   UNL     1      -8.580  12.677  67.295  1.00  0.00     0.000 HD 
BRANCH  27  29
HETATM   29  C   UNL     1     -10.056  13.293  68.555  1.00  0.00    -0.206 C  
HETATM   30  H   UNL     1     -10.912  13.777  70.302  1.00  0.00     0.000 HD 
HETATM   31  O   UNL     1     -10.373  13.137  69.853  1.00  0.00     0.865 OA 
BRANCH  29  32
HETATM   32  C   UNL     1     -10.711  14.559  67.999  1.00  0.00    -0.243 C  
HETATM   33  C   UNL     1     -10.413  15.859  68.745  1.00  0.00    -0.237 C  
HETATM   34  N   UNL     1     -10.879  17.003  67.937  1.00  0.00    -0.341 NA 
HETATM   35  C   UNL     1     -10.149  17.206  66.640  1.00  0.00    -0.306 C  
HETATM   36  C   UNL     1     -11.096  18.203  68.725  1.00  0.00     0.944 C  
HETATM   37  C   UNL     1      -9.083  18.364  66.601  1.00  0.00    -0.301 C  
HETATM   38  C   UNL     1      -7.941  17.952  67.452  1.00  0.00    -0.221 A  
HETATM   39  C   UNL     1      -7.279  18.532  68.505  1.00  0.00    -0.288 A  
HETATM   40  N   UNL     1      -6.503  17.549  69.090  1.00  0.00    -0.230 NA 
HETATM   41  C   UNL     1      -6.638  16.356  68.407  1.00  0.00    -0.136 A  
HETATM   42  H   UNL     1      -5.913  17.686  69.911  1.00  0.00     0.000 HD 
HETATM   43  C   UNL     1      -6.186  15.062  68.667  1.00  0.00    -0.085 A  
HETATM   44  C   UNL     1      -6.616  14.049  67.791  1.00  0.00    -0.188 A  
HETATM   45  C   UNL     1      -7.561  14.291  66.786  1.00  0.00     0.681 A  
HETATM   46  C   UNL     1      -8.141  15.559  66.672  1.00  0.00    -0.189 A  
HETATM   47  C   UNL     1      -9.526  15.839  66.089  1.00  0.00    -0.375 C  
HETATM   48  C   UNL     1      -7.529  16.604  67.385  1.00  0.00    -0.188 A  
HETATM   49  C   UNL     1     -10.542  14.735  66.456  1.00  0.00    -0.299 C  
ENDBRANCH  29  32
ENDBRANCH  27  29
ENDBRANCH  13  27
TORSDOF 5
ENDMDL
MODEL      163
REMARK 921   NORMALIZED FREE ENERGY PREDICTED BY IDOCK:   -0.13 KCAL/MOL
REMARK 922        TOTAL FREE ENERGY PREDICTED BY IDOCK:   -2.01 KCAL/MOL
REMARK 923 INTER-LIGAND FREE ENERGY PREDICTED BY IDOCK:   -8.57 KCAL/MOL
REMARK 924 INTRA-LIGAND FREE ENERGY PREDICTED BY IDOCK:    6.55 KCAL/MOL
REMARK 927      BINDING AFFINITY PREDICTED BY RF-SCORE:    0.00 PKD
ROOT
HETATM    1  C   UNL     1     -10.469  12.496  65.744  1.00  0.00    -0.271 C  
HETATM    2  C   UNL     1     -11.353  11.433  65.102  1.00  0.00    -0.079 C  
HETATM    3  C   UNL     1     -12.241  12.263  64.131  1.00  0.00    -0.539 C  
HETATM    4  C   UNL     1     -12.071  13.720  64.541  1.00  0.00    -0.428 C  
HETATM    5  N   UNL     1     -11.272  13.674  65.742  1.00  0.00    -0.294 N  
HETATM    6  C   UNL     1     -10.677  14.853  66.110  1.00  0.00    -0.317 C  
HETATM    7  O   UNL     1     -11.317  15.892  65.992  1.00  0.00    -0.014 OA 
HETATM    8  C   UNL     1      -9.245  14.720  66.756  1.00  0.00    -0.260 C  
HETATM    9  C   UNL     1      -9.383  12.350  66.883  1.00  0.00    -0.213 C  
HETATM   10  N   UNL     1      -8.487  13.375  66.475  1.00  0.00     0.171 N  
HETATM   11  C   UNL     1      -7.396  12.921  67.227  1.00  0.00    -0.070 C  
HETATM   12  H   UNL     1      -8.233  10.942  67.420  1.00  0.00     0.000 HD 
HETATM   13  C   UNL     1      -7.869  12.854  68.708  1.00  0.00     0.040 C  
HETATM   14  O   UNL     1      -6.333  12.590  66.738  1.00  0.00    -0.111 OA 
HETATM   15  O   UNL     1      -8.886  11.030  66.735  1.00  0.00    -0.148 OA 
HETATM   16  O   UNL     1      -9.369  12.694  68.303  1.00  0.00    -0.209 OA 
HETATM   17  C   UNL     1      -5.592  14.373  68.976  1.00  0.00    -0.084 C  
HETATM   18  C   UNL     1      -7.551  15.110  70.344  1.00  0.00     0.670 C  
HETATM   19  C   UNL     1      -7.148  14.274  69.127  1.00  0.00    -0.117 C  
ENDROOT
BRANCH   8  20
HETATM   20  C   UNL     1      -8.511  16.049  66.501  1.00  0.00    -0.348 C  
BRANCH  20  21
HETATM   21  C   UNL     1      -9.391  17.258  66.893  1.00  0.00    -0.264 A  
HETATM   22  C   UNL     1      -9.926  18.766  68.710  1.00  0.00    -0.442 A  
HETATM   23  C   UNL     1     -10.105  19.541  66.454  1.00  0.00    -0.551 A  
HETATM   24  C   UNL     1      -9.767  18.275  65.986  1.00  0.00    -0.114 A  
HETATM   25  C   UNL     1     -10.144  19.808  67.807  1.00  0.00    -0.551 A  
HETATM   26  C   UNL     1      -9.556  17.502  68.261  1.00  0.00    -0.299 A  
ENDBRANCH  20  21
ENDBRANCH   8  20
BRANCH  13  27
HETATM   27  N   UNL     1      -7.463  11.653  69.485  1.00  0.00    -0.341 NA 
HETATM   28  H   UNL     1      -6.653  11.637  70.104  1.00  0.00     0.000 HD 
BRANCH  27  29
HETATM   29  C   UNL     1      -8.233  10.632  69.302  1.00  0.00    -0.115 C  
HETATM   30  H   UNL     1     -10.100   9.933  69.504  1.00  0.00     0.000 HD 
HETATM   31  O   UNL     1      -9.534  10.683  69.638  1.00  0.00    -0.091 OA 
BRANCH  29  32
HETATM   32  C   UNL     1      -7.881   9.246  68.757  1.00  0.00    -0.088 C  
HETATM   33  C   UNL     1      -7.529   8.180  69.792  1.00  0.00    -0.084 C  
HETATM   34  N   UNL     1      -7.491   6.857  69.139  1.00  0.00    -0.093 NA 
HETATM   35  C   UNL     1      -8.810   6.369  68.614  1.00  0.00    -0.120 C  
HETATM   36  C   UNL     1      -6.713   5.881  69.879  1.00  0.00    -0.052 C  
HETATM   37  C   UNL     1      -9.550   5.273  69.470  1.00  0.00    -0.213 C  
HETATM   38  C   UNL     1     -10.019   5.921  70.718  1.00  0.00    -0.241 A  
HETATM   39  C   UNL     1      -9.866   5.640  72.053  1.00  0.00    -0.163 A  
HETATM   40  N   UNL     1     -10.264   6.761  72.755  1.00  0.00    -0.181 NA 
HETATM   41  C   UNL     1     -10.698   7.746  71.887  1.00  0.00    -0.225 A  
HETATM   42  H   UNL     1     -10.241   6.850  73.771  1.00  0.00     0.000 HD 
HETATM   43  C   UNL     1     -11.063   9.079  72.077  1.00  0.00    -0.371 A  
HETATM   44  C   UNL     1     -11.351   9.831  70.923  1.00  0.00    -0.439 A  
HETATM   45  C   UNL     1     -11.150   9.317  69.635  1.00  0.00    -0.134 A  
HETATM   46  C   UNL     1     -10.600   8.041  69.477  1.00  0.00    -0.216 A  
HETATM   47  C   UNL     1      -9.795   7.579  68.262  1.00  0.00    -0.177 C  
HETATM   48  C   UNL     1     -10.550   7.224  70.620  1.00  0.00    -0.240 A  
HETATM   49  C   UNL     1      -8.898   8.704  67.701  1.00  0.00    -0.138 C  
ENDBRANCH  29  32
ENDBRANCH  27  29
ENDBRANCH  13  27
TORSDOF 5
ENDMDL
MODEL      164
REMARK 921   NORMALIZED FREE ENERGY PREDICTED BY IDOCK:   -0.07 KCAL/MOL
REMARK 922        TOTAL FREE ENERGY PREDICTED BY IDOCK:   -1.94 KCAL/MOL
REMARK 923 INTER-LIGAND FREE ENERGY PREDICTED BY IDOCK:   -5.81 KCAL/MOL
REMARK 924 INTRA-LIGAND FREE ENERGY PREDICTED BY IDOCK:    3.87 KCAL/MOL
REMARK 927      BINDING AFFINITY PREDICTED BY RF-SCORE:    0.00 PKD
ROOT
HETATM    1  C   UNL     1      -7.776   6.584  67.163  1.00  0.00    -0.100 C  
HETATM    2  C   UNL     1      -7.531   6.687  65.662  1.00  0.00    -0.082 C  
HETATM    3  C   UNL     1      -6.169   5.956  65.483  1.00  0.00    -0.037 C  
HETATM    4  C   UNL     1      -5.574   5.821  66.878  1.00  0.00    -0.016 C  
HETATM    5  N   UNL     1      -6.471   6.560  67.735  1.00  0.00    -0.050 N  
HETATM    6  C   UNL     1      -6.365   6.299  69.077  1.00  0.00    -0.041 C  
HETATM    7  O   UNL     1      -5.247   6.150  69.557  1.00  0.00    -0.011 OA 
HETATM    8  C   UNL     1      -7.719   6.329  69.883  1.00  0.00    -0.105 C  
HETATM    9  C   UNL     1      -8.948   7.183  68.036  1.00  0.00    -0.127 C  
HETATM   10  N   UNL     1      -9.029   6.172  69.032  1.00  0.00    -0.125 N  
HETATM   11  C   UNL     1     -10.305   6.524  69.491  1.00  0.00    -0.200 C  
HETATM   12  H   UNL     1     -10.763   7.600  67.679  1.00  0.00     0.000 HD 
HETATM   13  C   UNL     1     -10.235   8.019  69.914  1.00  0.00    -0.204 C  
HETATM   14  O   UNL     1     -11.259   5.769  69.467  1.00  0.00    -0.343 OA 
HETATM   15  O   UNL     1     -10.058   7.240  67.154  1.00  0.00    -0.190 OA 
HETATM   16  O   UNL     1      -9.033   8.312  68.960  1.00  0.00    -0.146 OA 
HETATM   17  C   UNL     1     -11.285   6.902  72.196  1.00  0.00    -0.293 C  
HETATM   18  C   UNL     1      -9.542   8.659  72.555  1.00  0.00    -0.257 C  
HETATM   19  C   UNL     1     -10.108   7.683  71.521  1.00  0.00    -0.205 C  
ENDROOT
BRANCH   8  20
HETATM   20  C   UNL     1      -7.528   5.427  71.117  1.00  0.00    -0.085 C  
BRANCH  20  21
HETATM   21  C   UNL     1      -7.668   3.934  70.745  1.00  0.00    -0.051 A  
HETATM   22  C   UNL     1      -9.041   2.352  69.530  1.00  0.00    -0.182 A  
HETATM   23  C   UNL     1      -6.695   1.937  69.753  1.00  0.00    -0.033 A  
HETATM   24  C   UNL     1      -6.563   3.074  70.545  1.00  0.00    -0.032 A  
HETATM   25  C   UNL     1      -7.915   1.593  69.206  1.00  0.00    -0.055 A  
HETATM   26  C   UNL     1      -8.922   3.509  70.294  1.00  0.00    -0.173 A  
ENDBRANCH  20  21
ENDBRANCH   8  20
BRANCH  13  27
HETATM   27  N   UNL     1     -11.376   8.881  69.508  1.00  0.00    -0.423 NA 
HETATM   28  H   UNL     1     -12.351   8.619  69.649  1.00  0.00     0.000 HD 
BRANCH  27  29
HETATM   29  C   UNL     1     -11.016   9.995  68.960  1.00  0.00    -0.212 C  
HETATM   30  H   UNL     1     -11.009  11.989  69.158  1.00  0.00     0.000 HD 
HETATM   31  O   UNL     1     -11.273  11.170  69.561  1.00  0.00    -0.244 OA 
BRANCH  29  32
HETATM   32  C   UNL     1     -10.323  10.227  67.616  1.00  0.00    -0.264 C  
HETATM   33  C   UNL     1     -11.151  10.922  66.538  1.00  0.00    -0.048 C  
HETATM   34  N   UNL     1     -10.270  11.317  65.422  1.00  0.00    -0.258 NA 
HETATM   35  C   UNL     1      -9.245  12.362  65.760  1.00  0.00     0.080 C  
HETATM   36  C   UNL     1     -10.987  11.525  64.178  1.00  0.00    -0.366 C  
HETATM   37  C   UNL     1      -9.543  13.829  65.271  1.00  0.00     0.117 C  
HETATM   38  C   UNL     1     -10.678  14.346  66.071  1.00  0.00    -0.302 A  
HETATM   39  C   UNL     1     -11.891  14.905  65.753  1.00  0.00    -0.118 A  
HETATM   40  N   UNL     1     -12.654  14.906  66.906  1.00  0.00    -0.055 NA 
HETATM   41  C   UNL     1     -11.935  14.382  67.963  1.00  0.00    -0.291 A  
HETATM   42  H   UNL     1     -13.614  15.247  66.967  1.00  0.00     0.000 HD 
HETATM   43  C   UNL     1     -12.286  14.046  69.270  1.00  0.00    -0.319 A  
HETATM   44  C   UNL     1     -11.300  13.418  70.053  1.00  0.00    -0.009 A  
HETATM   45  C   UNL     1     -10.069  13.020  69.514  1.00  0.00     0.888 A  
HETATM   46  C   UNL     1      -9.821  13.199  68.150  1.00  0.00    -0.228 A  
HETATM   47  C   UNL     1      -8.868  12.344  67.314  1.00  0.00    -0.192 C  
HETATM   48  C   UNL     1     -10.704  14.036  67.447  1.00  0.00    -0.285 A  
HETATM   49  C   UNL     1      -8.899  10.859  67.739  1.00  0.00    -0.135 C  
ENDBRANCH  29  32
ENDBRANCH  27  29
ENDBRANCH  13  27
TORSDOF 5
ENDMDL
MODEL      165
REMARK 921   NORMALIZED FREE ENERGY PREDICTED BY IDOCK:    0.05 KCAL/MOL
REMARK 922        TOTAL FREE ENERGY PREDICTED BY IDOCK:   -1.78 KCAL/MOL
REMARK 923 INTER-LIGAND FREE ENERGY PREDICTED BY IDOCK:   -5.80 KCAL/MOL
REMARK 924 INTRA-LIGAND FREE ENERGY PREDICTED BY IDOCK:    4.02 KCAL/MOL
REMARK 927      BINDING AFFINITY PREDICTED BY RF-SCORE:    0.00 PKD
ROOT
HETATM    1  C   UNL     1      -9.729  10.655  65.254  1.00  0.00    -0.259 C  
HETATM    2  C   UNL     1     -10.229  12.072  65.000  1.00  0.00    -0.308 C  
HETATM    3  C   UNL     1     -10.418  12.099  63.456  1.00  0.00    -0.490 C  
HETATM    4  C   UNL     1      -9.689  10.876  62.917  1.00  0.00    -0.317 C  
HETATM    5  N   UNL     1      -9.022  10.309  64.065  1.00  0.00    -0.216 N  
HETATM    6  C   UNL     1      -8.595   9.013  63.929  1.00  0.00    -0.132 C  
HETATM    7  O   UNL     1      -8.100   8.670  62.861  1.00  0.00    -0.159 OA 
HETATM    8  C   UNL     1      -8.696   8.124  65.226  1.00  0.00    -0.059 C  
HETATM    9  C   UNL     1      -9.268   9.975  66.604  1.00  0.00    -0.149 C  
HETATM   10  N   UNL     1      -9.677   8.640  66.338  1.00  0.00    -0.249 N  
HETATM   11  C   UNL     1      -9.643   8.211  67.671  1.00  0.00    -0.152 C  
HETATM   12  H   UNL     1      -9.740  10.230  68.423  1.00  0.00     0.000 HD 
HETATM   13  C   UNL     1      -8.205   8.487  68.195  1.00  0.00    -0.120 C  
HETATM   14  O   UNL     1     -10.614   7.780  68.263  1.00  0.00    -0.190 OA 
HETATM   15  O   UNL     1     -10.017  10.639  67.610  1.00  0.00    -0.164 OA 
HETATM   16  O   UNL     1      -7.960   9.625  67.155  1.00  0.00    -0.105 OA 
HETATM   17  C   UNL     1      -8.472   5.827  68.842  1.00  0.00    -0.104 C  
HETATM   18  C   UNL     1      -6.247   6.497  67.918  1.00  0.00    -0.028 C  
HETATM   19  C   UNL     1      -7.713   6.924  68.022  1.00  0.00    -0.113 C  
ENDROOT
BRANCH   8  20
HETATM   20  C   UNL     1      -8.812   6.660  64.762  1.00  0.00     0.431 C  
BRANCH  20  21
HETATM   21  C   UNL     1      -7.444   5.943  64.831  1.00  0.00    -0.077 A  
HETATM   22  C   UNL     1      -6.381   3.770  64.743  1.00  0.00    -0.027 A  
HETATM   23  C   UNL     1      -5.181   5.692  63.977  1.00  0.00    -0.013 A  
HETATM   24  C   UNL     1      -6.241   6.511  64.353  1.00  0.00    -0.037 A  
HETATM   25  C   UNL     1      -5.258   4.322  64.125  1.00  0.00    -0.012 A  
HETATM   26  C   UNL     1      -7.464   4.569  65.096  1.00  0.00    -0.076 A  
ENDBRANCH  20  21
ENDBRANCH   8  20
BRANCH  13  27
HETATM   27  N   UNL     1      -8.091   9.067  69.559  1.00  0.00    -0.101 NA 
HETATM   28  H   UNL     1      -7.915  10.056  69.731  1.00  0.00     0.000 HD 
BRANCH  27  29
HETATM   29  C   UNL     1      -8.238   8.200  70.506  1.00  0.00    -0.117 C  
HETATM   30  H   UNL     1      -7.437   6.588  71.388  1.00  0.00     0.000 HD 
HETATM   31  O   UNL     1      -7.330   7.225  70.691  1.00  0.00    -0.069 OA 
BRANCH  29  32
HETATM   32  C   UNL     1      -9.379   8.060  71.515  1.00  0.00    -0.196 C  
HETATM   33  C   UNL     1     -10.192   6.769  71.442  1.00  0.00    -0.198 C  
HETATM   34  N   UNL     1     -11.054   6.666  72.636  1.00  0.00    -0.252 NA 
HETATM   35  C   UNL     1     -10.322   6.509  73.938  1.00  0.00    -0.335 C  
HETATM   36  C   UNL     1     -12.185   5.776  72.444  1.00  0.00     0.070 C  
HETATM   37  C   UNL     1     -10.287   5.062  74.560  1.00  0.00    -0.315 C  
HETATM   38  C   UNL     1      -9.418   4.225  73.699  1.00  0.00    -0.123 A  
HETATM   39  C   UNL     1      -9.585   3.022  73.060  1.00  0.00    -0.098 A  
HETATM   40  N   UNL     1      -8.546   2.890  72.159  1.00  0.00    -0.072 NA 
HETATM   41  C   UNL     1      -7.700   3.980  72.235  1.00  0.00    -0.079 A  
HETATM   42  H   UNL     1      -8.420   2.099  71.527  1.00  0.00     0.000 HD 
HETATM   43  C   UNL     1      -6.609   4.385  71.464  1.00  0.00    -0.026 A  
HETATM   44  C   UNL     1      -6.043   5.636  71.771  1.00  0.00    -0.034 A  
HETATM   45  C   UNL     1      -6.621   6.501  72.709  1.00  0.00    -0.064 A  
HETATM   46  C   UNL     1      -7.824   6.147  73.328  1.00  0.00    -0.100 A  
HETATM   47  C   UNL     1      -8.852   7.138  73.873  1.00  0.00    -0.222 C  
HETATM   48  C   UNL     1      -8.238   4.810  73.194  1.00  0.00    -0.101 A  
HETATM   49  C   UNL     1      -8.971   8.396  72.985  1.00  0.00    -0.242 C  
ENDBRANCH  29  32
ENDBRANCH  27  29
ENDBRANCH  13  27
TORSDOF 5
ENDMDL
MODEL      166
REMARK 921   NORMALIZED FREE ENERGY PREDICTED BY IDOCK:    0.20 KCAL/MOL
REMARK 922        TOTAL FREE ENERGY PREDICTED BY IDOCK:   -1.58 KCAL/MOL
REMARK 923 INTER-LIGAND FREE ENERGY PREDICTED BY IDOCK:   -4.27 KCAL/MOL
REMARK 924 INTRA-LIGAND FREE ENERGY PREDICTED BY IDOCK:    2.68 KCAL/MOL
REMARK 927      BINDING AFFINITY PREDICTED BY RF-SCORE:    0.00 PKD
ROOT
HETATM    1  C   UNL     1     -12.031  11.776  70.148  1.00  0.00    -0.339 C  
HETATM    2  C   UNL     1     -13.100  12.096  71.186  1.00  0.00    -0.113 C  
HETATM    3  C   UNL     1     -13.627  13.484  70.721  1.00  0.00     0.405 C  
HETATM    4  C   UNL     1     -12.611  14.009  69.716  1.00  0.00    -0.079 C  
HETATM    5  N   UNL     1     -11.533  13.049  69.746  1.00  0.00    -0.197 N  
HETATM    6  C   UNL     1     -10.666  13.092  68.685  1.00  0.00    -0.248 C  
HETATM    7  O   UNL     1     -10.329  14.187  68.248  1.00  0.00    -0.232 OA 
HETATM    8  C   UNL     1     -10.107  11.697  68.208  1.00  0.00    -0.202 C  
HETATM    9  C   UNL     1     -11.045  10.543  70.063  1.00  0.00    -0.308 C  
HETATM   10  N   UNL     1     -10.934  10.438  68.650  1.00  0.00    -0.229 N  
HETATM   11  C   UNL     1     -10.431   9.130  68.642  1.00  0.00    -0.207 C  
HETATM   12  H   UNL     1     -11.156   8.739  70.635  1.00  0.00     0.000 HD 
HETATM   13  C   UNL     1      -9.146   9.138  69.519  1.00  0.00    -0.155 C  
HETATM   14  O   UNL     1     -10.988   8.199  68.091  1.00  0.00     0.013 OA 
HETATM   15  O   UNL     1     -11.749   9.481  70.686  1.00  0.00    -0.270 OA 
HETATM   16  O   UNL     1      -9.620  10.380  70.339  1.00  0.00     0.242 OA 
HETATM   17  C   UNL     1      -8.173   8.000  67.212  1.00  0.00    -0.122 C  
HETATM   18  C   UNL     1      -6.673   9.674  68.308  1.00  0.00    -0.061 C  
HETATM   19  C   UNL     1      -8.123   9.190  68.229  1.00  0.00    -0.104 C  
ENDROOT
BRANCH   8  20
HETATM   20  C   UNL     1      -9.728  11.847  66.723  1.00  0.00    -0.218 C  
BRANCH  20  21
HETATM   21  C   UNL     1      -8.250  12.271  66.564  1.00  0.00     0.110 A  
HETATM   22  C   UNL     1      -6.485  13.587  67.570  1.00  0.00    -0.113 A  
HETATM   23  C   UNL     1      -5.917  11.630  66.317  1.00  0.00     0.177 A  
HETATM   24  C   UNL     1      -7.257  11.439  65.997  1.00  0.00     0.231 A  
HETATM   25  C   UNL     1      -5.526  12.670  67.136  1.00  0.00     0.074 A  
HETATM   26  C   UNL     1      -7.834  13.395  67.286  1.00  0.00    -0.107 A  
ENDBRANCH  20  21
ENDBRANCH   8  20
BRANCH  13  27
HETATM   27  N   UNL     1      -8.970   7.997  70.455  1.00  0.00    -0.150 NA 
HETATM   28  H   UNL     1      -9.578   7.836  71.258  1.00  0.00     0.000 HD 
BRANCH  27  29
HETATM   29  C   UNL     1      -7.975   7.229  70.158  1.00  0.00    -0.112 C  
HETATM   30  H   UNL     1      -5.980   7.124  69.993  1.00  0.00     0.000 HD 
HETATM   31  O   UNL     1      -6.712   7.688  70.212  1.00  0.00    -0.045 OA 
BRANCH  29  32
HETATM   32  C   UNL     1      -7.990   5.776  69.679  1.00  0.00    -0.100 C  
HETATM   33  C   UNL     1      -7.019   4.824  70.375  1.00  0.00    -0.045 C  
HETATM   34  N   UNL     1      -7.347   3.434  70.005  1.00  0.00    -0.041 NA 
HETATM   35  C   UNL     1      -8.680   2.943  70.494  1.00  0.00    -0.069 C  
HETATM   36  C   UNL     1      -6.237   2.518  70.195  1.00  0.00    -0.024 C  
HETATM   37  C   UNL     1      -8.666   1.987  71.745  1.00  0.00    -0.093 C  
HETATM   38  C   UNL     1      -8.266   2.795  72.922  1.00  0.00    -0.070 A  
HETATM   39  C   UNL     1      -7.292   2.665  73.880  1.00  0.00    -0.041 A  
HETATM   40  N   UNL     1      -7.203   3.877  74.539  1.00  0.00    -0.063 NA 
HETATM   41  C   UNL     1      -8.128   4.771  74.033  1.00  0.00    -0.101 A  
HETATM   42  H   UNL     1      -6.547   4.083  75.292  1.00  0.00     0.000 HD 
HETATM   43  C   UNL     1      -8.346   6.131  74.254  1.00  0.00    -0.116 A  
HETATM   44  C   UNL     1      -9.330   6.755  73.464  1.00  0.00    -0.179 A  
HETATM   45  C   UNL     1      -9.967   6.086  72.411  1.00  0.00    -0.190 A  
HETATM   46  C   UNL     1      -9.588   4.778  72.091  1.00  0.00    -0.202 A  
HETATM   47  C   UNL     1      -9.715   4.144  70.705  1.00  0.00    -0.266 C  
HETATM   48  C   UNL     1      -8.793   4.099  73.030  1.00  0.00    -0.103 A  
HETATM   49  C   UNL     1      -9.421   5.157  69.577  1.00  0.00    -0.205 C  
ENDBRANCH  29  32
ENDBRANCH  27  29
ENDBRANCH  13  27
TORSDOF 5
ENDMDL
MODEL      167
REMARK 921   NORMALIZED FREE ENERGY PREDICTED BY IDOCK:    0.34 KCAL/MOL
REMARK 922        TOTAL FREE ENERGY PREDICTED BY IDOCK:   -1.41 KCAL/MOL
REMARK 923 INTER-LIGAND FREE ENERGY PREDICTED BY IDOCK:   -6.04 KCAL/MOL
REMARK 924 INTRA-LIGAND FREE ENERGY PREDICTED BY IDOCK:    4.63 KCAL/MOL
REMARK 927      BINDING AFFINITY PREDICTED BY RF-SCORE:    0.00 PKD
ROOT
HETATM    1  C   UNL     1      -9.795  10.602  65.175  1.00  0.00    -0.284 C  
HETATM    2  C   UNL     1      -9.020  10.103  63.961  1.00  0.00    -0.265 C  
HETATM    3  C   UNL     1      -9.399  11.136  62.861  1.00  0.00    -0.385 C  
HETATM    4  C   UNL     1     -10.603  11.901  63.393  1.00  0.00    -0.430 C  
HETATM    5  N   UNL     1     -10.949  11.231  64.625  1.00  0.00    -0.261 N  
HETATM    6  C   UNL     1     -11.763  11.932  65.477  1.00  0.00    -0.157 C  
HETATM    7  O   UNL     1     -12.687  12.582  65.001  1.00  0.00    -0.649 OA 
HETATM    8  C   UNL     1     -11.473  11.729  67.014  1.00  0.00    -0.298 C  
HETATM    9  C   UNL     1      -9.920   9.973  66.619  1.00  0.00    -0.216 C  
HETATM   10  N   UNL     1     -10.052  11.169  67.377  1.00  0.00    -0.182 N  
HETATM   11  C   UNL     1      -9.733  10.592  68.613  1.00  0.00    -0.173 C  
HETATM   12  H   UNL     1      -8.774   8.899  67.681  1.00  0.00     0.000 HD 
HETATM   13  C   UNL     1     -10.734   9.422  68.836  1.00  0.00    -0.178 C  
HETATM   14  O   UNL     1      -8.790  10.946  69.295  1.00  0.00    -0.095 OA 
HETATM   15  O   UNL     1      -8.699   9.278  66.812  1.00  0.00    -0.125 OA 
HETATM   16  O   UNL     1     -10.983   9.241  67.304  1.00  0.00    -0.166 OA 
HETATM   17  C   UNL     1     -11.060  10.815  71.184  1.00  0.00     0.869 C  
HETATM   18  C   UNL     1     -13.159   9.934  70.149  1.00  0.00     0.376 C  
HETATM   19  C   UNL     1     -11.698  10.284  69.856  1.00  0.00    -0.298 C  
ENDROOT
BRANCH   8  20
HETATM   20  C   UNL     1     -11.975  12.992  67.737  1.00  0.00    -0.344 C  
BRANCH  20  21
HETATM   21  C   UNL     1     -11.130  14.229  67.355  1.00  0.00    -0.314 A  
HETATM   22  C   UNL     1      -8.910  15.184  67.491  1.00  0.00    -0.190 A  
HETATM   23  C   UNL     1     -10.310  15.736  65.632  1.00  0.00    -0.411 A  
HETATM   24  C   UNL     1     -11.346  14.988  66.182  1.00  0.00    -0.270 A  
HETATM   25  C   UNL     1      -9.079  15.804  66.252  1.00  0.00    -0.373 A  
HETATM   26  C   UNL     1      -9.924  14.406  68.041  1.00  0.00    -0.225 A  
ENDBRANCH  20  21
ENDBRANCH   8  20
BRANCH  13  27
HETATM   27  N   UNL     1     -10.171   8.155  69.371  1.00  0.00    -0.206 NA 
HETATM   28  H   UNL     1     -10.487   7.728  70.241  1.00  0.00     0.000 HD 
BRANCH  27  29
HETATM   29  C   UNL     1      -9.244   7.644  68.630  1.00  0.00    -0.141 C  
HETATM   30  H   UNL     1      -8.848   6.781  66.865  1.00  0.00     0.000 HD 
HETATM   31  O   UNL     1      -9.530   7.156  67.410  1.00  0.00    -0.127 OA 
BRANCH  29  32
HETATM   32  C   UNL     1      -7.759   7.451  68.943  1.00  0.00    -0.115 C  
HETATM   33  C   UNL     1      -7.428   6.537  70.121  1.00  0.00    -0.094 C  
HETATM   34  N   UNL     1      -5.983   6.236  70.117  1.00  0.00    -0.025 NA 
HETATM   35  C   UNL     1      -5.505   5.430  68.944  1.00  0.00    -0.004 C  
HETATM   36  C   UNL     1      -5.489   5.808  71.413  1.00  0.00    -0.017 C  
HETATM   37  C   UNL     1      -5.226   3.902  69.203  1.00  0.00    -0.011 C  
HETATM   38  C   UNL     1      -6.533   3.239  69.426  1.00  0.00    -0.033 A  
HETATM   39  C   UNL     1      -7.038   2.440  70.422  1.00  0.00    -0.033 A  
HETATM   40  N   UNL     1      -8.407   2.378  70.240  1.00  0.00    -0.041 NA 
HETATM   41  C   UNL     1      -8.780   3.102  69.124  1.00  0.00    -0.085 A  
HETATM   42  H   UNL     1      -9.051   1.868  70.844  1.00  0.00     0.000 HD 
HETATM   43  C   UNL     1     -10.023   3.459  68.601  1.00  0.00     0.390 A  
HETATM   44  C   UNL     1     -10.022   4.316  67.485  1.00  0.00    -0.100 A  
HETATM   45  C   UNL     1      -8.844   4.899  67.000  1.00  0.00    -0.106 A  
HETATM   46  C   UNL     1      -7.635   4.673  67.665  1.00  0.00    -0.078 A  
HETATM   47  C   UNL     1      -6.442   5.630  67.663  1.00  0.00    -0.047 C  
HETATM   48  C   UNL     1      -7.615   3.636  68.614  1.00  0.00    -0.053 A  
HETATM   49  C   UNL     1      -6.887   7.109  67.692  1.00  0.00    -0.074 C  
ENDBRANCH  29  32
ENDBRANCH  27  29
ENDBRANCH  13  27
TORSDOF 5
ENDMDL
MODEL      168
REMARK 921   NORMALIZED FREE ENERGY PREDICTED BY IDOCK:    0.34 KCAL/MOL
REMARK 922        TOTAL FREE ENERGY PREDICTED BY IDOCK:   -1.40 KCAL/MOL
REMARK 923 INTER-LIGAND FREE ENERGY PREDICTED BY IDOCK:   -1.54 KCAL/MOL
REMARK 924 INTRA-LIGAND FREE ENERGY PREDICTED BY IDOCK:    0.14 KCAL/MOL
REMARK 927      BINDING AFFINITY PREDICTED BY RF-SCORE:    0.00 PKD
ROOT
HETATM    1  C   UNL     1      -7.567   6.246  65.014  1.00  0.00    -0.090 C  
HETATM    2  C   UNL     1      -6.969   6.304  63.613  1.00  0.00    -0.043 C  
HETATM    3  C   UNL     1      -5.974   5.108  63.613  1.00  0.00    -0.021 C  
HETATM    4  C   UNL     1      -5.802   4.699  65.069  1.00  0.00    -0.018 C  
HETATM    5  N   UNL     1      -6.529   5.695  65.820  1.00  0.00    -0.039 N  
HETATM    6  C   UNL     1      -6.833   5.362  67.115  1.00  0.00    -0.063 C  
HETATM    7  O   UNL     1      -5.989   4.772  67.781  1.00  0.00    -0.021 OA 
HETATM    8  C   UNL     1      -8.224   5.884  67.643  1.00  0.00    -0.105 C  
HETATM    9  C   UNL     1      -8.598   7.220  65.711  1.00  0.00    -0.131 C  
HETATM   10  N   UNL     1      -9.271   6.282  66.542  1.00  0.00    -0.151 N  
HETATM   11  C   UNL     1     -10.393   7.084  66.784  1.00  0.00    -0.221 C  
HETATM   12  H   UNL     1      -9.998   8.322  65.063  1.00  0.00     0.000 HD 
HETATM   13  C   UNL     1      -9.871   8.417  67.392  1.00  0.00    -0.191 C  
HETATM   14  O   UNL     1     -11.527   6.761  66.484  1.00  0.00     0.273 OA 
HETATM   15  O   UNL     1      -9.377   7.737  64.644  1.00  0.00     0.979 OA 
HETATM   16  O   UNL     1      -8.464   8.257  66.732  1.00  0.00    -0.117 OA 
HETATM   17  C   UNL     1     -11.746   7.709  69.275  1.00  0.00     0.841 C  
HETATM   18  C   UNL     1      -9.605   8.635  70.176  1.00  0.00    -0.181 C  
HETATM   19  C   UNL     1     -10.243   7.996  68.940  1.00  0.00    -0.220 C  
ENDROOT
BRANCH   8  20
HETATM   20  C   UNL     1      -8.665   4.933  68.770  1.00  0.00    -0.105 C  
BRANCH  20  21
HETATM   21  C   UNL     1      -8.128   5.405  70.141  1.00  0.00    -0.089 A  
HETATM   22  C   UNL     1      -7.170   7.298  71.307  1.00  0.00    -0.072 A  
HETATM   23  C   UNL     1      -8.500   5.724  72.523  1.00  0.00    -0.117 A  
HETATM   24  C   UNL     1      -8.638   4.946  71.377  1.00  0.00    -0.132 A  
HETATM   25  C   UNL     1      -7.809   6.918  72.489  1.00  0.00    -0.095 A  
HETATM   26  C   UNL     1      -7.323   6.549  70.144  1.00  0.00    -0.089 A  
ENDBRANCH  20  21
ENDBRANCH   8  20
BRANCH  13  27
HETATM   27  N   UNL     1     -10.487   9.670  66.882  1.00  0.00    -0.233 NA 
HETATM   28  H   UNL     1     -11.484   9.762  66.689  1.00  0.00     0.000 HD 
BRANCH  27  29
HETATM   29  C   UNL     1      -9.642  10.631  66.706  1.00  0.00    -0.169 C  
HETATM   30  H   UNL     1      -9.186  12.224  65.580  1.00  0.00     0.000 HD 
HETATM   31  O   UNL     1      -9.808  11.518  65.709  1.00  0.00    -0.218 OA 
BRANCH  29  32
HETATM   32  C   UNL     1      -8.358  10.937  67.480  1.00  0.00    -0.117 C  
HETATM   33  C   UNL     1      -7.471  12.042  66.909  1.00  0.00    -0.051 C  
HETATM   34  N   UNL     1      -6.439  12.402  67.901  1.00  0.00    -0.082 NA 
HETATM   35  C   UNL     1      -6.960  13.032  69.161  1.00  0.00    -0.020 C  
HETATM   36  C   UNL     1      -5.285  13.053  67.308  1.00  0.00     0.174 C  
HETATM   37  C   UNL     1      -6.796  14.592  69.292  1.00  0.00    -0.143 C  
HETATM   38  C   UNL     1      -7.716  15.223  68.316  1.00  0.00    -0.112 A  
HETATM   39  C   UNL     1      -7.555  16.147  67.314  1.00  0.00    -0.184 A  
HETATM   40  N   UNL     1      -8.702  16.118  66.544  1.00  0.00    -0.270 NA 
HETATM   41  C   UNL     1      -9.607  15.209  67.057  1.00  0.00    -0.226 A  
HETATM   42  H   UNL     1      -8.858  16.689  65.712  1.00  0.00     0.000 HD 
HETATM   43  C   UNL     1     -10.824  14.719  66.586  1.00  0.00    -0.319 A  
HETATM   44  C   UNL     1     -11.432  13.695  67.336  1.00  0.00    -0.365 A  
HETATM   45  C   UNL     1     -10.790  13.095  68.427  1.00  0.00    -0.283 A  
HETATM   46  C   UNL     1      -9.486  13.479  68.759  1.00  0.00     0.037 A  
HETATM   47  C   UNL     1      -8.466  12.588  69.468  1.00  0.00     1.474 C  
HETATM   48  C   UNL     1      -8.998  14.653  68.162  1.00  0.00    -0.179 A  
HETATM   49  C   UNL     1      -8.572  11.114  69.018  1.00  0.00    -0.033 C  
ENDBRANCH  29  32
ENDBRANCH  27  29
ENDBRANCH  13  27
TORSDOF 5
ENDMDL
MODEL      169
REMARK 921   NORMALIZED FREE ENERGY PREDICTED BY IDOCK:    0.49 KCAL/MOL
REMARK 922        TOTAL FREE ENERGY PREDICTED BY IDOCK:   -1.21 KCAL/MOL
REMARK 923 INTER-LIGAND FREE ENERGY PREDICTED BY IDOCK:   -4.44 KCAL/MOL
REMARK 924 INTRA-LIGAND FREE ENERGY PREDICTED BY IDOCK:    3.23 KCAL/MOL
REMARK 927      BINDING AFFINITY PREDICTED BY RF-SCORE:    0.00 PKD
ROOT
HETATM    1  C   UNL     1      -8.393  17.273  66.984  1.00  0.00    -0.208 C  
HETATM    2  C   UNL     1      -8.001  18.305  65.932  1.00  0.00    -0.036 C  
HETATM    3  C   UNL     1      -8.603  19.622  66.501  1.00  0.00    -0.387 C  
HETATM    4  C   UNL     1      -9.575  19.207  67.597  1.00  0.00    -0.311 C  
HETATM    5  N   UNL     1      -9.615  17.766  67.526  1.00  0.00    -0.264 N  
HETATM    6  C   UNL     1     -10.130  17.128  68.626  1.00  0.00    -0.329 C  
HETATM    7  O   UNL     1     -11.109  17.616  69.179  1.00  0.00     0.354 OA 
HETATM    8  C   UNL     1      -9.451  15.754  68.995  1.00  0.00    -0.247 C  
HETATM    9  C   UNL     1      -8.161  15.710  66.998  1.00  0.00    -0.233 C  
HETATM   10  N   UNL     1      -8.018  15.514  68.398  1.00  0.00    -0.124 N  
HETATM   11  C   UNL     1      -7.412  14.254  68.306  1.00  0.00    -0.125 C  
HETATM   12  H   UNL     1      -6.835  14.579  66.253  1.00  0.00     0.000 HD 
HETATM   13  C   UNL     1      -8.381  13.347  67.495  1.00  0.00    -0.190 C  
HETATM   14  O   UNL     1      -6.302  14.010  68.740  1.00  0.00    -0.081 OA 
HETATM   15  O   UNL     1      -6.974  15.519  66.245  1.00  0.00     0.631 OA 
HETATM   16  O   UNL     1      -9.041  14.565  66.774  1.00  0.00    -0.245 OA 
HETATM   17  C   UNL     1      -7.986  11.790  69.726  1.00  0.00     1.253 C  
HETATM   18  C   UNL     1     -10.332  11.868  68.863  1.00  0.00    -0.131 C  
HETATM   19  C   UNL     1      -8.985  12.595  68.830  1.00  0.00     0.170 C  
ENDROOT
BRANCH   8  20
HETATM   20  C   UNL     1      -9.668  15.534  70.503  1.00  0.00     0.663 C  
BRANCH  20  21
HETATM   21  C   UNL     1     -11.140  15.175  70.809  1.00  0.00    -0.293 A  
HETATM   22  C   UNL     1     -12.957  13.708  70.169  1.00  0.00     0.197 A  
HETATM   23  C   UNL     1     -12.822  14.490  72.426  1.00  0.00    -0.443 A  
HETATM   24  C   UNL     1     -11.713  15.263  72.099  1.00  0.00    -0.537 A  
HETATM   25  C   UNL     1     -13.422  13.678  71.485  1.00  0.00    -0.332 A  
HETATM   26  C   UNL     1     -11.829  14.450  69.830  1.00  0.00    -0.382 A  
ENDBRANCH  20  21
ENDBRANCH   8  20
BRANCH  13  27
HETATM   27  N   UNL     1      -7.767  12.469  66.464  1.00  0.00    -0.251 NA 
HETATM   28  H   UNL     1      -8.241  12.210  65.599  1.00  0.00     0.000 HD 
BRANCH  27  29
HETATM   29  C   UNL     1      -6.577  12.067  66.765  1.00  0.00     0.041 C  
HETATM   30  H   UNL     1      -4.675  12.638  67.034  1.00  0.00     0.000 HD 
HETATM   31  O   UNL     1      -5.550  12.933  66.812  1.00  0.00    -0.112 OA 
BRANCH  29  32
HETATM   32  C   UNL     1      -6.089  10.649  67.069  1.00  0.00    -0.064 C  
HETATM   33  C   UNL     1      -6.979   9.807  67.981  1.00  0.00    -0.077 C  
HETATM   34  N   UNL     1      -6.522   8.404  67.949  1.00  0.00    -0.056 NA 
HETATM   35  C   UNL     1      -6.680   7.714  66.625  1.00  0.00    -0.062 C  
HETATM   36  C   UNL     1      -6.954   7.640  69.106  1.00  0.00    -0.068 C  
HETATM   37  C   UNL     1      -7.886   6.710  66.489  1.00  0.00    -0.104 C  
HETATM   38  C   UNL     1      -9.135   7.509  66.487  1.00  0.00    -0.201 A  
HETATM   39  C   UNL     1     -10.293   7.469  67.224  1.00  0.00    -0.296 A  
HETATM   40  N   UNL     1     -10.970   8.649  66.985  1.00  0.00    -0.271 NA 
HETATM   41  C   UNL     1     -10.275   9.431  66.082  1.00  0.00    -0.194 A  
HETATM   42  H   UNL     1     -11.859   8.907  67.414  1.00  0.00     0.000 HD 
HETATM   43  C   UNL     1     -10.458  10.737  65.626  1.00  0.00    -0.255 A  
HETATM   44  C   UNL     1      -9.469  11.257  64.771  1.00  0.00    -0.221 A  
HETATM   45  C   UNL     1      -8.287  10.558  64.495  1.00  0.00    -0.108 A  
HETATM   46  C   UNL     1      -8.046   9.331  65.121  1.00  0.00    -0.124 A  
HETATM   47  C   UNL     1      -6.661   8.751  65.407  1.00  0.00    -0.067 C  
HETATM   48  C   UNL     1      -9.135   8.723  65.768  1.00  0.00    -0.267 A  
HETATM   49  C   UNL     1      -5.646   9.847  65.803  1.00  0.00    -0.053 C  
ENDBRANCH  29  32
ENDBRANCH  27  29
ENDBRANCH  13  27
TORSDOF 5
ENDMDL
MODEL      170
REMARK 921   NORMALIZED FREE ENERGY PREDICTED BY IDOCK:    0.49 KCAL/MOL
REMARK 922        TOTAL FREE ENERGY PREDICTED BY IDOCK:   -1.20 KCAL/MOL
REMARK 923 INTER-LIGAND FREE ENERGY PREDICTED BY IDOCK:   -6.65 KCAL/MOL
REMARK 924 INTRA-LIGAND FREE ENERGY PREDICTED BY IDOCK:    5.45 KCAL/MOL
REMARK 927      BINDING AFFINITY PREDICTED BY RF-SCORE:    0.00 PKD
ROOT
HETATM    1  C   UNL     1      -5.844  10.668  69.530  1.00  0.00    -0.041 C  
HETATM    2  C   UNL     1      -5.154  10.724  70.888  1.00  0.00    -0.092 C  
HETATM    3  C   UNL     1      -5.194  12.241  71.232  1.00  0.00    -0.103 C  
HETATM    4  C   UNL     1      -5.549  12.961  69.938  1.00  0.00    -0.112 C  
HETATM    5  N   UNL     1      -5.552  11.927  68.930  1.00  0.00    -0.050 N  
HETATM    6  C   UNL     1      -6.187  12.238  67.755  1.00  0.00    -0.101 C  
HETATM    7  O   UNL     1      -6.044  13.366  67.295  1.00  0.00    -0.330 OA 
HETATM    8  C   UNL     1      -6.959  11.051  67.064  1.00  0.00    -0.117 C  
HETATM    9  C   UNL     1      -6.079   9.434  68.570  1.00  0.00    -0.044 C  
HETATM   10  N   UNL     1      -7.313   9.832  67.988  1.00  0.00    -0.081 N  
HETATM   11  C   UNL     1      -7.661   8.562  67.507  1.00  0.00    -0.098 C  
HETATM   12  H   UNL     1      -6.303   7.575  68.862  1.00  0.00     0.000 HD 
HETATM   13  C   UNL     1      -6.493   8.092  66.593  1.00  0.00    -0.055 C  
HETATM   14  O   UNL     1      -8.669   7.970  67.842  1.00  0.00    -0.128 OA 
HETATM   15  O   UNL     1      -6.162   8.316  69.439  1.00  0.00    -0.036 OA 
HETATM   16  O   UNL     1      -5.454   9.005  67.320  1.00  0.00    -0.040 OA 
HETATM   17  C   UNL     1      -8.628   7.748  64.895  1.00  0.00     0.063 C  
HETATM   18  C   UNL     1      -6.567   8.712  63.859  1.00  0.00    -0.076 C  
HETATM   19  C   UNL     1      -7.275   8.476  65.195  1.00  0.00    -0.080 C  
ENDROOT
BRANCH   8  20
HETATM   20  C   UNL     1      -8.074  11.676  66.206  1.00  0.00     0.047 C  
BRANCH  20  21
HETATM   21  C   UNL     1      -9.101  12.426  67.086  1.00  0.00    -0.199 A  
HETATM   22  C   UNL     1     -10.520  14.385  67.178  1.00  0.00    -0.263 A  
HETATM   23  C   UNL     1     -11.193  12.397  68.325  1.00  0.00    -0.309 A  
HETATM   24  C   UNL     1     -10.005  11.774  67.956  1.00  0.00    -0.191 A  
HETATM   25  C   UNL     1     -11.480  13.680  67.907  1.00  0.00    -0.348 A  
HETATM   26  C   UNL     1      -9.340  13.768  66.773  1.00  0.00    -0.276 A  
ENDBRANCH  20  21
ENDBRANCH   8  20
BRANCH  13  27
HETATM   27  N   UNL     1      -6.058   6.678  66.740  1.00  0.00    -0.031 NA 
HETATM   28  H   UNL     1      -5.166   6.331  66.391  1.00  0.00     0.000 HD 
BRANCH  27  29
HETATM   29  C   UNL     1      -6.916   5.932  67.352  1.00  0.00    -0.069 C  
HETATM   30  H   UNL     1      -8.700   5.030  67.206  1.00  0.00     0.000 HD 
HETATM   31  O   UNL     1      -8.069   5.580  66.756  1.00  0.00    -0.104 OA 
BRANCH  29  32
HETATM   32  C   UNL     1      -6.858   5.361  68.770  1.00  0.00    -0.055 C  
HETATM   33  C   UNL     1      -7.557   6.174  69.857  1.00  0.00    -0.088 C  
HETATM   34  N   UNL     1      -7.650   5.367  71.089  1.00  0.00    -0.094 NA 
HETATM   35  C   UNL     1      -8.526   4.151  70.988  1.00  0.00    -0.083 C  
HETATM   36  C   UNL     1      -7.835   6.172  72.283  1.00  0.00    -0.101 C  
HETATM   37  C   UNL     1      -9.954   4.251  71.645  1.00  0.00    -0.250 C  
HETATM   38  C   UNL     1     -10.759   5.189  70.827  1.00  0.00    -0.132 A  
HETATM   39  C   UNL     1     -11.486   6.318  71.111  1.00  0.00    -0.299 A  
HETATM   40  N   UNL     1     -11.762   6.939  69.908  1.00  0.00    -0.605 NA 
HETATM   41  C   UNL     1     -11.247   6.206  68.856  1.00  0.00    -0.261 A  
HETATM   42  H   UNL     1     -12.275   7.816  69.809  1.00  0.00     0.000 HD 
HETATM   43  C   UNL     1     -11.138   6.463  67.489  1.00  0.00    -0.401 A  
HETATM   44  C   UNL     1     -10.440   5.516  66.716  1.00  0.00    -0.355 A  
HETATM   45  C   UNL     1      -9.765   4.436  67.301  1.00  0.00    -0.222 A  
HETATM   46  C   UNL     1      -9.732   4.313  68.694  1.00  0.00    -0.174 A  
HETATM   47  C   UNL     1      -8.626   3.614  69.484  1.00  0.00    -0.109 C  
HETATM   48  C   UNL     1     -10.625   5.115  69.425  1.00  0.00    -0.104 A  
HETATM   49  C   UNL     1      -7.233   3.846  68.860  1.00  0.00    -0.054 C  
ENDBRANCH  29  32
ENDBRANCH  27  29
ENDBRANCH  13  27
TORSDOF 5
ENDMDL
MODEL      171
REMARK 921   NORMALIZED FREE ENERGY PREDICTED BY IDOCK:    0.63 KCAL/MOL
REMARK 922        TOTAL FREE ENERGY PREDICTED BY IDOCK:   -1.02 KCAL/MOL
REMARK 923 INTER-LIGAND FREE ENERGY PREDICTED BY IDOCK:   -2.19 KCAL/MOL
REMARK 924 INTRA-LIGAND FREE ENERGY PREDICTED BY IDOCK:    1.16 KCAL/MOL
REMARK 927      BINDING AFFINITY PREDICTED BY RF-SCORE:    0.00 PKD
ROOT
HETATM    1  C   UNL     1      -9.985   7.765  67.691  1.00  0.00    -0.178 C  
HETATM    2  C   UNL     1     -11.192   7.178  66.968  1.00  0.00     0.048 C  
HETATM    3  C   UNL     1     -11.130   5.673  67.359  1.00  0.00     0.168 C  
HETATM    4  C   UNL     1      -9.744   5.443  67.945  1.00  0.00    -0.136 C  
HETATM    5  N   UNL     1      -9.048   6.693  67.746  1.00  0.00    -0.115 N  
HETATM    6  C   UNL     1      -7.915   6.871  68.498  1.00  0.00    -0.120 C  
HETATM    7  O   UNL     1      -7.163   5.916  68.658  1.00  0.00    -0.078 OA 
HETATM    8  C   UNL     1      -7.651   8.346  68.990  1.00  0.00    -0.092 C  
HETATM    9  C   UNL     1      -9.414   9.238  67.667  1.00  0.00    -0.132 C  
HETATM   10  N   UNL     1      -8.896   9.303  68.989  1.00  0.00    -0.133 N  
HETATM   11  C   UNL     1      -8.807  10.700  69.040  1.00  0.00    -0.148 C  
HETATM   12  H   UNL     1     -10.204  10.943  67.416  1.00  0.00     0.000 HD 
HETATM   13  C   UNL     1      -7.918  11.138  67.841  1.00  0.00    -0.114 C  
HETATM   14  O   UNL     1      -9.399  11.382  69.855  1.00  0.00     1.013 OA 
HETATM   15  O   UNL     1     -10.548  10.057  67.430  1.00  0.00    -0.242 OA 
HETATM   16  O   UNL     1      -8.256   9.853  67.021  1.00  0.00    -0.116 OA 
HETATM   17  C   UNL     1      -6.628  12.408  69.911  1.00  0.00     0.112 C  
HETATM   18  C   UNL     1      -5.144  11.343  68.203  1.00  0.00    -0.043 C  
HETATM   19  C   UNL     1      -6.568  11.345  68.763  1.00  0.00    -0.064 C  
ENDROOT
BRANCH   8  20
HETATM   20  C   UNL     1      -6.796   8.248  70.267  1.00  0.00    -0.036 C  
BRANCH  20  21
HETATM   21  C   UNL     1      -7.638   7.757  71.467  1.00  0.00    -0.082 A  
HETATM   22  C   UNL     1      -8.453   8.387  73.658  1.00  0.00    -0.166 A  
HETATM   23  C   UNL     1      -9.746   6.889  72.313  1.00  0.00    -0.159 A  
HETATM   24  C   UNL     1      -8.755   6.900  71.337  1.00  0.00    -0.126 A  
HETATM   25  C   UNL     1      -9.627   7.660  73.452  1.00  0.00    -0.346 A  
HETATM   26  C   UNL     1      -7.465   8.435  72.679  1.00  0.00    -0.122 A  
ENDBRANCH  20  21
ENDBRANCH   8  20
BRANCH  13  27
HETATM   27  N   UNL     1      -8.377  12.321  67.067  1.00  0.00    -0.216 NA 
HETATM   28  H   UNL     1      -8.530  12.303  66.060  1.00  0.00     0.000 HD 
BRANCH  27  29
HETATM   29  C   UNL     1      -8.563  13.375  67.791  1.00  0.00    -0.194 C  
HETATM   30  H   UNL     1      -7.686  14.999  68.574  1.00  0.00     0.000 HD 
HETATM   31  O   UNL     1      -7.550  14.224  68.042  1.00  0.00    -0.115 OA 
BRANCH  29  32
HETATM   32  C   UNL     1      -9.835  13.844  68.500  1.00  0.00    -0.214 C  
HETATM   33  C   UNL     1      -9.664  14.963  69.526  1.00  0.00    -0.034 C  
HETATM   34  N   UNL     1     -10.992  15.483  69.906  1.00  0.00    -0.280 NA 
HETATM   35  C   UNL     1     -11.744  16.174  68.804  1.00  0.00    -0.231 C  
HETATM   36  C   UNL     1     -10.987  16.171  71.185  1.00  0.00     0.108 C  
HETATM   37  C   UNL     1     -11.766  17.748  68.841  1.00  0.00     2.464 C  
HETATM   38  C   UNL     1     -10.398  18.222  68.524  1.00  0.00    -0.341 A  
HETATM   39  C   UNL     1      -9.514  19.068  69.146  1.00  0.00    -0.190 A  
HETATM   40  N   UNL     1      -8.283  18.887  68.546  1.00  0.00    -0.343 NA 
HETATM   41  C   UNL     1      -8.373  17.956  67.529  1.00  0.00    -0.228 A  
HETATM   42  H   UNL     1      -7.427  19.372  68.816  1.00  0.00     0.000 HD 
HETATM   43  C   UNL     1      -7.414  17.335  66.729  1.00  0.00    -0.258 A  
HETATM   44  C   UNL     1      -7.868  16.333  65.851  1.00  0.00     0.640 A  
HETATM   45  C   UNL     1      -9.193  15.878  65.870  1.00  0.00    -0.332 A  
HETATM   46  C   UNL     1     -10.087  16.388  66.817  1.00  0.00    -0.287 A  
HETATM   47  C   UNL     1     -11.305  15.642  67.361  1.00  0.00    -0.163 C  
HETATM   48  C   UNL     1      -9.688  17.543  67.510  1.00  0.00    -0.278 A  
HETATM   49  C   UNL     1     -11.029  14.132  67.534  1.00  0.00    -0.292 C  
ENDBRANCH  29  32
ENDBRANCH  27  29
ENDBRANCH  13  27
TORSDOF 5
ENDMDL
MODEL      172
REMARK 921   NORMALIZED FREE ENERGY PREDICTED BY IDOCK:    0.65 KCAL/MOL
REMARK 922        TOTAL FREE ENERGY PREDICTED BY IDOCK:   -1.01 KCAL/MOL
REMARK 923 INTER-LIGAND FREE ENERGY PREDICTED BY IDOCK:   -4.87 KCAL/MOL
REMARK 924 INTRA-LIGAND FREE ENERGY PREDICTED BY IDOCK:    3.86 KCAL/MOL
REMARK 927      BINDING AFFINITY PREDICTED BY RF-SCORE:    0.00 PKD
ROOT
HETATM    1  C   UNL     1      -8.910   8.088  66.025  1.00  0.00    -0.162 C  
HETATM    2  C   UNL     1      -8.842   8.551  64.574  1.00  0.00     0.119 C  
HETATM    3  C   UNL     1      -8.378   7.268  63.825  1.00  0.00     0.190 C  
HETATM    4  C   UNL     1      -7.873   6.311  64.896  1.00  0.00    -0.113 C  
HETATM    5  N   UNL     1      -7.915   7.073  66.121  1.00  0.00    -0.105 N  
HETATM    6  C   UNL     1      -7.855   6.343  67.281  1.00  0.00    -0.105 C  
HETATM    7  O   UNL     1      -7.092   5.385  67.330  1.00  0.00    -0.067 OA 
HETATM    8  C   UNL     1      -8.717   6.898  68.478  1.00  0.00    -0.125 C  
HETATM    9  C   UNL     1      -9.244   8.913  67.331  1.00  0.00    -0.135 C  
HETATM   10  N   UNL     1      -9.872   7.889  68.092  1.00  0.00    -0.163 N  
HETATM   11  C   UNL     1     -10.500   8.750  69.001  1.00  0.00    -0.203 C  
HETATM   12  H   UNL     1     -10.314  10.440  67.674  1.00  0.00     0.000 HD 
HETATM   13  C   UNL     1      -9.380   9.616  69.648  1.00  0.00    -0.211 C  
HETATM   14  O   UNL     1     -11.706   8.805  69.152  1.00  0.00     0.680 OA 
HETATM   15  O   UNL     1     -10.113   9.944  66.889  1.00  0.00    -0.202 OA 
HETATM   16  O   UNL     1      -8.426   9.434  68.424  1.00  0.00    -0.118 OA 
HETATM   17  C   UNL     1     -10.626   8.645  71.899  1.00  0.00    -0.411 C  
HETATM   18  C   UNL     1      -8.127   8.701  71.985  1.00  0.00    -0.131 C  
HETATM   19  C   UNL     1      -9.325   8.724  71.032  1.00  0.00    -0.280 C  
ENDROOT
BRANCH   8  20
HETATM   20  C   UNL     1      -9.045   5.702  69.390  1.00  0.00    -0.134 C  
BRANCH  20  21
HETATM   21  C   UNL     1      -7.807   5.265  70.206  1.00  0.00    -0.083 A  
HETATM   22  C   UNL     1      -6.338   3.395  70.661  1.00  0.00    -0.027 A  
HETATM   23  C   UNL     1      -5.477   5.623  70.802  1.00  0.00    -0.009 A  
HETATM   24  C   UNL     1      -6.741   6.136  70.531  1.00  0.00    -0.053 A  
HETATM   25  C   UNL     1      -5.255   4.261  70.826  1.00  0.00     0.000 A  
HETATM   26  C   UNL     1      -7.604   3.889  70.357  1.00  0.00    -0.044 A  
ENDBRANCH  20  21
ENDBRANCH   8  20
BRANCH  13  27
HETATM   27  N   UNL     1      -9.665  11.066  69.808  1.00  0.00    -0.217 NA 
HETATM   28  H   UNL     1     -10.099  11.460  70.642  1.00  0.00     0.000 HD 
BRANCH  27  29
HETATM   29  C   UNL     1      -9.312  11.780  68.791  1.00  0.00    -0.009 C  
HETATM   30  H   UNL     1      -7.787  12.271  67.587  1.00  0.00     0.000 HD 
HETATM   31  O   UNL     1      -8.047  11.746  68.335  1.00  0.00    -0.140 OA 
BRANCH  29  32
HETATM   32  C   UNL     1     -10.145  12.766  67.971  1.00  0.00    -0.230 C  
HETATM   33  C   UNL     1     -10.413  14.125  68.615  1.00  0.00    -0.250 C  
HETATM   34  N   UNL     1     -10.976  15.042  67.605  1.00  0.00    -0.295 NA 
HETATM   35  C   UNL     1     -10.046  15.401  66.482  1.00  0.00    -0.271 C  
HETATM   36  C   UNL     1     -11.705  16.153  68.191  1.00  0.00    -0.013 C  
HETATM   37  C   UNL     1      -9.374  16.823  66.546  1.00  0.00    -0.288 C  
HETATM   38  C   UNL     1      -8.399  16.808  67.663  1.00  0.00    -0.191 A  
HETATM   39  C   UNL     1      -8.199  17.604  68.764  1.00  0.00    -0.224 A  
HETATM   40  N   UNL     1      -7.340  16.925  69.607  1.00  0.00     0.127 NA 
HETATM   41  C   UNL     1      -6.965  15.719  69.047  1.00  0.00    -0.150 A  
HETATM   42  H   UNL     1      -7.027  17.267  70.516  1.00  0.00     0.000 HD 
HETATM   43  C   UNL     1      -6.242  14.633  69.539  1.00  0.00    -0.120 A  
HETATM   44  C   UNL     1      -6.146  13.501  68.708  1.00  0.00    -0.086 A  
HETATM   45  C   UNL     1      -6.853  13.407  67.502  1.00  0.00    -0.154 A  
HETATM   46  C   UNL     1      -7.723  14.436  67.127  1.00  0.00    -0.065 A  
HETATM   47  C   UNL     1      -8.950  14.262  66.232  1.00  0.00    -0.002 C  
HETATM   48  C   UNL     1      -7.620  15.645  67.836  1.00  0.00    -0.143 A  
HETATM   49  C   UNL     1      -9.669  12.920  66.490  1.00  0.00    -0.257 C  
ENDBRANCH  29  32
ENDBRANCH  27  29
ENDBRANCH  13  27
TORSDOF 5
ENDMDL
MODEL      173
REMARK 921   NORMALIZED FREE ENERGY PREDICTED BY IDOCK:    0.80 KCAL/MOL
REMARK 922        TOTAL FREE ENERGY PREDICTED BY IDOCK:   -0.81 KCAL/MOL
REMARK 923 INTER-LIGAND FREE ENERGY PREDICTED BY IDOCK:   -5.59 KCAL/MOL
REMARK 924 INTRA-LIGAND FREE ENERGY PREDICTED BY IDOCK:    4.77 KCAL/MOL
REMARK 927      BINDING AFFINITY PREDICTED BY RF-SCORE:    0.00 PKD
ROOT
HETATM    1  C   UNL     1      -6.776  14.961  70.431  1.00  0.00     0.040 C  
HETATM    2  C   UNL     1      -5.947  14.163  71.432  1.00  0.00    -0.119 C  
HETATM    3  C   UNL     1      -5.133  15.269  72.164  1.00  0.00    -0.059 C  
HETATM    4  C   UNL     1      -5.266  16.526  71.316  1.00  0.00    -0.012 C  
HETATM    5  N   UNL     1      -5.971  16.098  70.131  1.00  0.00    -0.171 N  
HETATM    6  C   UNL     1      -6.532  17.096  69.376  1.00  0.00    -0.233 C  
HETATM    7  O   UNL     1      -5.898  18.134  69.216  1.00  0.00    -0.209 OA 
HETATM    8  C   UNL     1      -7.910  16.744  68.698  1.00  0.00    -0.241 C  
HETATM    9  C   UNL     1      -7.772  14.452  69.315  1.00  0.00    -0.002 C  
HETATM   10  N   UNL     1      -8.693  15.534  69.322  1.00  0.00    -0.249 N  
HETATM   11  C   UNL     1      -9.725  14.850  68.667  1.00  0.00    -0.226 C  
HETATM   12  H   UNL     1      -8.884  12.924  69.154  1.00  0.00     0.000 HD 
HETATM   13  C   UNL     1      -9.141  14.342  67.317  1.00  0.00    -0.214 C  
HETATM   14  O   UNL     1     -10.824  14.664  69.154  1.00  0.00    -0.245 OA 
HETATM   15  O   UNL     1      -8.284  13.231  69.825  1.00  0.00     1.250 OA 
HETATM   16  O   UNL     1      -7.677  14.344  67.861  1.00  0.00    -0.119 OA 
HETATM   17  C   UNL     1     -11.385  15.660  66.428  1.00  0.00     0.065 C  
HETATM   18  C   UNL     1      -9.324  15.982  65.049  1.00  0.00     1.322 C  
HETATM   19  C   UNL     1      -9.823  15.551  66.430  1.00  0.00    -0.298 C  
ENDROOT
BRANCH   8  20
HETATM   20  C   UNL     1      -8.657  18.072  68.478  1.00  0.00    -0.306 C  
BRANCH  20  21
HETATM   21  C   UNL     1      -8.077  18.846  67.272  1.00  0.00    -0.277 A  
HETATM   22  C   UNL     1      -6.973  20.902  66.630  1.00  0.00    -0.285 A  
HETATM   23  C   UNL     1      -6.553  18.907  65.378  1.00  0.00    -0.288 A  
HETATM   24  C   UNL     1      -7.473  18.216  66.159  1.00  0.00    -0.297 A  
HETATM   25  C   UNL     1      -6.263  20.233  65.631  1.00  0.00    -0.250 A  
HETATM   26  C   UNL     1      -7.874  20.220  67.441  1.00  0.00    -0.361 A  
ENDBRANCH  20  21
ENDBRANCH   8  20
BRANCH  13  27
HETATM   27  N   UNL     1      -9.491  12.953  66.919  1.00  0.00    -0.231 NA 
HETATM   28  H   UNL     1     -10.311  12.724  66.358  1.00  0.00     0.000 HD 
BRANCH  27  29
HETATM   29  C   UNL     1      -8.659  12.064  67.350  1.00  0.00    -0.171 C  
HETATM   30  H   UNL     1      -7.359  11.608  68.806  1.00  0.00     0.000 HD 
HETATM   31  O   UNL     1      -7.971  12.262  68.488  1.00  0.00    -0.140 OA 
BRANCH  29  32
HETATM   32  C   UNL     1      -8.264  10.728  66.717  1.00  0.00    -0.135 C  
HETATM   33  C   UNL     1      -7.807   9.633  67.679  1.00  0.00    -0.095 C  
HETATM   34  N   UNL     1      -7.732   8.348  66.956  1.00  0.00    -0.092 NA 
HETATM   35  C   UNL     1      -9.049   7.815  66.468  1.00  0.00    -0.170 C  
HETATM   36  C   UNL     1      -6.869   7.380  67.607  1.00  0.00    -0.078 C  
HETATM   37  C   UNL     1      -9.688   6.640  67.299  1.00  0.00    -0.166 C  
HETATM   38  C   UNL     1     -10.128   7.198  68.600  1.00  0.00    -0.177 A  
HETATM   39  C   UNL     1      -9.894   6.860  69.910  1.00  0.00    -0.165 A  
HETATM   40  N   UNL     1     -10.315   7.923  70.687  1.00  0.00    -0.201 NA 
HETATM   41  C   UNL     1     -10.841   8.924  69.893  1.00  0.00    -0.211 A  
HETATM   42  H   UNL     1     -10.247   7.962  71.704  1.00  0.00     0.000 HD 
HETATM   43  C   UNL     1     -11.265  10.224  70.169  1.00  0.00    -0.387 A  
HETATM   44  C   UNL     1     -11.648  11.016  69.071  1.00  0.00    -0.392 A  
HETATM   45  C   UNL     1     -11.485  10.578  67.750  1.00  0.00    -0.143 A  
HETATM   46  C   UNL     1     -10.878   9.343  67.500  1.00  0.00    -0.208 A  
HETATM   47  C   UNL     1     -10.112   8.987  66.226  1.00  0.00    -0.311 C  
HETATM   48  C   UNL     1     -10.729   8.474  68.595  1.00  0.00    -0.082 A  
HETATM   49  C   UNL     1      -9.302  10.185  65.684  1.00  0.00    -0.250 C  
ENDBRANCH  29  32
ENDBRANCH  27  29
ENDBRANCH  13  27
TORSDOF 5
ENDMDL
MODEL      174
REMARK 921   NORMALIZED FREE ENERGY PREDICTED BY IDOCK:    0.86 KCAL/MOL
REMARK 922        TOTAL FREE ENERGY PREDICTED BY IDOCK:   -0.73 KCAL/MOL
REMARK 923 INTER-LIGAND FREE ENERGY PREDICTED BY IDOCK:   -5.13 KCAL/MOL
REMARK 924 INTRA-LIGAND FREE ENERGY PREDICTED BY IDOCK:    4.40 KCAL/MOL
REMARK 927      BINDING AFFINITY PREDICTED BY RF-SCORE:    0.00 PKD
ROOT
HETATM    1  C   UNL     1      -6.382  10.471  69.072  1.00  0.00    -0.045 C  
HETATM    2  C   UNL     1      -6.016  11.951  69.103  1.00  0.00    -0.072 C  
HETATM    3  C   UNL     1      -5.157  12.066  70.395  1.00  0.00    -0.102 C  
HETATM    4  C   UNL     1      -5.394  10.782  71.179  1.00  0.00    -0.078 C  
HETATM    5  N   UNL     1      -6.424  10.087  70.444  1.00  0.00    -0.111 N  
HETATM    6  C   UNL     1      -6.565   8.753  70.730  1.00  0.00    -0.050 C  
HETATM    7  O   UNL     1      -6.475   8.393  71.899  1.00  0.00    -0.055 OA 
HETATM    8  C   UNL     1      -6.941   7.831  69.508  1.00  0.00    -0.058 C  
HETATM    9  C   UNL     1      -7.306   9.683  68.061  1.00  0.00    -0.082 C  
HETATM   10  N   UNL     1      -6.646   8.424  68.084  1.00  0.00    -0.060 N  
HETATM   11  C   UNL     1      -7.219   7.939  66.902  1.00  0.00    -0.089 C  
HETATM   12  H   UNL     1      -7.743   9.921  66.232  1.00  0.00     0.000 HD 
HETATM   13  C   UNL     1      -8.762   8.005  67.090  1.00  0.00    -0.131 C  
HETATM   14  O   UNL     1      -6.571   7.613  65.925  1.00  0.00    -0.045 OA 
HETATM   15  O   UNL     1      -7.188  10.395  66.840  1.00  0.00    -0.092 OA 
HETATM   16  O   UNL     1      -8.661   9.144  68.154  1.00  0.00    -0.128 OA 
HETATM   17  C   UNL     1      -8.461   5.378  66.334  1.00  0.00    -0.114 C  
HETATM   18  C   UNL     1     -10.098   5.792  68.179  1.00  0.00    -0.204 C  
HETATM   19  C   UNL     1      -8.908   6.400  67.433  1.00  0.00    -0.104 C  
ENDROOT
BRANCH   8  20
HETATM   20  C   UNL     1      -6.434   6.416  69.838  1.00  0.00    -0.047 C  
BRANCH  20  21
HETATM   21  C   UNL     1      -7.600   5.485  70.245  1.00  0.00    -0.080 A  
HETATM   22  C   UNL     1      -8.235   3.164  70.507  1.00  0.00    -0.073 A  
HETATM   23  C   UNL     1      -9.249   4.821  71.903  1.00  0.00    -0.171 A  
HETATM   24  C   UNL     1      -8.558   5.822  71.228  1.00  0.00    -0.129 A  
HETATM   25  C   UNL     1      -9.062   3.491  71.583  1.00  0.00    -0.173 A  
HETATM   26  C   UNL     1      -7.512   4.149  69.840  1.00  0.00    -0.049 A  
ENDBRANCH  20  21
ENDBRANCH   8  20
BRANCH  13  27
HETATM   27  N   UNL     1      -9.555   8.509  65.938  1.00  0.00    -0.445 NA 
HETATM   28  H   UNL     1      -9.489   8.113  65.001  1.00  0.00     0.000 HD 
BRANCH  27  29
HETATM   29  C   UNL     1     -10.335   9.494  66.235  1.00  0.00    -0.156 C  
HETATM   30  H   UNL     1     -11.928  10.052  67.315  1.00  0.00     0.000 HD 
HETATM   31  O   UNL     1     -11.354   9.328  67.096  1.00  0.00     0.374 OA 
BRANCH  29  32
HETATM   32  C   UNL     1     -10.319  10.929  65.705  1.00  0.00    -0.305 C  
HETATM   33  C   UNL     1     -11.575  11.759  65.959  1.00  0.00    -0.134 C  
HETATM   34  N   UNL     1     -11.299  13.174  65.642  1.00  0.00    -0.298 NA 
HETATM   35  C   UNL     1     -10.292  13.840  66.534  1.00  0.00    -0.286 C  
HETATM   36  C   UNL     1     -12.502  13.942  65.376  1.00  0.00    -0.501 C  
HETATM   37  C   UNL     1     -10.857  14.808  67.641  1.00  0.00    -0.285 C  
HETATM   38  C   UNL     1     -11.551  13.974  68.652  1.00  0.00    -0.360 A  
HETATM   39  C   UNL     1     -12.810  13.993  69.200  1.00  0.00     0.884 A  
HETATM   40  N   UNL     1     -12.986  12.791  69.859  1.00  0.00     0.657 NA 
HETATM   41  C   UNL     1     -11.846  12.016  69.763  1.00  0.00    -0.331 A  
HETATM   42  H   UNL     1     -13.838  12.515  70.347  1.00  0.00     0.000 HD 
HETATM   43  C   UNL     1     -11.565  10.699  70.129  1.00  0.00    -0.414 A  
HETATM   44  C   UNL     1     -10.301  10.194  69.771  1.00  0.00    -0.297 A  
HETATM   45  C   UNL     1      -9.414  10.922  68.968  1.00  0.00    -0.160 A  
HETATM   46  C   UNL     1      -9.803  12.164  68.457  1.00  0.00    -0.167 A  
HETATM   47  C   UNL     1      -9.268  12.786  67.166  1.00  0.00    -0.219 C  
HETATM   48  C   UNL     1     -10.951  12.751  69.016  1.00  0.00    -0.241 A  
HETATM   49  C   UNL     1      -9.025  11.725  66.070  1.00  0.00    -0.108 C  
ENDBRANCH  29  32
ENDBRANCH  27  29
ENDBRANCH  13  27
TORSDOF 5
ENDMDL
MODEL      175
REMARK 921   NORMALIZED FREE ENERGY PREDICTED BY IDOCK:    0.91 KCAL/MOL
REMARK 922        TOTAL FREE ENERGY PREDICTED BY IDOCK:   -0.67 KCAL/MOL
REMARK 923 INTER-LIGAND FREE ENERGY PREDICTED BY IDOCK:   -4.57 KCAL/MOL
REMARK 924 INTRA-LIGAND FREE ENERGY PREDICTED BY IDOCK:    3.89 KCAL/MOL
REMARK 927      BINDING AFFINITY PREDICTED BY RF-SCORE:    0.00 PKD
ROOT
HETATM    1  C   UNL     1      -9.248  12.189  68.568  1.00  0.00    -0.099 C  
HETATM    2  C   UNL     1      -8.550  13.531  68.378  1.00  0.00    -0.142 C  
HETATM    3  C   UNL     1      -9.581  14.541  68.958  1.00  0.00    -0.105 C  
HETATM    4  C   UNL     1     -10.894  13.781  69.089  1.00  0.00    -0.170 C  
HETATM    5  N   UNL     1     -10.637  12.496  68.481  1.00  0.00    -0.240 N  
HETATM    6  C   UNL     1     -11.532  11.502  68.785  1.00  0.00    -0.287 C  
HETATM    7  O   UNL     1     -12.724  11.785  68.839  1.00  0.00     0.158 OA 
HETATM    8  C   UNL     1     -10.919  10.057  68.927  1.00  0.00    -0.207 C  
HETATM    9  C   UNL     1      -8.788  10.743  68.128  1.00  0.00    -0.133 C  
HETATM   10  N   UNL     1      -9.371   9.988  69.182  1.00  0.00    -0.182 N  
HETATM   11  C   UNL     1      -8.597   8.839  68.982  1.00  0.00    -0.132 C  
HETATM   12  H   UNL     1      -7.093   9.928  67.884  1.00  0.00     0.000 HD 
HETATM   13  C   UNL     1      -8.816   8.400  67.505  1.00  0.00    -0.135 C  
HETATM   14  O   UNL     1      -7.859   8.370  69.828  1.00  0.00    -0.094 OA 
HETATM   15  O   UNL     1      -7.370  10.798  68.149  1.00  0.00    -0.085 OA 
HETATM   16  O   UNL     1      -9.201   9.844  67.052  1.00  0.00    -0.140 OA 
HETATM   17  C   UNL     1      -9.389   6.051  68.817  1.00  0.00    -0.128 C  
HETATM   18  C   UNL     1     -10.900   6.620  66.907  1.00  0.00    -0.415 C  
HETATM   19  C   UNL     1      -9.890   7.212  67.893  1.00  0.00    -0.170 C  
ENDROOT
BRANCH   8  20
HETATM   20  C   UNL     1     -11.856   9.260  69.854  1.00  0.00     0.274 C  
BRANCH  20  21
HETATM   21  C   UNL     1     -11.051   8.377  70.835  1.00  0.00    -0.289 A  
HETATM   22  C   UNL     1      -9.895   8.388  72.962  1.00  0.00    -0.152 A  
HETATM   23  C   UNL     1     -10.922   6.368  72.199  1.00  0.00    -0.288 A  
HETATM   24  C   UNL     1     -11.286   6.994  71.011  1.00  0.00    -0.325 A  
HETATM   25  C   UNL     1     -10.269   7.064  73.196  1.00  0.00    -0.288 A  
HETATM   26  C   UNL     1     -10.277   9.040  71.794  1.00  0.00    -0.389 A  
ENDBRANCH  20  21
ENDBRANCH   8  20
BRANCH  13  27
HETATM   27  N   UNL     1      -7.609   7.977  66.748  1.00  0.00    -0.093 NA 
HETATM   28  H   UNL     1      -7.508   8.106  65.742  1.00  0.00     0.000 HD 
BRANCH  27  29
HETATM   29  C   UNL     1      -6.699   7.431  67.484  1.00  0.00    -0.069 C  
HETATM   30  H   UNL     1      -5.164   7.787  68.723  1.00  0.00     0.000 HD 
HETATM   31  O   UNL     1      -5.833   8.188  68.181  1.00  0.00    -0.039 OA 
BRANCH  29  32
HETATM   32  C   UNL     1      -6.387   5.947  67.688  1.00  0.00    -0.041 C  
HETATM   33  C   UNL     1      -7.576   4.991  67.620  1.00  0.00    -0.087 C  
HETATM   34  N   UNL     1      -7.083   3.601  67.557  1.00  0.00    -0.058 NA 
HETATM   35  C   UNL     1      -6.323   3.253  66.309  1.00  0.00    -0.028 C  
HETATM   36  C   UNL     1      -8.074   2.627  67.976  1.00  0.00    -0.058 C  
HETATM   37  C   UNL     1      -7.091   2.409  65.224  1.00  0.00    -0.057 C  
HETATM   38  C   UNL     1      -8.130   3.284  64.630  1.00  0.00    -0.090 A  
HETATM   39  C   UNL     1      -9.486   3.167  64.450  1.00  0.00    -0.145 A  
HETATM   40  N   UNL     1      -9.964   4.422  64.122  1.00  0.00    -0.367 NA 
HETATM   41  C   UNL     1      -8.927   5.334  64.061  1.00  0.00     0.153 A  
HETATM   42  H   UNL     1     -10.944   4.643  63.948  1.00  0.00     0.000 HD 
HETATM   43  C   UNL     1      -8.896   6.720  63.908  1.00  0.00     0.869 A  
HETATM   44  C   UNL     1      -7.638   7.343  64.006  1.00  0.00    -0.110 A  
HETATM   45  C   UNL     1      -6.487   6.634  64.374  1.00  0.00    -0.038 A  
HETATM   46  C   UNL     1      -6.586   5.280  64.708  1.00  0.00    -0.043 A  
HETATM   47  C   UNL     1      -5.637   4.540  65.652  1.00  0.00    -0.017 C  
HETATM   48  C   UNL     1      -7.785   4.628  64.373  1.00  0.00    -0.078 A  
HETATM   49  C   UNL     1      -5.187   5.428  66.833  1.00  0.00    -0.008 C  
ENDBRANCH  29  32
ENDBRANCH  27  29
ENDBRANCH  13  27
TORSDOF 5
ENDMDL
MODEL      176
REMARK 921   NORMALIZED FREE ENERGY PREDICTED BY IDOCK:    0.98 KCAL/MOL
REMARK 922        TOTAL FREE ENERGY PREDICTED BY IDOCK:   -0.58 KCAL/MOL
REMARK 923 INTER-LIGAND FREE ENERGY PREDICTED BY IDOCK:   -0.89 KCAL/MOL
REMARK 924 INTRA-LIGAND FREE ENERGY PREDICTED BY IDOCK:    0.31 KCAL/MOL
REMARK 927      BINDING AFFINITY PREDICTED BY RF-SCORE:    0.00 PKD
ROOT
HETATM    1  C   UNL     1      -9.566   9.439  68.869  1.00  0.00    -0.155 C  
HETATM    2  C   UNL     1      -8.780   9.121  67.601  1.00  0.00    -0.120 C  
HETATM    3  C   UNL     1      -7.803   8.005  68.072  1.00  0.00    -0.126 C  
HETATM    4  C   UNL     1      -7.837   8.025  69.594  1.00  0.00    -0.104 C  
HETATM    5  N   UNL     1      -8.653   9.168  69.929  1.00  0.00    -0.136 N  
HETATM    6  C   UNL     1      -9.136   9.201  71.212  1.00  0.00    -0.162 C  
HETATM    7  O   UNL     1      -8.397   8.847  72.124  1.00  0.00    -0.381 OA 
HETATM    8  C   UNL     1     -10.582   9.805  71.379  1.00  0.00     0.061 C  
HETATM    9  C   UNL     1     -10.676  10.535  69.118  1.00  0.00    -0.231 C  
HETATM   10  N   UNL     1     -11.464   9.846  70.080  1.00  0.00    -0.256 N  
HETATM   11  C   UNL     1     -12.603  10.648  69.934  1.00  0.00    -0.101 C  
HETATM   12  H   UNL     1     -11.964  11.368  68.004  1.00  0.00     0.000 HD 
HETATM   13  C   UNL     1     -12.159  12.114  70.207  1.00  0.00    -0.302 C  
HETATM   14  O   UNL     1     -13.687  10.219  69.587  1.00  0.00     0.708 OA 
HETATM   15  O   UNL     1     -11.296  10.709  67.854  1.00  0.00    -0.330 OA 
HETATM   16  O   UNL     1     -10.676  11.820  69.814  1.00  0.00     0.078 OA 
HETATM   17  C   UNL     1     -14.282  11.902  71.942  1.00  0.00     1.247 C  
HETATM   18  C   UNL     1     -12.279  13.110  72.826  1.00  0.00     1.751 C  
HETATM   19  C   UNL     1     -12.745  12.131  71.746  1.00  0.00    -0.265 C  
ENDROOT
BRANCH   8  20
HETATM   20  C   UNL     1     -11.182   9.194  72.659  1.00  0.00     0.736 C  
BRANCH  20  21
HETATM   21  C   UNL     1     -11.004   7.659  72.680  1.00  0.00    -0.405 A  
HETATM   22  C   UNL     1     -10.333   5.797  74.076  1.00  0.00    -0.295 A  
HETATM   23  C   UNL     1     -11.968   5.448  72.364  1.00  0.00     0.052 A  
HETATM   24  C   UNL     1     -11.825   6.769  71.950  1.00  0.00    -0.366 A  
HETATM   25  C   UNL     1     -11.263   4.966  73.449  1.00  0.00    -0.415 A  
HETATM   26  C   UNL     1     -10.200   7.130  73.696  1.00  0.00    -0.402 A  
ENDBRANCH  20  21
ENDBRANCH   8  20
BRANCH  13  27
HETATM   27  N   UNL     1     -12.690  13.154  69.287  1.00  0.00     0.420 NA 
HETATM   28  H   UNL     1     -13.127  12.937  68.392  1.00  0.00     0.000 HD 
BRANCH  27  29
HETATM   29  C   UNL     1     -12.545  14.360  69.727  1.00  0.00    -0.115 C  
HETATM   30  H   UNL     1     -13.497  15.944  70.503  1.00  0.00     0.000 HD 
HETATM   31  O   UNL     1     -13.603  15.058  70.179  1.00  0.00     0.209 OA 
BRANCH  29  32
HETATM   32  C   UNL     1     -11.278  15.215  69.796  1.00  0.00    -0.298 C  
HETATM   33  C   UNL     1      -9.957  14.487  69.556  1.00  0.00     0.137 C  
HETATM   34  N   UNL     1      -8.878  15.478  69.380  1.00  0.00    -0.255 NA 
HETATM   35  C   UNL     1      -8.996  16.336  68.153  1.00  0.00    -0.187 C  
HETATM   36  C   UNL     1      -7.557  14.931  69.634  1.00  0.00    -0.098 C  
HETATM   37  C   UNL     1      -8.060  15.970  66.941  1.00  0.00    -0.282 C  
HETATM   38  C   UNL     1      -8.538  14.686  66.377  1.00  0.00     0.103 A  
HETATM   39  C   UNL     1      -7.937  13.483  66.102  1.00  0.00     1.886 A  
HETATM   40  N   UNL     1      -8.945  12.564  65.876  1.00  0.00    -0.411 NA 
HETATM   41  C   UNL     1     -10.182  13.171  65.974  1.00  0.00    -0.286 A  
HETATM   42  H   UNL     1      -8.796  11.577  65.666  1.00  0.00     0.000 HD 
HETATM   43  C   UNL     1     -11.484  12.669  65.967  1.00  0.00    -0.414 A  
HETATM   44  C   UNL     1     -12.522  13.588  66.207  1.00  0.00    -0.384 A  
HETATM   45  C   UNL     1     -12.266  14.917  66.571  1.00  0.00     0.119 A  
HETATM   46  C   UNL     1     -10.946  15.341  66.756  1.00  0.00    -0.306 A  
HETATM   47  C   UNL     1     -10.516  16.484  67.675  1.00  0.00    -0.305 C  
HETATM   48  C   UNL     1      -9.932  14.491  66.282  1.00  0.00    -0.320 A  
HETATM   49  C   UNL     1     -11.361  16.537  68.967  1.00  0.00    -0.181 C  
ENDBRANCH  29  32
ENDBRANCH  27  29
ENDBRANCH  13  27
TORSDOF 5
ENDMDL
MODEL      177
REMARK 921   NORMALIZED FREE ENERGY PREDICTED BY IDOCK:    1.01 KCAL/MOL
REMARK 922        TOTAL FREE ENERGY PREDICTED BY IDOCK:   -0.54 KCAL/MOL
REMARK 923 INTER-LIGAND FREE ENERGY PREDICTED BY IDOCK:   -4.56 KCAL/MOL
REMARK 924 INTRA-LIGAND FREE ENERGY PREDICTED BY IDOCK:    4.02 KCAL/MOL
REMARK 927      BINDING AFFINITY PREDICTED BY RF-SCORE:    0.00 PKD
ROOT
HETATM    1  C   UNL     1      -8.588   8.398  64.698  1.00  0.00    -0.018 C  
HETATM    2  C   UNL     1      -8.650   9.877  64.334  1.00  0.00    -0.197 C  
HETATM    3  C   UNL     1      -9.020   9.844  62.823  1.00  0.00    -0.272 C  
HETATM    4  C   UNL     1      -8.785   8.413  62.359  1.00  0.00    -0.025 C  
HETATM    5  N   UNL     1      -8.185   7.752  63.494  1.00  0.00    -0.044 N  
HETATM    6  C   UNL     1      -8.205   6.381  63.465  1.00  0.00     0.046 C  
HETATM    7  O   UNL     1      -7.984   5.815  62.400  1.00  0.00    -0.078 OA 
HETATM    8  C   UNL     1      -8.409   5.675  64.860  1.00  0.00    -0.139 C  
HETATM    9  C   UNL     1      -8.191   7.713  66.066  1.00  0.00    -0.128 C  
HETATM   10  N   UNL     1      -9.027   6.565  65.996  1.00  0.00    -0.149 N  
HETATM   11  C   UNL     1      -8.955   6.252  67.360  1.00  0.00    -0.109 C  
HETATM   12  H   UNL     1      -8.319   8.246  67.881  1.00  0.00     0.000 HD 
HETATM   13  C   UNL     1      -7.447   6.088  67.705  1.00  0.00    -0.085 C  
HETATM   14  O   UNL     1      -9.926   6.205  68.091  1.00  0.00    -0.129 OA 
HETATM   15  O   UNL     1      -8.558   8.658  67.058  1.00  0.00    -0.115 OA 
HETATM   16  O   UNL     1      -6.997   7.003  66.521  1.00  0.00    -0.065 OA 
HETATM   17  C   UNL     1      -8.443   3.716  68.676  1.00  0.00    -0.104 C  
HETATM   18  C   UNL     1      -6.260   3.558  67.467  1.00  0.00    -0.036 C  
HETATM   19  C   UNL     1      -7.493   4.442  67.664  1.00  0.00    -0.073 C  
ENDROOT
BRANCH   8  20
HETATM   20  C   UNL     1      -9.034   4.296  64.580  1.00  0.00    -0.146 C  
BRANCH  20  21
HETATM   21  C   UNL     1      -7.962   3.278  64.128  1.00  0.00    -0.082 A  
HETATM   22  C   UNL     1      -7.510   1.504  62.544  1.00  0.00    -0.033 A  
HETATM   23  C   UNL     1      -5.700   2.849  63.343  1.00  0.00    -0.009 A  
HETATM   24  C   UNL     1      -6.572   3.533  64.185  1.00  0.00    -0.038 A  
HETATM   25  C   UNL     1      -6.163   1.868  62.490  1.00  0.00    -0.009 A  
HETATM   26  C   UNL     1      -8.402   2.198  63.356  1.00  0.00    -0.081 A  
ENDBRANCH  20  21
ENDBRANCH   8  20
BRANCH  13  27
HETATM   27  N   UNL     1      -6.982   6.704  68.975  1.00  0.00    -0.082 NA 
HETATM   28  H   UNL     1      -6.278   7.441  69.013  1.00  0.00     0.000 HD 
BRANCH  27  29
HETATM   29  C   UNL     1      -7.553   6.219  70.028  1.00  0.00    -0.096 C  
HETATM   30  H   UNL     1      -7.651   4.637  71.255  1.00  0.00     0.000 HD 
HETATM   31  O   UNL     1      -7.231   4.995  70.481  1.00  0.00    -0.051 OA 
BRANCH  29  32
HETATM   32  C   UNL     1      -8.650   6.835  70.898  1.00  0.00    -0.137 C  
HETATM   33  C   UNL     1      -9.904   5.988  71.106  1.00  0.00    -0.179 C  
HETATM   34  N   UNL     1     -10.728   6.589  72.173  1.00  0.00    -0.215 NA 
HETATM   35  C   UNL     1     -10.106   6.576  73.540  1.00  0.00    -0.240 C  
HETATM   36  C   UNL     1     -12.119   6.177  72.117  1.00  0.00    -0.207 C  
HETATM   37  C   UNL     1     -10.636   5.489  74.549  1.00  0.00    -0.040 C  
HETATM   38  C   UNL     1     -10.172   4.166  74.067  1.00  0.00    -0.230 A  
HETATM   39  C   UNL     1     -10.803   2.981  73.783  1.00  0.00    -0.215 A  
HETATM   40  N   UNL     1      -9.906   2.199  73.081  1.00  0.00    -0.096 NA 
HETATM   41  C   UNL     1      -8.700   2.857  72.938  1.00  0.00    -0.079 A  
HETATM   42  H   UNL     1     -10.106   1.266  72.720  1.00  0.00     0.000 HD 
HETATM   43  C   UNL     1      -7.544   2.565  72.212  1.00  0.00    -0.052 A  
HETATM   44  C   UNL     1      -6.530   3.540  72.211  1.00  0.00    -0.014 A  
HETATM   45  C   UNL     1      -6.714   4.802  72.792  1.00  0.00    -0.060 A  
HETATM   46  C   UNL     1      -7.955   5.134  73.346  1.00  0.00    -0.111 A  
HETATM   47  C   UNL     1      -8.508   6.554  73.466  1.00  0.00    -0.129 C  
HETATM   48  C   UNL     1      -8.861   4.080  73.553  1.00  0.00    -0.093 A  
HETATM   49  C   UNL     1      -8.130   7.426  72.248  1.00  0.00    -0.113 C  
ENDBRANCH  29  32
ENDBRANCH  27  29
ENDBRANCH  13  27
TORSDOF 5
ENDMDL
MODEL      178
REMARK 921   NORMALIZED FREE ENERGY PREDICTED BY IDOCK:    2.19 KCAL/MOL
REMARK 922        TOTAL FREE ENERGY PREDICTED BY IDOCK:    0.98 KCAL/MOL
REMARK 923 INTER-LIGAND FREE ENERGY PREDICTED BY IDOCK:   -3.35 KCAL/MOL
REMARK 924 INTRA-LIGAND FREE ENERGY PREDICTED BY IDOCK:    4.33 KCAL/MOL
REMARK 927      BINDING AFFINITY PREDICTED BY RF-SCORE:    0.00 PKD
ROOT
HETATM    1  C   UNL     1     -10.186  11.801  68.350  1.00  0.00    -0.206 C  
HETATM    2  C   UNL     1      -9.884  13.272  68.090  1.00  0.00    -0.231 C  
HETATM    3  C   UNL     1     -10.554  13.982  69.302  1.00  0.00    -0.095 C  
HETATM    4  C   UNL     1     -11.473  12.951  69.942  1.00  0.00    -0.077 C  
HETATM    5  N   UNL     1     -11.425  11.813  69.055  1.00  0.00    -0.270 N  
HETATM    6  C   UNL     1     -11.874  10.628  69.578  1.00  0.00    -0.273 C  
HETATM    7  O   UNL     1     -12.870  10.645  70.293  1.00  0.00    -0.302 OA 
HETATM    8  C   UNL     1     -11.102   9.338  69.102  1.00  0.00     0.024 C  
HETATM    9  C   UNL     1      -9.857  10.533  67.466  1.00  0.00    -0.168 C  
HETATM   10  N   UNL     1      -9.671   9.577  68.502  1.00  0.00    -0.149 N  
HETATM   11  C   UNL     1      -8.989   8.642  67.713  1.00  0.00    -0.136 C  
HETATM   12  H   UNL     1      -8.479  10.123  66.231  1.00  0.00     0.000 HD 
HETATM   13  C   UNL     1      -9.917   8.306  66.510  1.00  0.00    -0.250 C  
HETATM   14  O   UNL     1      -7.857   8.263  67.947  1.00  0.00    -0.110 OA 
HETATM   15  O   UNL     1      -8.677  10.886  66.762  1.00  0.00    -0.141 OA 
HETATM   16  O   UNL     1     -10.668   9.672  66.609  1.00  0.00    -0.149 OA 
HETATM   17  C   UNL     1      -9.376   5.778  67.447  1.00  0.00    -0.112 C  
HETATM   18  C   UNL     1     -11.740   6.188  66.744  1.00  0.00     1.166 C  
HETATM   19  C   UNL     1     -10.443   6.887  67.159  1.00  0.00    -0.373 C  
ENDROOT
BRANCH   8  20
HETATM   20  C   UNL     1     -11.272   8.278  70.205  1.00  0.00    -0.176 C  
BRANCH  20  21
HETATM   21  C   UNL     1      -9.951   8.059  70.977  1.00  0.00    -0.208 A  
HETATM   22  C   UNL     1      -8.899   8.310  73.144  1.00  0.00    -0.292 A  
HETATM   23  C   UNL     1      -8.186   6.546  71.693  1.00  0.00    -0.112 A  
HETATM   24  C   UNL     1      -9.057   6.997  70.706  1.00  0.00    -0.154 A  
HETATM   25  C   UNL     1      -8.132   7.165  72.926  1.00  0.00    -0.120 A  
HETATM   26  C   UNL     1      -9.799   8.757  72.180  1.00  0.00    -0.347 A  
ENDBRANCH  20  21
ENDBRANCH   8  20
BRANCH  13  27
HETATM   27  N   UNL     1      -9.272   8.222  65.173  1.00  0.00    -0.361 NA 
HETATM   28  H   UNL     1      -9.278   8.989  64.502  1.00  0.00     0.000 HD 
BRANCH  27  29
HETATM   29  C   UNL     1      -8.703   7.085  64.941  1.00  0.00     0.284 C  
HETATM   30  H   UNL     1      -8.991   5.216  64.277  1.00  0.00     0.000 HD 
HETATM   31  O   UNL     1      -9.409   6.052  64.448  1.00  0.00     0.708 OA 
BRANCH  29  32
HETATM   32  C   UNL     1      -7.252   6.668  65.184  1.00  0.00    -0.074 C  
HETATM   33  C   UNL     1      -7.002   5.757  66.384  1.00  0.00    -0.060 C  
HETATM   34  N   UNL     1      -5.625   5.228  66.318  1.00  0.00    -0.016 NA 
HETATM   35  C   UNL     1      -5.351   4.311  65.160  1.00  0.00    -0.009 C  
HETATM   36  C   UNL     1      -5.129   4.774  67.604  1.00  0.00    -0.007 C  
HETATM   37  C   UNL     1      -5.302   2.769  65.474  1.00  0.00    -0.009 C  
HETATM   38  C   UNL     1      -6.682   2.334  65.796  1.00  0.00    -0.035 A  
HETATM   39  C   UNL     1      -7.248   1.665  66.853  1.00  0.00    -0.047 A  
HETATM   40  N   UNL     1      -8.618   1.817  66.746  1.00  0.00    -0.100 NA 
HETATM   41  C   UNL     1      -8.937   2.550  65.619  1.00  0.00    -0.131 A  
HETATM   42  H   UNL     1      -9.298   1.440  67.407  1.00  0.00     0.000 HD 
HETATM   43  C   UNL     1     -10.136   3.082  65.146  1.00  0.00     0.319 A  
HETATM   44  C   UNL     1     -10.066   3.886  63.993  1.00  0.00    -0.200 A  
HETATM   45  C   UNL     1      -8.841   4.253  63.420  1.00  0.00    -0.128 A  
HETATM   46  C   UNL     1      -7.646   3.860  64.031  1.00  0.00    -0.078 A  
HETATM   47  C   UNL     1      -6.319   4.612  63.922  1.00  0.00    -0.030 C  
HETATM   48  C   UNL     1      -7.735   2.870  65.024  1.00  0.00    -0.081 A  
HETATM   49  C   UNL     1      -6.521   6.143  63.906  1.00  0.00    -0.030 C  
ENDBRANCH  29  32
ENDBRANCH  27  29
ENDBRANCH  13  27
TORSDOF 5
ENDMDL
MODEL      179
REMARK 921   NORMALIZED FREE ENERGY PREDICTED BY IDOCK:    2.37 KCAL/MOL
REMARK 922        TOTAL FREE ENERGY PREDICTED BY IDOCK:    1.21 KCAL/MOL
REMARK 923 INTER-LIGAND FREE ENERGY PREDICTED BY IDOCK:   -2.27 KCAL/MOL
REMARK 924 INTRA-LIGAND FREE ENERGY PREDICTED BY IDOCK:    3.48 KCAL/MOL
REMARK 927      BINDING AFFINITY PREDICTED BY RF-SCORE:    0.00 PKD
ROOT
HETATM    1  C   UNL     1      -7.622   7.066  70.763  1.00  0.00    -0.090 C  
HETATM    2  C   UNL     1      -7.047   7.944  71.869  1.00  0.00    -0.072 C  
HETATM    3  C   UNL     1      -6.448   6.903  72.859  1.00  0.00    -0.061 C  
HETATM    4  C   UNL     1      -7.027   5.553  72.457  1.00  0.00    -0.083 C  
HETATM    5  N   UNL     1      -7.988   5.858  71.423  1.00  0.00    -0.112 N  
HETATM    6  C   UNL     1      -8.386   4.800  70.647  1.00  0.00    -0.096 C  
HETATM    7  O   UNL     1      -8.581   3.717  71.189  1.00  0.00    -0.074 OA 
HETATM    8  C   UNL     1      -8.653   5.133  69.129  1.00  0.00    -0.092 C  
HETATM    9  C   UNL     1      -8.441   7.476  69.475  1.00  0.00    -0.132 C  
HETATM   10  N   UNL     1      -7.998   6.454  68.591  1.00  0.00    -0.105 N  
HETATM   11  C   UNL     1      -8.398   7.101  67.414  1.00  0.00    -0.119 C  
HETATM   12  H   UNL     1      -8.471   9.025  68.384  1.00  0.00     0.000 HD 
HETATM   13  C   UNL     1      -9.919   7.393  67.555  1.00  0.00    -0.173 C  
HETATM   14  O   UNL     1      -7.629   7.407  66.522  1.00  0.00    -0.089 OA 
HETATM   15  O   UNL     1      -7.979   8.779  69.158  1.00  0.00    -0.105 OA 
HETATM   16  O   UNL     1      -9.854   7.385  69.116  1.00  0.00    -0.163 OA 
HETATM   17  C   UNL     1      -9.882   6.091  65.133  1.00  0.00     1.072 C  
HETATM   18  C   UNL     1     -11.765   5.479  66.662  1.00  0.00     1.896 C  
HETATM   19  C   UNL     1     -10.373   6.115  66.620  1.00  0.00    -0.249 C  
ENDROOT
BRANCH   8  20
HETATM   20  C   UNL     1      -8.443   3.829  68.338  1.00  0.00    -0.108 C  
BRANCH  20  21
HETATM   21  C   UNL     1      -7.244   3.951  67.369  1.00  0.00    -0.067 A  
HETATM   22  C   UNL     1      -6.644   4.346  65.057  1.00  0.00    -0.044 A  
HETATM   23  C   UNL     1      -5.138   5.020  66.790  1.00  0.00    -0.008 A  
HETATM   24  C   UNL     1      -5.986   4.474  67.748  1.00  0.00    -0.023 A  
HETATM   25  C   UNL     1      -5.476   5.002  65.452  1.00  0.00    -0.013 A  
HETATM   26  C   UNL     1      -7.520   3.822  66.004  1.00  0.00    -0.080 A  
ENDBRANCH  20  21
ENDBRANCH   8  20
BRANCH  13  27
HETATM   27  N   UNL     1     -10.385   8.734  67.113  1.00  0.00    -0.281 NA 
HETATM   28  H   UNL     1     -11.363   9.019  67.135  1.00  0.00     0.000 HD 
BRANCH  27  29
HETATM   29  C   UNL     1      -9.434   9.503  66.698  1.00  0.00    -0.170 C  
HETATM   30  H   UNL     1      -8.579  10.322  65.081  1.00  0.00     0.000 HD 
HETATM   31  O   UNL     1      -9.278   9.756  65.387  1.00  0.00    -0.191 OA 
BRANCH  29  32
HETATM   32  C   UNL     1      -8.343  10.207  67.507  1.00  0.00    -0.118 C  
HETATM   33  C   UNL     1      -7.592  11.331  66.796  1.00  0.00    -0.151 C  
HETATM   34  N   UNL     1      -6.785  12.078  67.781  1.00  0.00    -0.086 NA 
HETATM   35  C   UNL     1      -7.576  12.828  68.814  1.00  0.00    -0.025 C  
HETATM   36  C   UNL     1      -5.691  12.817  67.175  1.00  0.00     0.136 C  
HETATM   37  C   UNL     1      -7.706  14.384  68.614  1.00  0.00    -0.138 C  
HETATM   38  C   UNL     1      -8.579  14.613  67.438  1.00  0.00    -0.212 A  
HETATM   39  C   UNL     1      -8.444  15.334  66.278  1.00  0.00     0.072 A  
HETATM   40  N   UNL     1      -9.452  14.926  65.424  1.00  0.00    -0.412 NA 
HETATM   41  C   UNL     1     -10.246  13.974  66.035  1.00  0.00    -0.304 A  
HETATM   42  H   UNL     1      -9.589  15.278  64.477  1.00  0.00     0.000 HD 
HETATM   43  C   UNL     1     -11.283  13.167  65.566  1.00  0.00    -0.305 A  
HETATM   44  C   UNL     1     -11.801  12.212  66.460  1.00  0.00    -0.322 A  
HETATM   45  C   UNL     1     -11.220  11.980  67.714  1.00  0.00    -0.331 A  
HETATM   46  C   UNL     1     -10.062  12.673  68.079  1.00  0.00    -0.229 A  
HETATM   47  C   UNL     1      -9.009  12.162  69.063  1.00  0.00     0.390 C  
HETATM   48  C   UNL     1      -9.708  13.780  67.289  1.00  0.00    -0.242 A  
HETATM   49  C   UNL     1      -8.794  10.638  68.940  1.00  0.00    -0.160 C  
ENDBRANCH  29  32
ENDBRANCH  27  29
ENDBRANCH  13  27
TORSDOF 5
ENDMDL
MODEL      180
REMARK 921   NORMALIZED FREE ENERGY PREDICTED BY IDOCK:    2.47 KCAL/MOL
REMARK 922        TOTAL FREE ENERGY PREDICTED BY IDOCK:    1.35 KCAL/MOL
REMARK 923 INTER-LIGAND FREE ENERGY PREDICTED BY IDOCK:   -6.68 KCAL/MOL
REMARK 924 INTRA-LIGAND FREE ENERGY PREDICTED BY IDOCK:    8.04 KCAL/MOL
REMARK 927      BINDING AFFINITY PREDICTED BY RF-SCORE:    0.00 PKD
ROOT
HETATM    1  C   UNL     1     -10.062  12.937  65.292  1.00  0.00    -0.238 C  
HETATM    2  C   UNL     1     -10.710  13.997  64.409  1.00  0.00    -0.236 C  
HETATM    3  C   UNL     1     -11.846  13.206  63.698  1.00  0.00    -0.549 C  
HETATM    4  C   UNL     1     -11.544  11.731  63.928  1.00  0.00    -0.377 C  
HETATM    5  N   UNL     1     -10.258  11.716  64.583  1.00  0.00    -0.266 N  
HETATM    6  C   UNL     1      -9.925  10.547  65.218  1.00  0.00    -0.299 C  
HETATM    7  O   UNL     1     -10.205   9.485  64.673  1.00  0.00     0.441 OA 
HETATM    8  C   UNL     1      -9.106  10.709  66.556  1.00  0.00    -0.162 C  
HETATM    9  C   UNL     1      -8.795  13.044  66.231  1.00  0.00     0.196 C  
HETATM   10  N   UNL     1      -9.181  12.121  67.240  1.00  0.00    -0.180 N  
HETATM   11  C   UNL     1      -8.270  12.571  68.204  1.00  0.00    -0.170 C  
HETATM   12  H   UNL     1      -8.010  14.467  67.208  1.00  0.00     0.000 HD 
HETATM   13  C   UNL     1      -6.854  12.470  67.566  1.00  0.00    -0.150 C  
HETATM   14  O   UNL     1      -8.602  13.012  69.288  1.00  0.00     0.556 OA 
HETATM   15  O   UNL     1      -8.771  14.402  66.643  1.00  0.00    -0.203 OA 
HETATM   16  O   UNL     1      -7.417  12.572  66.112  1.00  0.00     0.919 OA 
HETATM   17  C   UNL     1      -6.451  11.080  69.904  1.00  0.00    -0.144 C  
HETATM   18  C   UNL     1      -5.390  10.096  67.864  1.00  0.00    -0.038 C  
HETATM   19  C   UNL     1      -6.476  11.065  68.338  1.00  0.00    -0.057 C  
ENDROOT
BRANCH   8  20
HETATM   20  C   UNL     1      -9.385   9.459  67.410  1.00  0.00    -0.151 C  
BRANCH  20  21
HETATM   21  C   UNL     1     -10.493   9.731  68.453  1.00  0.00    -0.250 A  
HETATM   22  C   UNL     1     -10.918   9.950  70.826  1.00  0.00    -0.407 A  
HETATM   23  C   UNL     1     -12.263  11.180  69.277  1.00  0.00    -0.295 A  
HETATM   24  C   UNL     1     -11.597  10.580  68.213  1.00  0.00    -0.180 A  
HETATM   25  C   UNL     1     -11.904  10.907  70.582  1.00  0.00    -0.453 A  
HETATM   26  C   UNL     1     -10.220   9.363  69.775  1.00  0.00    -0.238 A  
ENDBRANCH  20  21
ENDBRANCH   8  20
BRANCH  13  27
HETATM   27  N   UNL     1      -5.936  13.617  67.794  1.00  0.00    -0.224 NA 
HETATM   28  H   UNL     1      -4.936  13.507  67.953  1.00  0.00     0.000 HD 
BRANCH  27  29
HETATM   29  C   UNL     1      -6.525  14.766  67.770  1.00  0.00    -0.164 C  
HETATM   30  H   UNL     1      -8.254  15.727  68.096  1.00  0.00     0.000 HD 
HETATM   31  O   UNL     1      -7.821  14.882  68.113  1.00  0.00    -0.112 OA 
BRANCH  29  32
HETATM   32  C   UNL     1      -5.966  16.127  67.350  1.00  0.00    -0.179 C  
HETATM   33  C   UNL     1      -6.737  16.869  66.260  1.00  0.00     0.001 C  
HETATM   34  N   UNL     1      -6.242  18.256  66.169  1.00  0.00    -0.187 NA 
HETATM   35  C   UNL     1      -6.505  19.106  67.379  1.00  0.00    -0.186 C  
HETATM   36  C   UNL     1      -6.535  18.881  64.892  1.00  0.00    -0.075 C  
HETATM   37  C   UNL     1      -7.687  20.141  67.274  1.00  0.00    -0.341 C  
HETATM   38  C   UNL     1      -8.954  19.373  67.246  1.00  0.00    -0.351 A  
HETATM   39  C   UNL     1     -10.034  19.345  66.399  1.00  0.00    -0.414 A  
HETATM   40  N   UNL     1     -10.768  18.216  66.708  1.00  0.00    -0.272 NA 
HETATM   41  C   UNL     1     -10.188  17.537  67.763  1.00  0.00    -0.349 A  
HETATM   42  H   UNL     1     -11.619  17.925  66.226  1.00  0.00     0.000 HD 
HETATM   43  C   UNL     1     -10.454  16.300  68.351  1.00  0.00    -0.282 A  
HETATM   44  C   UNL     1      -9.569  15.869  69.356  1.00  0.00    -0.265 A  
HETATM   45  C   UNL     1      -8.398  16.573  69.663  1.00  0.00     0.494 A  
HETATM   46  C   UNL     1      -8.060  17.710  68.922  1.00  0.00    -0.162 A  
HETATM   47  C   UNL     1      -6.635  18.224  68.708  1.00  0.00    -0.242 C  
HETATM   48  C   UNL     1      -9.061  18.256  68.101  1.00  0.00    -0.310 A  
HETATM   49  C   UNL     1      -5.622  17.069  68.548  1.00  0.00    -0.135 C  
ENDBRANCH  29  32
ENDBRANCH  27  29
ENDBRANCH  13  27
TORSDOF 5
ENDMDL
MODEL      181
REMARK 921   NORMALIZED FREE ENERGY PREDICTED BY IDOCK:    3.40 KCAL/MOL
REMARK 922        TOTAL FREE ENERGY PREDICTED BY IDOCK:    2.55 KCAL/MOL
REMARK 923 INTER-LIGAND FREE ENERGY PREDICTED BY IDOCK:   -5.67 KCAL/MOL
REMARK 924 INTRA-LIGAND FREE ENERGY PREDICTED BY IDOCK:    8.23 KCAL/MOL
REMARK 927      BINDING AFFINITY PREDICTED BY RF-SCORE:    0.00 PKD
ROOT
HETATM    1  C   UNL     1      -9.047   8.927  66.866  1.00  0.00    -0.133 C  
HETATM    2  C   UNL     1      -9.517   8.329  65.545  1.00  0.00     0.203 C  
HETATM    3  C   UNL     1     -10.125   6.965  65.981  1.00  0.00     0.447 C  
HETATM    4  C   UNL     1      -9.644   6.721  67.405  1.00  0.00    -0.134 C  
HETATM    5  N   UNL     1      -8.719   7.797  67.670  1.00  0.00    -0.126 N  
HETATM    6  C   UNL     1      -8.421   8.017  68.991  1.00  0.00    -0.130 C  
HETATM    7  O   UNL     1      -8.261   7.047  69.723  1.00  0.00    -0.127 OA 
HETATM    8  C   UNL     1      -8.209   9.525  69.398  1.00  0.00    -0.126 C  
HETATM    9  C   UNL     1      -8.271  10.275  67.143  1.00  0.00    -0.121 C  
HETATM   10  N   UNL     1      -8.813  10.593  68.418  1.00  0.00    -0.138 N  
HETATM   11  C   UNL     1      -8.435  11.942  68.403  1.00  0.00    -0.155 C  
HETATM   12  H   UNL     1      -8.205  11.951  66.258  1.00  0.00     0.000 HD 
HETATM   13  C   UNL     1      -6.894  11.975  68.190  1.00  0.00    -0.069 C  
HETATM   14  O   UNL     1      -9.227  12.862  68.476  1.00  0.00    -0.165 OA 
HETATM   15  O   UNL     1      -8.672  11.140  66.092  1.00  0.00    -0.180 OA 
HETATM   16  O   UNL     1      -6.884  10.579  67.488  1.00  0.00    -0.073 OA 
HETATM   17  C   UNL     1      -7.123  13.542  70.438  1.00  0.00     1.170 C  
HETATM   18  C   UNL     1      -5.206  11.936  70.429  1.00  0.00    -0.113 C  
HETATM   19  C   UNL     1      -6.560  12.237  69.781  1.00  0.00     0.032 C  
ENDROOT
BRANCH   8  20
HETATM   20  C   UNL     1      -8.531   9.636  70.900  1.00  0.00     0.205 C  
BRANCH  20  21
HETATM   21  C   UNL     1      -9.788   8.813  71.263  1.00  0.00    -0.336 A  
HETATM   22  C   UNL     1     -10.904   7.666  73.080  1.00  0.00    -0.457 A  
HETATM   23  C   UNL     1     -12.213   8.639  71.330  1.00  0.00    -0.348 A  
HETATM   24  C   UNL     1     -11.052   9.014  70.662  1.00  0.00    -0.314 A  
HETATM   25  C   UNL     1     -12.152   8.007  72.556  1.00  0.00    -0.338 A  
HETATM   26  C   UNL     1      -9.732   8.060  72.441  1.00  0.00    -0.305 A  
ENDBRANCH  20  21
ENDBRANCH   8  20
BRANCH  13  27
HETATM   27  N   UNL     1      -6.375  12.985  67.231  1.00  0.00    -0.432 NA 
HETATM   28  H   UNL     1      -5.602  12.802  66.593  1.00  0.00     0.000 HD 
BRANCH  27  29
HETATM   29  C   UNL     1      -6.996  14.117  67.281  1.00  0.00     0.138 C  
HETATM   30  H   UNL     1      -8.796  14.993  67.376  1.00  0.00     0.000 HD 
HETATM   31  O   UNL     1      -8.339  14.161  67.339  1.00  0.00    -0.175 OA 
BRANCH  29  32
HETATM   32  C   UNL     1      -6.420  15.533  67.247  1.00  0.00    -0.049 C  
HETATM   33  C   UNL     1      -7.177  16.552  66.398  1.00  0.00    -0.056 C  
HETATM   34  N   UNL     1      -6.668  17.907  66.689  1.00  0.00    -0.184 NA 
HETATM   35  C   UNL     1      -6.928  18.398  68.084  1.00  0.00    -0.235 C  
HETATM   36  C   UNL     1      -6.948  18.858  65.629  1.00  0.00    -0.232 C  
HETATM   37  C   UNL     1      -8.098  19.437  68.262  1.00  0.00    -0.371 C  
HETATM   38  C   UNL     1      -9.373  18.720  68.024  1.00  0.00    -0.340 A  
HETATM   39  C   UNL     1     -10.448  18.936  67.198  1.00  0.00    -0.438 A  
HETATM   40  N   UNL     1     -11.196  17.774  67.188  1.00  0.00     0.233 NA 
HETATM   41  C   UNL     1     -10.629  16.827  68.019  1.00  0.00    -0.347 A  
HETATM   42  H   UNL     1     -12.047  17.635  66.644  1.00  0.00     0.000 HD 
HETATM   43  C   UNL     1     -10.911  15.480  68.249  1.00  0.00    -0.292 A  
HETATM   44  C   UNL     1     -10.036  14.782  69.100  1.00  0.00    -0.184 A  
HETATM   45  C   UNL     1      -8.858  15.363  69.590  1.00  0.00    -0.138 A  
HETATM   46  C   UNL     1      -8.505  16.654  69.187  1.00  0.00    -0.115 A  
HETATM   47  C   UNL     1      -7.074  17.190  69.123  1.00  0.00    -0.213 C  
HETATM   48  C   UNL     1      -9.496  17.414  68.543  1.00  0.00    -0.297 A  
HETATM   49  C   UNL     1      -6.072  16.110  68.657  1.00  0.00    -0.112 C  
ENDBRANCH  29  32
ENDBRANCH  27  29
ENDBRANCH  13  27
TORSDOF 5
ENDMDL
MODEL      182
REMARK 921   NORMALIZED FREE ENERGY PREDICTED BY IDOCK:    3.49 KCAL/MOL
REMARK 922        TOTAL FREE ENERGY PREDICTED BY IDOCK:    2.67 KCAL/MOL
REMARK 923 INTER-LIGAND FREE ENERGY PREDICTED BY IDOCK:   -4.16 KCAL/MOL
REMARK 924 INTRA-LIGAND FREE ENERGY PREDICTED BY IDOCK:    6.83 KCAL/MOL
REMARK 927      BINDING AFFINITY PREDICTED BY RF-SCORE:    0.00 PKD
ROOT
HETATM    1  C   UNL     1      -6.510  12.471  68.098  1.00  0.00    -0.076 C  
HETATM    2  C   UNL     1      -6.152  13.941  67.910  1.00  0.00    -0.153 C  
HETATM    3  C   UNL     1      -5.132  14.196  69.058  1.00  0.00    -0.075 C  
HETATM    4  C   UNL     1      -5.257  13.013  70.008  1.00  0.00    -0.094 C  
HETATM    5  N   UNL     1      -6.370  12.247  69.498  1.00  0.00    -0.123 N  
HETATM    6  C   UNL     1      -6.464  10.957  69.953  1.00  0.00    -0.144 C  
HETATM    7  O   UNL     1      -6.220  10.733  71.133  1.00  0.00    -0.344 OA 
HETATM    8  C   UNL     1      -6.991   9.904  68.904  1.00  0.00    -0.062 C  
HETATM    9  C   UNL     1      -7.553  11.580  67.314  1.00  0.00    -0.143 C  
HETATM   10  N   UNL     1      -6.888  10.326  67.395  1.00  0.00    -0.076 N  
HETATM   11  C   UNL     1      -7.608   9.713  66.362  1.00  0.00    -0.101 C  
HETATM   12  H   UNL     1      -8.227  11.610  65.542  1.00  0.00     0.000 HD 
HETATM   13  C   UNL     1      -9.113   9.814  66.741  1.00  0.00    -0.146 C  
HETATM   14  O   UNL     1      -7.090   9.271  65.353  1.00  0.00    -0.083 OA 
HETATM   15  O   UNL     1      -7.600  12.146  66.014  1.00  0.00     0.614 OA 
HETATM   16  O   UNL     1      -8.881  11.067  67.644  1.00  0.00    -0.130 OA 
HETATM   17  C   UNL     1      -8.896   7.115  66.260  1.00  0.00    -0.166 C  
HETATM   18  C   UNL     1     -10.282   7.753  68.242  1.00  0.00    -0.236 C  
HETATM   19  C   UNL     1      -9.203   8.261  67.283  1.00  0.00    -0.165 C  
ENDROOT
BRANCH   8  20
HETATM   20  C   UNL     1      -6.436   8.531  69.326  1.00  0.00    -0.042 C  
BRANCH  20  21
HETATM   21  C   UNL     1      -7.244   7.940  70.504  1.00  0.00    -0.053 A  
HETATM   22  C   UNL     1      -9.335   8.119  71.712  1.00  0.00    -0.241 A  
HETATM   23  C   UNL     1      -8.236   5.998  71.580  1.00  0.00    -0.123 A  
HETATM   24  C   UNL     1      -7.177   6.582  70.892  1.00  0.00    -0.071 A  
HETATM   25  C   UNL     1      -9.335   6.744  71.954  1.00  0.00    -0.146 A  
HETATM   26  C   UNL     1      -8.300   8.715  70.997  1.00  0.00    -0.193 A  
ENDBRANCH  20  21
ENDBRANCH   8  20
BRANCH  13  27
HETATM   27  N   UNL     1     -10.052  10.189  65.651  1.00  0.00    -0.272 NA 
HETATM   28  H   UNL     1     -10.120   9.676  64.773  1.00  0.00     0.000 HD 
BRANCH  27  29
HETATM   29  C   UNL     1     -10.775  11.224  65.922  1.00  0.00    -0.232 C  
HETATM   30  H   UNL     1     -12.431  11.867  66.850  1.00  0.00     0.000 HD 
HETATM   31  O   UNL     1     -11.899  11.106  66.651  1.00  0.00    -0.206 OA 
BRANCH  29  32
HETATM   32  C   UNL     1     -10.574  12.678  65.490  1.00  0.00    -0.301 C  
HETATM   33  C   UNL     1     -11.744  13.628  65.745  1.00  0.00    -0.348 C  
HETATM   34  N   UNL     1     -11.298  15.019  65.536  1.00  0.00    -0.338 NA 
HETATM   35  C   UNL     1     -10.270  15.511  66.514  1.00  0.00    -0.283 C  
HETATM   36  C   UNL     1     -12.394  15.933  65.271  1.00  0.00     1.229 C  
HETATM   37  C   UNL     1     -10.780  16.465  67.658  1.00  0.00    -0.312 C  
HETATM   38  C   UNL     1     -11.612  15.655  68.579  1.00  0.00    -0.378 A  
HETATM   39  C   UNL     1     -12.886  15.782  69.073  1.00  0.00     1.094 A  
HETATM   40  N   UNL     1     -13.226  14.569  69.641  1.00  0.00     0.108 NA 
HETATM   41  C   UNL     1     -12.175  13.677  69.543  1.00  0.00    -0.264 A  
HETATM   42  H   UNL     1     -14.127  14.361  70.073  1.00  0.00     0.000 HD 
HETATM   43  C   UNL     1     -12.060  12.317  69.831  1.00  0.00    -0.319 A  
HETATM   44  C   UNL     1     -10.843  11.696  69.495  1.00  0.00    -0.087 A  
HETATM   45  C   UNL     1      -9.841  12.367  68.781  1.00  0.00    -0.005 A  
HETATM   46  C   UNL     1     -10.065  13.675  68.339  1.00  0.00    -0.241 A  
HETATM   47  C   UNL     1      -9.401  14.311  67.117  1.00  0.00    -0.233 C  
HETATM   48  C   UNL     1     -11.168  14.351  68.886  1.00  0.00    -0.284 A  
HETATM   49  C   UNL     1      -9.221  13.299  65.964  1.00  0.00     0.084 C  
ENDBRANCH  29  32
ENDBRANCH  27  29
ENDBRANCH  13  27
TORSDOF 5
ENDMDL
MODEL      183
REMARK 921   NORMALIZED FREE ENERGY PREDICTED BY IDOCK:    4.01 KCAL/MOL
REMARK 922        TOTAL FREE ENERGY PREDICTED BY IDOCK:    3.34 KCAL/MOL
REMARK 923 INTER-LIGAND FREE ENERGY PREDICTED BY IDOCK:    1.50 KCAL/MOL
REMARK 924 INTRA-LIGAND FREE ENERGY PREDICTED BY IDOCK:    1.84 KCAL/MOL
REMARK 927      BINDING AFFINITY PREDICTED BY RF-SCORE:    0.00 PKD
ROOT
HETATM    1  C   UNL     1     -11.019  10.406  67.995  1.00  0.00    -0.291 C  
HETATM    2  C   UNL     1     -12.101   9.575  68.674  1.00  0.00     1.852 C  
HETATM    3  C   UNL     1     -12.607  10.522  69.800  1.00  0.00    -0.038 C  
HETATM    4  C   UNL     1     -11.570  11.630  69.921  1.00  0.00    -0.288 C  
HETATM    5  N   UNL     1     -10.502  11.233  69.034  1.00  0.00    -0.212 N  
HETATM    6  C   UNL     1      -9.617  12.221  68.685  1.00  0.00    -0.043 C  
HETATM    7  O   UNL     1      -9.263  13.019  69.545  1.00  0.00     1.036 OA 
HETATM    8  C   UNL     1      -9.064  12.148  67.210  1.00  0.00    -0.181 C  
HETATM    9  C   UNL     1     -10.044  10.018  66.812  1.00  0.00    -0.226 C  
HETATM   10  N   UNL     1      -9.911  11.295  66.200  1.00  0.00    -0.220 N  
HETATM   11  C   UNL     1      -9.421  10.817  64.978  1.00  0.00    -0.241 C  
HETATM   12  H   UNL     1     -10.182   8.832  65.340  1.00  0.00     0.000 HD 
HETATM   13  C   UNL     1      -8.150   9.980  65.299  1.00  0.00    -0.145 C  
HETATM   14  O   UNL     1      -9.978  11.003  63.912  1.00  0.00    -0.279 OA 
HETATM   15  O   UNL     1     -10.768   9.065  66.051  1.00  0.00     0.367 OA 
HETATM   16  O   UNL     1      -8.625   9.675  66.756  1.00  0.00    -0.132 OA 
HETATM   17  C   UNL     1      -7.151  11.697  63.398  1.00  0.00     2.382 C  
HETATM   18  C   UNL     1      -5.653  11.256  65.351  1.00  0.00     0.378 C  
HETATM   19  C   UNL     1      -7.106  11.181  64.876  1.00  0.00     0.816 C  
ENDROOT
BRANCH   8  20
HETATM   20  C   UNL     1      -8.660  13.579  66.809  1.00  0.00    -0.043 C  
BRANCH  20  21
HETATM   21  C   UNL     1      -9.899  14.426  66.440  1.00  0.00    -0.309 A  
HETATM   22  C   UNL     1     -10.635  16.676  65.934  1.00  0.00    -0.257 A  
HETATM   23  C   UNL     1     -11.781  14.820  64.951  1.00  0.00    -0.390 A  
HETATM   24  C   UNL     1     -10.973  13.938  65.661  1.00  0.00    -0.290 A  
HETATM   25  C   UNL     1     -11.593  16.185  65.045  1.00  0.00     0.162 A  
HETATM   26  C   UNL     1      -9.797  15.809  66.628  1.00  0.00    -0.266 A  
ENDBRANCH  20  21
ENDBRANCH   8  20
BRANCH  13  27
HETATM   27  N   UNL     1      -8.001   8.690  64.576  1.00  0.00    -0.136 NA 
HETATM   28  H   UNL     1      -8.050   8.611  63.561  1.00  0.00     0.000 HD 
BRANCH  27  29
HETATM   29  C   UNL     1      -7.802   7.678  65.354  1.00  0.00    -0.115 C  
HETATM   30  H   UNL     1      -6.943   7.068  67.059  1.00  0.00     0.000 HD 
HETATM   31  O   UNL     1      -7.089   7.812  66.487  1.00  0.00    -0.075 OA 
BRANCH  29  32
HETATM   32  C   UNL     1      -8.245   6.224  65.176  1.00  0.00    -0.138 C  
HETATM   33  C   UNL     1      -7.285   5.156  65.694  1.00  0.00    -0.068 C  
HETATM   34  N   UNL     1      -7.968   3.847  65.703  1.00  0.00    -0.093 NA 
HETATM   35  C   UNL     1      -9.117   3.736  66.664  1.00  0.00    -0.157 C  
HETATM   36  C   UNL     1      -7.047   2.726  65.700  1.00  0.00    -0.064 C  
HETATM   37  C   UNL     1      -8.849   2.946  67.999  1.00  0.00    -0.164 C  
HETATM   38  C   UNL     1      -7.930   3.764  68.826  1.00  0.00    -0.065 A  
HETATM   39  C   UNL     1      -6.727   3.518  69.440  1.00  0.00    -0.037 A  
HETATM   40  N   UNL     1      -6.198   4.741  69.807  1.00  0.00    -0.025 NA 
HETATM   41  C   UNL     1      -7.061   5.764  69.462  1.00  0.00    -0.065 A  
HETATM   42  H   UNL     1      -5.297   4.870  70.268  1.00  0.00     0.000 HD 
HETATM   43  C   UNL     1      -6.938   7.153  69.490  1.00  0.00    -0.058 A  
HETATM   44  C   UNL     1      -8.001   7.898  68.946  1.00  0.00    -0.123 A  
HETATM   45  C   UNL     1      -9.072   7.283  68.284  1.00  0.00    -0.134 A  
HETATM   46  C   UNL     1      -9.071   5.896  68.104  1.00  0.00    -0.117 A  
HETATM   47  C   UNL     1      -9.779   5.161  66.966  1.00  0.00    -0.173 C  
HETATM   48  C   UNL     1      -8.140   5.159  68.855  1.00  0.00    -0.085 A  
HETATM   49  C   UNL     1      -9.712   5.948  65.639  1.00  0.00     0.250 C  
ENDBRANCH  29  32
ENDBRANCH  27  29
ENDBRANCH  13  27
TORSDOF 5
ENDMDL
MODEL      184
REMARK 921   NORMALIZED FREE ENERGY PREDICTED BY IDOCK:    4.17 KCAL/MOL
REMARK 922        TOTAL FREE ENERGY PREDICTED BY IDOCK:    3.55 KCAL/MOL
REMARK 923 INTER-LIGAND FREE ENERGY PREDICTED BY IDOCK:   -0.86 KCAL/MOL
REMARK 924 INTRA-LIGAND FREE ENERGY PREDICTED BY IDOCK:    4.41 KCAL/MOL
REMARK 927      BINDING AFFINITY PREDICTED BY RF-SCORE:    0.00 PKD
ROOT
HETATM    1  C   UNL     1     -10.219  16.797  67.561  1.00  0.00    -0.289 C  
HETATM    2  C   UNL     1     -11.661  17.127  67.194  1.00  0.00     1.419 C  
HETATM    3  C   UNL     1     -11.667  18.683  67.187  1.00  0.00     1.725 C  
HETATM    4  C   UNL     1     -10.386  19.116  67.886  1.00  0.00    -0.414 C  
HETATM    5  N   UNL     1      -9.800  17.890  68.374  1.00  0.00    -0.335 N  
HETATM    6  C   UNL     1      -8.475  17.958  68.722  1.00  0.00    -0.205 C  
HETATM    7  O   UNL     1      -8.076  18.956  69.312  1.00  0.00    -0.121 OA 
HETATM    8  C   UNL     1      -7.624  16.669  68.409  1.00  0.00    -0.197 C  
HETATM    9  C   UNL     1      -9.540  15.393  67.814  1.00  0.00    -0.210 C  
HETATM   10  N   UNL     1      -8.230  15.686  67.345  1.00  0.00    -0.162 N  
HETATM   11  C   UNL     1      -7.829  14.352  67.195  1.00  0.00    -0.082 C  
HETATM   12  H   UNL     1      -9.866  13.645  67.154  1.00  0.00     0.000 HD 
HETATM   13  C   UNL     1      -8.018  13.667  68.579  1.00  0.00    -0.127 C  
HETATM   14  O   UNL     1      -7.478  13.871  66.134  1.00  0.00     1.807 OA 
HETATM   15  O   UNL     1     -10.275  14.490  67.003  1.00  0.00    -0.258 OA 
HETATM   16  O   UNL     1      -9.114  14.689  69.022  1.00  0.00    -0.175 OA 
HETATM   17  C   UNL     1      -5.398  13.020  68.053  1.00  0.00    -0.103 C  
HETATM   18  C   UNL     1      -5.894  13.686  70.411  1.00  0.00    -0.161 C  
HETATM   19  C   UNL     1      -6.422  13.761  68.977  1.00  0.00    -0.105 C  
ENDROOT
BRANCH   8  20
HETATM   20  C   UNL     1      -6.162  17.123  68.246  1.00  0.00    -0.144 C  
BRANCH  20  21
HETATM   21  C   UNL     1      -5.690  17.940  69.470  1.00  0.00    -0.229 A  
HETATM   22  C   UNL     1      -5.377  20.192  70.302  1.00  0.00    -0.297 A  
HETATM   23  C   UNL     1      -5.890  18.435  71.843  1.00  0.00     0.859 A  
HETATM   24  C   UNL     1      -5.856  17.508  70.806  1.00  0.00     0.323 A  
HETATM   25  C   UNL     1      -5.697  19.779  71.597  1.00  0.00    -0.342 A  
HETATM   26  C   UNL     1      -5.370  19.283  69.248  1.00  0.00    -0.208 A  
ENDBRANCH  20  21
ENDBRANCH   8  20
BRANCH  13  27
HETATM   27  N   UNL     1      -8.619  12.308  68.575  1.00  0.00    -0.322 NA 
HETATM   28  H   UNL     1      -9.589  12.127  68.830  1.00  0.00     0.000 HD 
BRANCH  27  29
HETATM   29  C   UNL     1      -7.797  11.378  68.218  1.00  0.00    -0.132 C  
HETATM   30  H   UNL     1      -5.962  10.620  68.494  1.00  0.00     0.000 HD 
HETATM   31  O   UNL     1      -6.567  11.304  68.756  1.00  0.00    -0.053 OA 
BRANCH  29  32
HETATM   32  C   UNL     1      -7.985  10.275  67.175  1.00  0.00    -0.114 C  
HETATM   33  C   UNL     1      -7.382   8.913  67.513  1.00  0.00    -0.081 C  
HETATM   34  N   UNL     1      -7.882   7.905  66.556  1.00  0.00    -0.096 NA 
HETATM   35  C   UNL     1      -9.356   7.630  66.636  1.00  0.00    -0.190 C  
HETATM   36  C   UNL     1      -7.031   6.733  66.471  1.00  0.00    -0.063 C  
HETATM   37  C   UNL     1      -9.789   6.300  67.361  1.00  0.00    -0.154 C  
HETATM   38  C   UNL     1      -9.503   6.465  68.806  1.00  0.00    -0.127 A  
HETATM   39  C   UNL     1      -8.796   5.732  69.727  1.00  0.00    -0.126 A  
HETATM   40  N   UNL     1      -8.621   6.533  70.839  1.00  0.00    -0.134 NA 
HETATM   41  C   UNL     1      -9.231   7.758  70.653  1.00  0.00    -0.161 A  
HETATM   42  H   UNL     1      -8.113   6.258  71.680  1.00  0.00     0.000 HD 
HETATM   43  C   UNL     1      -9.229   8.938  71.399  1.00  0.00    -0.328 A  
HETATM   44  C   UNL     1      -9.886  10.048  70.836  1.00  0.00     0.432 A  
HETATM   45  C   UNL     1     -10.401  10.021  69.533  1.00  0.00    -0.256 A  
HETATM   46  C   UNL     1     -10.218   8.885  68.740  1.00  0.00    -0.224 A  
HETATM   47  C   UNL     1     -10.166   8.884  67.212  1.00  0.00    -0.326 C  
HETATM   48  C   UNL     1      -9.783   7.718  69.391  1.00  0.00    -0.169 A  
HETATM   49  C   UNL     1      -9.453  10.137  66.656  1.00  0.00    -0.211 C  
ENDBRANCH  29  32
ENDBRANCH  27  29
ENDBRANCH  13  27
TORSDOF 5
ENDMDL
MODEL      185
REMARK 921   NORMALIZED FREE ENERGY PREDICTED BY IDOCK:    4.87 KCAL/MOL
REMARK 922        TOTAL FREE ENERGY PREDICTED BY IDOCK:    4.45 KCAL/MOL
REMARK 923 INTER-LIGAND FREE ENERGY PREDICTED BY IDOCK:   -1.32 KCAL/MOL
REMARK 924 INTRA-LIGAND FREE ENERGY PREDICTED BY IDOCK:    5.78 KCAL/MOL
REMARK 927      BINDING AFFINITY PREDICTED BY RF-SCORE:    0.00 PKD
ROOT
HETATM    1  C   UNL     1      -9.872   9.432  68.860  1.00  0.00    -0.171 C  
HETATM    2  C   UNL     1     -10.438   8.516  69.939  1.00  0.00    -0.219 C  
HETATM    3  C   UNL     1     -10.363   9.400  71.217  1.00  0.00    -0.363 C  
HETATM    4  C   UNL     1      -9.452  10.571  70.870  1.00  0.00     2.410 C  
HETATM    5  N   UNL     1      -8.946  10.266  69.553  1.00  0.00    -0.187 N  
HETATM    6  C   UNL     1      -8.395  11.318  68.867  1.00  0.00    -0.071 C  
HETATM    7  O   UNL     1      -7.698  12.116  69.482  1.00  0.00     0.378 OA 
HETATM    8  C   UNL     1      -8.642  11.317  67.310  1.00  0.00    -0.143 C  
HETATM    9  C   UNL     1      -9.593   9.138  67.333  1.00  0.00    -0.151 C  
HETATM   10  N   UNL     1      -9.838  10.435  66.804  1.00  0.00    -0.187 N  
HETATM   11  C   UNL     1      -9.996  10.021  65.475  1.00  0.00    -0.296 C  
HETATM   12  H   UNL     1     -10.388   7.982  66.058  1.00  0.00     0.000 HD 
HETATM   13  C   UNL     1      -8.696   9.261  65.083  1.00  0.00    -0.185 C  
HETATM   14  O   UNL     1     -11.014  10.196  64.833  1.00  0.00     0.605 OA 
HETATM   15  O   UNL     1     -10.555   8.159  66.977  1.00  0.00    -0.329 OA 
HETATM   16  O   UNL     1      -8.374   8.890  66.566  1.00  0.00    -0.112 OA 
HETATM   17  C   UNL     1      -8.847  11.085  63.031  1.00  0.00    -0.202 C  
HETATM   18  C   UNL     1      -6.560  10.695  63.967  1.00  0.00     0.198 C  
HETATM   19  C   UNL     1      -8.053  10.537  64.266  1.00  0.00    -0.035 C  
ENDROOT
BRANCH   8  20
HETATM   20  C   UNL     1      -8.553  12.781  66.839  1.00  0.00    -0.140 C  
BRANCH  20  21
HETATM   21  C   UNL     1      -7.553  13.585  67.700  1.00  0.00    -0.181 A  
HETATM   22  C   UNL     1      -5.226  14.225  67.892  1.00  0.00    -0.056 A  
HETATM   23  C   UNL     1      -6.918  15.698  68.722  1.00  0.00    -0.121 A  
HETATM   24  C   UNL     1      -7.898  14.767  68.396  1.00  0.00    -0.128 A  
HETATM   25  C   UNL     1      -5.589  15.458  68.436  1.00  0.00    -0.106 A  
HETATM   26  C   UNL     1      -6.196  13.294  67.530  1.00  0.00    -0.114 A  
ENDBRANCH  20  21
ENDBRANCH   8  20
BRANCH  13  27
HETATM   27  N   UNL     1      -8.866   8.001  64.313  1.00  0.00    -0.202 NA 
HETATM   28  H   UNL     1      -9.610   7.861  63.630  1.00  0.00     0.000 HD 
BRANCH  27  29
HETATM   29  C   UNL     1      -7.983   7.099  64.589  1.00  0.00    -0.114 C  
HETATM   30  H   UNL     1      -7.241   5.317  64.053  1.00  0.00     0.000 HD 
HETATM   31  O   UNL     1      -7.890   5.980  63.850  1.00  0.00    -0.105 OA 
BRANCH  29  32
HETATM   32  C   UNL     1      -6.965   7.067  65.731  1.00  0.00    -0.060 C  
HETATM   33  C   UNL     1      -7.464   6.521  67.067  1.00  0.00    -0.087 C  
HETATM   34  N   UNL     1      -6.313   6.298  67.964  1.00  0.00    -0.038 NA 
HETATM   35  C   UNL     1      -5.358   5.228  67.520  1.00  0.00    -0.012 C  
HETATM   36  C   UNL     1      -6.686   6.258  69.367  1.00  0.00    -0.052 C  
HETATM   37  C   UNL     1      -5.455   3.841  68.259  1.00  0.00    -0.013 C  
HETATM   38  C   UNL     1      -6.729   3.203  67.851  1.00  0.00    -0.041 A  
HETATM   39  C   UNL     1      -7.796   2.680  68.538  1.00  0.00    -0.054 A  
HETATM   40  N   UNL     1      -8.822   2.508  67.629  1.00  0.00    -0.120 NA 
HETATM   41  C   UNL     1      -8.416   2.886  66.364  1.00  0.00    -0.105 A  
HETATM   42  H   UNL     1      -9.750   2.151  67.860  1.00  0.00     0.000 HD 
HETATM   43  C   UNL     1      -9.099   3.030  65.156  1.00  0.00    -0.148 A  
HETATM   44  C   UNL     1      -8.371   3.553  64.071  1.00  0.00    -0.090 A  
HETATM   45  C   UNL     1      -7.065   4.038  64.221  1.00  0.00    -0.050 A  
HETATM   46  C   UNL     1      -6.475   4.056  65.489  1.00  0.00    -0.036 A  
HETATM   47  C   UNL     1      -5.383   5.030  65.932  1.00  0.00    -0.013 C  
HETATM   48  C   UNL     1      -7.113   3.316  66.498  1.00  0.00    -0.058 A  
HETATM   49  C   UNL     1      -5.590   6.440  65.335  1.00  0.00    -0.021 C  
ENDBRANCH  29  32
ENDBRANCH  27  29
ENDBRANCH  13  27
TORSDOF 5
ENDMDL
MODEL      186
REMARK 921   NORMALIZED FREE ENERGY PREDICTED BY IDOCK:    5.08 KCAL/MOL
REMARK 922        TOTAL FREE ENERGY PREDICTED BY IDOCK:    4.72 KCAL/MOL
REMARK 923 INTER-LIGAND FREE ENERGY PREDICTED BY IDOCK:   -4.62 KCAL/MOL
REMARK 924 INTRA-LIGAND FREE ENERGY PREDICTED BY IDOCK:    9.34 KCAL/MOL
REMARK 927      BINDING AFFINITY PREDICTED BY RF-SCORE:    0.00 PKD
ROOT
HETATM    1  C   UNL     1      -7.199   8.743  64.925  1.00  0.00    -0.084 C  
HETATM    2  C   UNL     1      -6.820  10.196  64.665  1.00  0.00    -0.117 C  
HETATM    3  C   UNL     1      -7.313  10.426  63.207  1.00  0.00    -0.057 C  
HETATM    4  C   UNL     1      -7.587   9.045  62.629  1.00  0.00    -0.108 C  
HETATM    5  N   UNL     1      -7.131   8.124  63.643  1.00  0.00    -0.080 N  
HETATM    6  C   UNL     1      -7.588   6.836  63.530  1.00  0.00    -0.093 C  
HETATM    7  O   UNL     1      -7.654   6.335  62.412  1.00  0.00    -0.059 OA 
HETATM    8  C   UNL     1      -7.882   6.096  64.891  1.00  0.00    -0.108 C  
HETATM    9  C   UNL     1      -6.922   7.840  66.192  1.00  0.00    -0.062 C  
HETATM   10  N   UNL     1      -8.082   7.020  66.145  1.00  0.00    -0.113 N  
HETATM   11  C   UNL     1      -7.993   6.569  67.468  1.00  0.00    -0.114 C  
HETATM   12  H   UNL     1      -6.713   8.208  68.039  1.00  0.00     0.000 HD 
HETATM   13  C   UNL     1      -6.591   5.914  67.628  1.00  0.00    -0.056 C  
HETATM   14  O   UNL     1      -8.861   6.755  68.301  1.00  0.00    -0.126 OA 
HETATM   15  O   UNL     1      -6.880   8.752  67.277  1.00  0.00    -0.066 OA 
HETATM   16  O   UNL     1      -5.980   6.755  66.461  1.00  0.00    -0.027 OA 
HETATM   17  C   UNL     1      -8.201   3.885  68.552  1.00  0.00    -0.083 C  
HETATM   18  C   UNL     1      -6.297   3.176  67.094  1.00  0.00    -0.036 C  
HETATM   19  C   UNL     1      -7.162   4.376  67.487  1.00  0.00    -0.069 C  
ENDROOT
BRANCH   8  20
HETATM   20  C   UNL     1      -8.935   5.012  64.597  1.00  0.00    -0.075 C  
BRANCH  20  21
HETATM   21  C   UNL     1      -8.272   3.715  64.079  1.00  0.00    -0.090 A  
HETATM   22  C   UNL     1      -8.738   1.473  63.294  1.00  0.00    -0.072 A  
HETATM   23  C   UNL     1      -6.810   2.626  62.471  1.00  0.00    -0.027 A  
HETATM   24  C   UNL     1      -7.086   3.700  63.311  1.00  0.00    -0.049 A  
HETATM   25  C   UNL     1      -7.649   1.531  62.421  1.00  0.00    -0.037 A  
HETATM   26  C   UNL     1      -9.047   2.551  64.118  1.00  0.00    -0.113 A  
ENDBRANCH  20  21
ENDBRANCH   8  20
BRANCH  13  27
HETATM   27  N   UNL     1      -5.844   6.230  68.873  1.00  0.00    -0.019 NA 
HETATM   28  H   UNL     1      -4.838   6.100  68.968  1.00  0.00     0.000 HD 
BRANCH  27  29
HETATM   29  C   UNL     1      -6.590   6.686  69.825  1.00  0.00    -0.048 C  
HETATM   30  H   UNL     1      -7.426   6.260  71.596  1.00  0.00     0.000 HD 
HETATM   31  O   UNL     1      -6.878   5.925  70.896  1.00  0.00    -0.057 OA 
BRANCH  29  32
HETATM   32  C   UNL     1      -7.289   8.042  69.935  1.00  0.00    -0.066 C  
HETATM   33  C   UNL     1      -8.701   8.124  69.360  1.00  0.00    -0.143 C  
HETATM   34  N   UNL     1      -9.330   9.390  69.787  1.00  0.00    -0.188 NA 
HETATM   35  C   UNL     1      -9.580   9.509  71.263  1.00  0.00     0.092 C  
HETATM   36  C   UNL     1     -10.433   9.792  68.933  1.00  0.00    -0.214 C  
HETATM   37  C   UNL     1     -11.061   9.290  71.750  1.00  0.00    -0.398 C  
HETATM   38  C   UNL     1     -11.382   7.853  71.574  1.00  0.00    -0.293 A  
HETATM   39  C   UNL     1     -12.393   7.174  70.939  1.00  0.00    -0.292 A  
HETATM   40  N   UNL     1     -12.001   5.852  70.848  1.00  0.00     0.307 NA 
HETATM   41  C   UNL     1     -10.766   5.671  71.441  1.00  0.00    -0.244 A  
HETATM   42  H   UNL     1     -12.547   5.113  70.405  1.00  0.00     0.000 HD 
HETATM   43  C   UNL     1      -9.894   4.584  71.495  1.00  0.00    -0.260 A  
HETATM   44  C   UNL     1      -8.645   4.799  72.107  1.00  0.00    -0.123 A  
HETATM   45  C   UNL     1      -8.234   6.073  72.522  1.00  0.00    -0.108 A  
HETATM   46  C   UNL     1      -9.055   7.178  72.280  1.00  0.00    -0.148 A  
HETATM   47  C   UNL     1      -8.561   8.615  72.113  1.00  0.00    -0.190 C  
HETATM   48  C   UNL     1     -10.381   6.914  71.897  1.00  0.00    -0.210 A  
HETATM   49  C   UNL     1      -7.214   8.680  71.359  1.00  0.00    -0.101 C  
ENDBRANCH  29  32
ENDBRANCH  27  29
ENDBRANCH  13  27
TORSDOF 5
ENDMDL
MODEL      187
REMARK 921   NORMALIZED FREE ENERGY PREDICTED BY IDOCK:    5.18 KCAL/MOL
REMARK 922        TOTAL FREE ENERGY PREDICTED BY IDOCK:    4.85 KCAL/MOL
REMARK 923 INTER-LIGAND FREE ENERGY PREDICTED BY IDOCK:    1.13 KCAL/MOL
REMARK 924 INTRA-LIGAND FREE ENERGY PREDICTED BY IDOCK:    3.73 KCAL/MOL
REMARK 927      BINDING AFFINITY PREDICTED BY RF-SCORE:    0.00 PKD
ROOT
HETATM    1  C   UNL     1     -12.389   9.059  70.193  1.00  0.00     0.658 C  
HETATM    2  C   UNL     1     -13.556   8.675  71.095  1.00  0.00    -0.073 C  
HETATM    3  C   UNL     1     -13.968  10.036  71.724  1.00  0.00     0.039 C  
HETATM    4  C   UNL     1     -12.822  10.999  71.442  1.00  0.00    -0.443 C  
HETATM    5  N   UNL     1     -11.796  10.182  70.838  1.00  0.00    -0.345 N  
HETATM    6  C   UNL     1     -10.811  10.860  70.166  1.00  0.00     0.016 C  
HETATM    7  O   UNL     1     -10.382  11.901  70.653  1.00  0.00     2.691 OA 
HETATM    8  C   UNL     1     -10.260  10.151  68.871  1.00  0.00    -0.199 C  
HETATM    9  C   UNL     1     -11.452   8.141  69.310  1.00  0.00     0.634 C  
HETATM   10  N   UNL     1     -11.184   9.046  68.247  1.00  0.00     0.244 N  
HETATM   11  C   UNL     1     -10.738   8.075  67.341  1.00  0.00    -0.190 C  
HETATM   12  H   UNL     1     -11.703   6.482  68.429  1.00  0.00     0.000 HD 
HETATM   13  C   UNL     1      -9.563   7.323  68.030  1.00  0.00    -0.139 C  
HETATM   14  O   UNL     1     -11.266   7.867  66.265  1.00  0.00     1.402 OA 
HETATM   15  O   UNL     1     -12.266   7.034  68.960  1.00  0.00     1.039 OA 
HETATM   16  O   UNL     1     -10.076   7.675  69.463  1.00  0.00    -0.183 OA 
HETATM   17  C   UNL     1      -8.379   8.032  65.651  1.00  0.00    -0.146 C  
HETATM   18  C   UNL     1      -6.947   8.276  67.686  1.00  0.00    -0.079 C  
HETATM   19  C   UNL     1      -8.397   8.151  67.212  1.00  0.00    -0.121 C  
ENDROOT
BRANCH   8  20
HETATM   20  C   UNL     1      -9.707  11.256  67.953  1.00  0.00    -0.185 C  
BRANCH  20  21
HETATM   21  C   UNL     1     -10.391  12.613  68.238  1.00  0.00    -0.246 A  
HETATM   22  C   UNL     1     -10.188  15.002  67.900  1.00  0.00    -0.228 A  
HETATM   23  C   UNL     1     -12.364  14.023  68.071  1.00  0.00    -0.011 A  
HETATM   24  C   UNL     1     -11.793  12.779  68.313  1.00  0.00    -0.357 A  
HETATM   25  C   UNL     1     -11.576  15.128  67.820  1.00  0.00    -0.303 A  
HETATM   26  C   UNL     1      -9.598  13.759  68.110  1.00  0.00    -0.216 A  
ENDBRANCH  20  21
ENDBRANCH   8  20
BRANCH  13  27
HETATM   27  N   UNL     1      -9.543   5.844  67.889  1.00  0.00    -0.113 NA 
HETATM   28  H   UNL     1      -9.957   5.353  67.097  1.00  0.00     0.000 HD 
BRANCH  27  29
HETATM   29  C   UNL     1      -8.953   5.237  68.865  1.00  0.00    -0.103 C  
HETATM   30  H   UNL     1      -9.134   3.796  70.246  1.00  0.00     0.000 HD 
HETATM   31  O   UNL     1      -9.568   4.242  69.529  1.00  0.00    -0.175 OA 
BRANCH  29  32
HETATM   32  C   UNL     1      -7.572   5.501  69.469  1.00  0.00    -0.071 C  
HETATM   33  C   UNL     1      -7.338   6.900  70.035  1.00  0.00    -0.082 C  
HETATM   34  N   UNL     1      -6.085   6.908  70.816  1.00  0.00    -0.031 NA 
HETATM   35  C   UNL     1      -6.104   6.061  72.056  1.00  0.00    -0.041 C  
HETATM   36  C   UNL     1      -5.524   8.238  70.976  1.00  0.00    -0.029 C  
HETATM   37  C   UNL     1      -6.275   6.818  73.427  1.00  0.00    -0.063 C  
HETATM   38  C   UNL     1      -7.661   7.341  73.480  1.00  0.00    -0.110 A  
HETATM   39  C   UNL     1      -8.202   8.583  73.702  1.00  0.00     0.009 A  
HETATM   40  N   UNL     1      -9.531   8.522  73.326  1.00  0.00    -0.050 NA 
HETATM   41  C   UNL     1      -9.853   7.250  72.893  1.00  0.00    -0.196 A  
HETATM   42  H   UNL     1     -10.182   9.307  73.363  1.00  0.00     0.000 HD 
HETATM   43  C   UNL     1     -10.995   6.716  72.295  1.00  0.00    -0.278 A  
HETATM   44  C   UNL     1     -10.927   5.374  71.877  1.00  0.00    -0.219 A  
HETATM   45  C   UNL     1      -9.734   4.642  71.929  1.00  0.00    -0.224 A  
HETATM   46  C   UNL     1      -8.557   5.266  72.357  1.00  0.00    -0.122 A  
HETATM   47  C   UNL     1      -7.146   4.854  71.936  1.00  0.00    -0.062 C  
HETATM   48  C   UNL     1      -8.692   6.513  72.991  1.00  0.00    -0.130 A  
HETATM   49  C   UNL     1      -7.092   4.395  70.462  1.00  0.00    -0.041 C  
ENDBRANCH  29  32
ENDBRANCH  27  29
ENDBRANCH  13  27
TORSDOF 5
ENDMDL
MODEL      188
REMARK 921   NORMALIZED FREE ENERGY PREDICTED BY IDOCK:    5.57 KCAL/MOL
REMARK 922        TOTAL FREE ENERGY PREDICTED BY IDOCK:    5.35 KCAL/MOL
REMARK 923 INTER-LIGAND FREE ENERGY PREDICTED BY IDOCK:   -1.17 KCAL/MOL
REMARK 924 INTRA-LIGAND FREE ENERGY PREDICTED BY IDOCK:    6.52 KCAL/MOL
REMARK 927      BINDING AFFINITY PREDICTED BY RF-SCORE:    0.00 PKD
ROOT
HETATM    1  C   UNL     1      -8.415  10.221  69.204  1.00  0.00    -0.162 C  
HETATM    2  C   UNL     1      -7.968   9.386  70.399  1.00  0.00    -0.190 C  
HETATM    3  C   UNL     1      -8.477   7.961  70.034  1.00  0.00    -0.134 C  
HETATM    4  C   UNL     1      -9.463   8.143  68.888  1.00  0.00    -0.151 C  
HETATM    5  N   UNL     1      -9.598   9.574  68.742  1.00  0.00    -0.155 N  
HETATM    6  C   UNL     1     -10.142  10.004  67.559  1.00  0.00    -0.198 C  
HETATM    7  O   UNL     1     -11.082   9.376  67.085  1.00  0.00    -0.048 OA 
HETATM    8  C   UNL     1      -9.550  11.350  66.989  1.00  0.00    -0.176 C  
HETATM    9  C   UNL     1      -8.286  11.776  68.957  1.00  0.00     0.157 C  
HETATM   10  N   UNL     1      -8.142  11.770  67.543  1.00  0.00    -0.143 N  
HETATM   11  C   UNL     1      -7.620  13.066  67.446  1.00  0.00    -0.137 C  
HETATM   12  H   UNL     1      -7.043  13.091  69.524  1.00  0.00     0.000 HD 
HETATM   13  C   UNL     1      -8.654  14.019  68.112  1.00  0.00    -0.181 C  
HETATM   14  O   UNL     1      -6.524  13.316  66.979  1.00  0.00    -0.124 OA 
HETATM   15  O   UNL     1      -7.121  12.155  69.673  1.00  0.00     0.091 OA 
HETATM   16  O   UNL     1      -9.241  12.881  69.007  1.00  0.00     0.236 OA 
HETATM   17  C   UNL     1      -8.339  15.248  65.672  1.00  0.00     1.923 C  
HETATM   18  C   UNL     1     -10.683  15.145  66.537  1.00  0.00    -0.310 C  
HETATM   19  C   UNL     1      -9.293  14.521  66.679  1.00  0.00    -0.301 C  
ENDROOT
BRANCH   8  20
HETATM   20  C   UNL     1      -9.766  11.327  65.465  1.00  0.00    -0.268 C  
BRANCH  20  21
HETATM   21  C   UNL     1     -11.073  12.055  65.075  1.00  0.00    -0.368 A  
HETATM   22  C   UNL     1     -12.834  13.480  65.929  1.00  0.00    -0.253 A  
HETATM   23  C   UNL     1     -12.225  13.627  63.621  1.00  0.00    -0.376 A  
HETATM   24  C   UNL     1     -11.315  12.588  63.788  1.00  0.00    -0.534 A  
HETATM   25  C   UNL     1     -12.954  14.109  64.689  1.00  0.00     0.201 A  
HETATM   26  C   UNL     1     -11.906  12.461  66.123  1.00  0.00    -0.442 A  
ENDBRANCH  20  21
ENDBRANCH   8  20
BRANCH  13  27
HETATM   27  N   UNL     1      -8.109  15.079  69.000  1.00  0.00    -0.168 NA 
HETATM   28  H   UNL     1      -8.599  15.421  69.826  1.00  0.00     0.000 HD 
BRANCH  27  29
HETATM   29  C   UNL     1      -6.955  15.526  68.628  1.00  0.00    -0.116 C  
HETATM   30  H   UNL     1      -5.050  15.029  68.254  1.00  0.00     0.000 HD 
HETATM   31  O   UNL     1      -5.898  14.701  68.528  1.00  0.00    -0.087 OA 
BRANCH  29  32
HETATM   32  C   UNL     1      -6.542  16.960  68.288  1.00  0.00    -0.147 C  
HETATM   33  C   UNL     1      -7.282  17.619  67.126  1.00  0.00    -0.180 C  
HETATM   34  N   UNL     1      -6.973  19.063  67.106  1.00  0.00    -0.203 NA 
HETATM   35  C   UNL     1      -7.481  19.838  68.288  1.00  0.00    -0.311 C  
HETATM   36  C   UNL     1      -7.206  19.675  65.811  1.00  0.00    -0.310 C  
HETATM   37  C   UNL     1      -8.774  20.708  68.061  1.00  0.00     0.107 C  
HETATM   38  C   UNL     1      -9.914  19.778  67.882  1.00  0.00    -0.539 A  
HETATM   39  C   UNL     1     -10.880  19.629  66.918  1.00  0.00    -0.389 A  
HETATM   40  N   UNL     1     -11.483  18.404  67.131  1.00  0.00     0.744 NA 
HETATM   41  C   UNL     1     -10.936  17.781  68.237  1.00  0.00     0.006 A  
HETATM   42  H   UNL     1     -12.228  18.014  66.553  1.00  0.00     0.000 HD 
HETATM   43  C   UNL     1     -11.096  16.505  68.778  1.00  0.00    -0.309 A  
HETATM   44  C   UNL     1     -10.276  16.170  69.872  1.00  0.00    -0.146 A  
HETATM   45  C   UNL     1      -9.253  17.017  70.316  1.00  0.00     2.361 A  
HETATM   46  C   UNL     1      -8.993  18.208  69.631  1.00  0.00     0.893 A  
HETATM   47  C   UNL     1      -7.637  18.912  69.584  1.00  0.00     0.288 C  
HETATM   48  C   UNL     1      -9.963  18.635  68.708  1.00  0.00    -0.427 A  
HETATM   49  C   UNL     1      -6.464  17.908  69.527  1.00  0.00    -0.190 C  
ENDBRANCH  29  32
ENDBRANCH  27  29
ENDBRANCH  13  27
TORSDOF 5
ENDMDL
MODEL      189
REMARK 921   NORMALIZED FREE ENERGY PREDICTED BY IDOCK:    5.79 KCAL/MOL
REMARK 922        TOTAL FREE ENERGY PREDICTED BY IDOCK:    5.64 KCAL/MOL
REMARK 923 INTER-LIGAND FREE ENERGY PREDICTED BY IDOCK:   -1.32 KCAL/MOL
REMARK 924 INTRA-LIGAND FREE ENERGY PREDICTED BY IDOCK:    6.96 KCAL/MOL
REMARK 927      BINDING AFFINITY PREDICTED BY RF-SCORE:    0.00 PKD
ROOT
HETATM    1  C   UNL     1      -9.099  13.997  67.319  1.00  0.00    -0.220 C  
HETATM    2  C   UNL     1      -8.574  15.368  67.731  1.00  0.00    -0.162 C  
HETATM    3  C   UNL     1      -9.038  16.282  66.561  1.00  0.00    -0.302 C  
HETATM    4  C   UNL     1      -9.450  15.348  65.431  1.00  0.00     0.002 C  
HETATM    5  N   UNL     1      -9.091  14.028  65.895  1.00  0.00     0.168 N  
HETATM    6  C   UNL     1      -9.676  12.982  65.229  1.00  0.00     0.023 C  
HETATM    7  O   UNL     1      -9.791  13.054  64.010  1.00  0.00    -0.232 OA 
HETATM    8  C   UNL     1     -10.046  11.733  66.117  1.00  0.00    -0.224 C  
HETATM    9  C   UNL     1      -8.916  12.595  68.024  1.00  0.00    -0.200 C  
HETATM   10  N   UNL     1     -10.153  11.996  67.662  1.00  0.00    -0.194 N  
HETATM   11  C   UNL     1     -10.113  10.985  68.631  1.00  0.00    -0.197 C  
HETATM   12  H   UNL     1      -8.674  12.059  69.826  1.00  0.00     0.000 HD 
HETATM   13  C   UNL     1      -8.785  10.205  68.412  1.00  0.00    -0.123 C  
HETATM   14  O   UNL     1     -10.959  10.849  69.495  1.00  0.00    -0.233 OA 
HETATM   15  O   UNL     1      -8.784  12.902  69.402  1.00  0.00     0.807 OA 
HETATM   16  O   UNL     1      -8.090  11.426  67.729  1.00  0.00    -0.113 OA 
HETATM   17  C   UNL     1     -10.593   8.133  68.385  1.00  0.00    -0.148 C  
HETATM   18  C   UNL     1      -8.769   7.998  66.681  1.00  0.00    -0.153 C  
HETATM   19  C   UNL     1      -9.509   8.959  67.614  1.00  0.00    -0.164 C  
ENDROOT
BRANCH   8  20
HETATM   20  C   UNL     1     -11.203  11.003  65.411  1.00  0.00     0.113 C  
BRANCH  20  21
HETATM   21  C   UNL     1     -12.280  12.001  64.927  1.00  0.00    -0.187 A  
HETATM   22  C   UNL     1     -13.336  14.120  65.435  1.00  0.00     0.283 A  
HETATM   23  C   UNL     1     -13.161  13.415  63.156  1.00  0.00     1.441 A  
HETATM   24  C   UNL     1     -12.590  12.214  63.564  1.00  0.00    -0.621 A  
HETATM   25  C   UNL     1     -13.495  14.389  64.075  1.00  0.00     2.645 A  
HETATM   26  C   UNL     1     -12.738  12.937  65.861  1.00  0.00     0.149 A  
ENDBRANCH  20  21
ENDBRANCH   8  20
BRANCH  13  27
HETATM   27  N   UNL     1      -8.012   9.848  69.631  1.00  0.00    -0.145 NA 
HETATM   28  H   UNL     1      -7.254  10.422  69.998  1.00  0.00     0.000 HD 
BRANCH  27  29
HETATM   29  C   UNL     1      -8.391   8.743  70.181  1.00  0.00    -0.131 C  
HETATM   30  H   UNL     1      -9.699   7.911  71.452  1.00  0.00     0.000 HD 
HETATM   31  O   UNL     1      -9.420   8.724  71.047  1.00  0.00    -0.186 OA 
BRANCH  29  32
HETATM   32  C   UNL     1      -7.798   7.340  70.032  1.00  0.00    -0.111 C  
HETATM   33  C   UNL     1      -7.350   6.654  71.321  1.00  0.00    -0.083 C  
HETATM   34  N   UNL     1      -7.069   5.232  71.046  1.00  0.00    -0.062 NA 
HETATM   35  C   UNL     1      -8.263   4.413  70.648  1.00  0.00    -0.071 C  
HETATM   36  C   UNL     1      -6.197   4.624  72.035  1.00  0.00    -0.021 C  
HETATM   37  C   UNL     1      -8.876   3.472  71.752  1.00  0.00    -0.135 C  
HETATM   38  C   UNL     1      -9.514   4.337  72.774  1.00  0.00    -0.158 A  
HETATM   39  C   UNL     1      -9.401   4.443  74.138  1.00  0.00    -0.113 A  
HETATM   40  N   UNL     1     -10.009   5.628  74.507  1.00  0.00    -0.236 NA 
HETATM   41  C   UNL     1     -10.535   6.267  73.400  1.00  0.00    -0.255 A  
HETATM   42  H   UNL     1     -10.062   5.982  75.462  1.00  0.00     0.000 HD 
HETATM   43  C   UNL     1     -11.112   7.524  73.220  1.00  0.00    -0.294 A  
HETATM   44  C   UNL     1     -11.441   7.891  71.902  1.00  0.00    -0.328 A  
HETATM   45  C   UNL     1     -11.086   7.099  70.802  1.00  0.00    -0.296 A  
HETATM   46  C   UNL     1     -10.338   5.934  71.001  1.00  0.00    -0.281 A  
HETATM   47  C   UNL     1      -9.400   5.310  69.968  1.00  0.00    -0.201 C  
HETATM   48  C   UNL     1     -10.232   5.464  72.321  1.00  0.00    -0.244 A  
HETATM   49  C   UNL     1      -8.653   6.382  69.143  1.00  0.00    -0.125 C  
ENDBRANCH  29  32
ENDBRANCH  27  29
ENDBRANCH  13  27
TORSDOF 5
ENDMDL
MODEL      190
REMARK 921   NORMALIZED FREE ENERGY PREDICTED BY IDOCK:    6.89 KCAL/MOL
REMARK 922        TOTAL FREE ENERGY PREDICTED BY IDOCK:    7.06 KCAL/MOL
REMARK 923 INTER-LIGAND FREE ENERGY PREDICTED BY IDOCK:   -1.31 KCAL/MOL
REMARK 924 INTRA-LIGAND FREE ENERGY PREDICTED BY IDOCK:    8.37 KCAL/MOL
REMARK 927      BINDING AFFINITY PREDICTED BY RF-SCORE:    0.00 PKD
ROOT
HETATM    1  C   UNL     1      -7.622   6.106  68.438  1.00  0.00    -0.092 C  
HETATM    2  C   UNL     1      -7.039   5.914  69.834  1.00  0.00    -0.068 C  
HETATM    3  C   UNL     1      -7.669   4.566  70.288  1.00  0.00    -0.056 C  
HETATM    4  C   UNL     1      -8.809   4.281  69.318  1.00  0.00    -0.093 C  
HETATM    5  N   UNL     1      -8.892   5.462  68.492  1.00  0.00    -0.101 N  
HETATM    6  C   UNL     1      -9.588   5.322  67.319  1.00  0.00    -0.137 C  
HETATM    7  O   UNL     1     -10.621   4.661  67.327  1.00  0.00     0.004 OA 
HETATM    8  C   UNL     1      -9.024   6.135  66.092  1.00  0.00    -0.155 C  
HETATM    9  C   UNL     1      -7.453   7.314  67.433  1.00  0.00    -0.096 C  
HETATM   10  N   UNL     1      -7.528   6.600  66.206  1.00  0.00    -0.080 N  
HETATM   11  C   UNL     1      -6.962   7.610  65.417  1.00  0.00    -0.059 C  
HETATM   12  H   UNL     1      -6.073   8.577  67.128  1.00  0.00     0.000 HD 
HETATM   13  C   UNL     1      -7.832   8.883  65.624  1.00  0.00    -0.096 C  
HETATM   14  O   UNL     1      -5.939   7.467  64.774  1.00  0.00    -0.037 OA 
HETATM   15  O   UNL     1      -6.175   7.851  67.732  1.00  0.00    -0.048 OA 
HETATM   16  O   UNL     1      -8.332   8.408  67.026  1.00  0.00    -0.112 OA 
HETATM   17  C   UNL     1      -7.833   8.716  62.879  1.00  0.00    -0.137 C  
HETATM   18  C   UNL     1     -10.019   9.331  63.926  1.00  0.00     1.924 C  
HETATM   19  C   UNL     1      -8.657   8.694  64.211  1.00  0.00    -0.048 C  
ENDROOT
BRANCH   8  20
HETATM   20  C   UNL     1      -9.472   5.397  64.817  1.00  0.00     0.390 C  
BRANCH  20  21
HETATM   21  C   UNL     1      -8.340   4.502  64.263  1.00  0.00    -0.114 A  
HETATM   22  C   UNL     1      -6.546   4.417  62.639  1.00  0.00    -0.026 A  
HETATM   23  C   UNL     1      -6.341   3.181  64.677  1.00  0.00    -0.024 A  
HETATM   24  C   UNL     1      -7.620   3.576  65.053  1.00  0.00    -0.077 A  
HETATM   25  C   UNL     1      -5.779   3.629  63.498  1.00  0.00    -0.013 A  
HETATM   26  C   UNL     1      -7.816   4.848  63.013  1.00  0.00    -0.071 A  
ENDBRANCH  20  21
ENDBRANCH   8  20
BRANCH  13  27
HETATM   27  N   UNL     1      -7.105  10.168  65.797  1.00  0.00    -0.120 NA 
HETATM   28  H   UNL     1      -7.324  11.009  65.266  1.00  0.00     0.000 HD 
BRANCH  27  29
HETATM   29  C   UNL     1      -6.168  10.119  66.686  1.00  0.00    -0.070 C  
HETATM   30  H   UNL     1      -4.629   9.040  67.384  1.00  0.00     0.000 HD 
HETATM   31  O   UNL     1      -5.319   9.077  66.731  1.00  0.00    -0.038 OA 
BRANCH  29  32
HETATM   32  C   UNL     1      -5.854  11.107  67.810  1.00  0.00    -0.047 C  
HETATM   33  C   UNL     1      -5.796  12.582  67.419  1.00  0.00    -0.137 C  
HETATM   34  N   UNL     1      -5.764  13.411  68.639  1.00  0.00    -0.080 NA 
HETATM   35  C   UNL     1      -7.007  13.354  69.480  1.00  0.00     0.139 C  
HETATM   36  C   UNL     1      -5.226  14.740  68.409  1.00  0.00    -0.111 C  
HETATM   37  C   UNL     1      -7.988  14.582  69.377  1.00  0.00     0.067 C  
HETATM   38  C   UNL     1      -8.611  14.546  68.032  1.00  0.00    -0.162 A  
HETATM   39  C   UNL     1      -8.727  15.457  67.012  1.00  0.00    -0.229 A  
HETATM   40  N   UNL     1      -9.139  14.762  65.890  1.00  0.00    -0.476 NA 
HETATM   41  C   UNL     1      -9.316  13.424  66.187  1.00  0.00    -0.057 A  
HETATM   42  H   UNL     1      -9.291  15.179  64.971  1.00  0.00     0.000 HD 
HETATM   43  C   UNL     1      -9.583  12.308  65.396  1.00  0.00    -0.079 A  
HETATM   44  C   UNL     1      -9.587  11.056  66.039  1.00  0.00    -0.249 A  
HETATM   45  C   UNL     1      -9.207  10.912  67.380  1.00  0.00    -0.155 A  
HETATM   46  C   UNL     1      -8.759  12.027  68.096  1.00  0.00    -0.177 A  
HETATM   47  C   UNL     1      -7.796  11.976  69.282  1.00  0.00     0.377 C  
HETATM   48  C   UNL     1      -8.991  13.288  67.520  1.00  0.00    -0.208 A  
HETATM   49  C   UNL     1      -6.711  10.892  69.100  1.00  0.00    -0.079 C  
ENDBRANCH  29  32
ENDBRANCH  27  29
ENDBRANCH  13  27
TORSDOF 5
ENDMDL
MODEL      191
REMARK 921   NORMALIZED FREE ENERGY PREDICTED BY IDOCK:    6.98 KCAL/MOL
REMARK 922        TOTAL FREE ENERGY PREDICTED BY IDOCK:    7.17 KCAL/MOL
REMARK 923 INTER-LIGAND FREE ENERGY PREDICTED BY IDOCK:   -3.07 KCAL/MOL
REMARK 924 INTRA-LIGAND FREE ENERGY PREDICTED BY IDOCK:   10.24 KCAL/MOL
REMARK 927      BINDING AFFINITY PREDICTED BY RF-SCORE:    0.00 PKD
ROOT
HETATM    1  C   UNL     1     -10.650  12.625  66.470  1.00  0.00    -0.253 C  
HETATM    2  C   UNL     1     -11.496  13.163  65.321  1.00  0.00    -0.328 C  
HETATM    3  C   UNL     1     -12.765  12.265  65.378  1.00  0.00     0.450 C  
HETATM    4  C   UNL     1     -12.410  11.084  66.272  1.00  0.00     3.273 C  
HETATM    5  N   UNL     1     -11.004  11.247  66.557  1.00  0.00    -0.272 N  
HETATM    6  C   UNL     1     -10.523  10.529  67.621  1.00  0.00    -0.234 C  
HETATM    7  O   UNL     1     -10.921   9.380  67.779  1.00  0.00    -0.219 OA 
HETATM    8  C   UNL     1      -9.408  11.245  68.476  1.00  0.00    -0.182 C  
HETATM    9  C   UNL     1      -9.195  13.039  66.930  1.00  0.00    -0.236 C  
HETATM   10  N   UNL     1      -9.324  12.806  68.326  1.00  0.00    -0.210 N  
HETATM   11  C   UNL     1      -8.210  13.568  68.702  1.00  0.00    -0.040 C  
HETATM   12  H   UNL     1      -8.205  14.653  66.838  1.00  0.00     0.000 HD 
HETATM   13  C   UNL     1      -6.988  12.989  67.933  1.00  0.00    -0.127 C  
HETATM   14  O   UNL     1      -8.275  14.532  69.441  1.00  0.00    -0.018 OA 
HETATM   15  O   UNL     1      -9.080  14.404  66.561  1.00  0.00    -0.257 OA 
HETATM   16  O   UNL     1      -7.884  12.409  66.792  1.00  0.00    -0.066 OA 
HETATM   17  C   UNL     1      -6.030  12.933  70.510  1.00  0.00    -0.075 C  
HETATM   18  C   UNL     1      -5.485  10.934  69.110  1.00  0.00    -0.040 C  
HETATM   19  C   UNL     1      -6.430  12.133  69.225  1.00  0.00    -0.111 C  
ENDROOT
BRANCH   8  20
HETATM   20  C   UNL     1      -9.469  10.642  69.892  1.00  0.00     0.344 C  
BRANCH  20  21
HETATM   21  C   UNL     1      -9.024   9.162  69.887  1.00  0.00    -0.183 A  
HETATM   22  C   UNL     1      -7.215   7.676  69.269  1.00  0.00    -0.082 A  
HETATM   23  C   UNL     1      -8.613   7.109  71.125  1.00  0.00    -0.129 A  
HETATM   24  C   UNL     1      -9.398   8.232  70.885  1.00  0.00    -0.187 A  
HETATM   25  C   UNL     1      -7.498   6.846  70.355  1.00  0.00    -0.086 A  
HETATM   26  C   UNL     1      -7.970   8.821  69.032  1.00  0.00    -0.111 A  
ENDBRANCH  20  21
ENDBRANCH   8  20
BRANCH  13  27
HETATM   27  N   UNL     1      -6.048  13.973  67.336  1.00  0.00    -0.347 NA 
HETATM   28  H   UNL     1      -5.170  13.706  66.893  1.00  0.00     0.000 HD 
BRANCH  27  29
HETATM   29  C   UNL     1      -6.448  15.197  67.431  1.00  0.00    -0.016 C  
HETATM   30  H   UNL     1      -8.043  16.382  67.696  1.00  0.00     0.000 HD 
HETATM   31  O   UNL     1      -7.748  15.482  67.626  1.00  0.00    -0.133 OA 
BRANCH  29  32
HETATM   32  C   UNL     1      -5.635  16.488  67.314  1.00  0.00    -0.172 C  
HETATM   33  C   UNL     1      -5.958  17.386  66.121  1.00  0.00    -0.142 C  
HETATM   34  N   UNL     1      -5.301  18.695  66.302  1.00  0.00    -0.141 NA 
HETATM   35  C   UNL     1      -5.809  19.507  67.459  1.00  0.00    -0.185 C  
HETATM   36  C   UNL     1      -5.129  19.421  65.057  1.00  0.00    -0.156 C  
HETATM   37  C   UNL     1      -6.778  20.699  67.115  1.00  0.00    -0.350 C  
HETATM   38  C   UNL     1      -8.061  20.116  66.655  1.00  0.00    -0.330 A  
HETATM   39  C   UNL     1      -8.837  20.282  65.535  1.00  0.00     0.503 A  
HETATM   40  N   UNL     1      -9.756  19.250  65.518  1.00  0.00    -0.140 NA 
HETATM   41  C   UNL     1      -9.597  18.442  66.627  1.00  0.00    -0.320 A  
HETATM   42  H   UNL     1     -10.454  19.105  64.788  1.00  0.00     0.000 HD 
HETATM   43  C   UNL     1     -10.167  17.225  66.999  1.00  0.00    -0.320 A  
HETATM   44  C   UNL     1      -9.675  16.623  68.172  1.00  0.00    -0.244 A  
HETATM   45  C   UNL     1      -8.573  17.142  68.865  1.00  0.00    -0.190 A  
HETATM   46  C   UNL     1      -7.902  18.259  68.359  1.00  0.00    -0.318 A  
HETATM   47  C   UNL     1      -6.428  18.582  68.608  1.00  0.00    -0.240 C  
HETATM   48  C   UNL     1      -8.545  18.980  67.339  1.00  0.00    -0.301 A  
HETATM   49  C   UNL     1      -5.554  17.309  68.641  1.00  0.00    -0.147 C  
ENDBRANCH  29  32
ENDBRANCH  27  29
ENDBRANCH  13  27
TORSDOF 5
ENDMDL
MODEL      192
REMARK 921   NORMALIZED FREE ENERGY PREDICTED BY IDOCK:    7.10 KCAL/MOL
REMARK 922        TOTAL FREE ENERGY PREDICTED BY IDOCK:    7.34 KCAL/MOL
REMARK 923 INTER-LIGAND FREE ENERGY PREDICTED BY IDOCK:    4.60 KCAL/MOL
REMARK 924 INTRA-LIGAND FREE ENERGY PREDICTED BY IDOCK:    2.74 KCAL/MOL
REMARK 927      BINDING AFFINITY PREDICTED BY RF-SCORE:    0.00 PKD
ROOT
HETATM    1  C   UNL     1      -8.562   5.993  67.148  1.00  0.00    -0.106 C  
HETATM    2  C   UNL     1      -8.215   5.099  68.333  1.00  0.00    -0.090 C  
HETATM    3  C   UNL     1      -7.987   3.713  67.663  1.00  0.00    -0.081 C  
HETATM    4  C   UNL     1      -8.560   3.822  66.256  1.00  0.00    -0.113 C  
HETATM    5  N   UNL     1      -9.192   5.120  66.216  1.00  0.00    -0.141 N  
HETATM    6  C   UNL     1      -9.468   5.611  64.965  1.00  0.00     0.453 C  
HETATM    7  O   UNL     1      -9.892   4.837  64.114  1.00  0.00     0.125 OA 
HETATM    8  C   UNL     1      -9.306   7.169  64.796  1.00  0.00     1.507 C  
HETATM    9  C   UNL     1      -8.982   7.517  67.126  1.00  0.00    -0.126 C  
HETATM   10  N   UNL     1      -8.420   7.889  65.874  1.00  0.00    -0.132 N  
HETATM   11  C   UNL     1      -8.444   9.269  66.110  1.00  0.00    -0.128 C  
HETATM   12  H   UNL     1      -8.593   8.997  68.245  1.00  0.00     0.000 HD 
HETATM   13  C   UNL     1      -9.919   9.644  66.435  1.00  0.00    -0.255 C  
HETATM   14  O   UNL     1      -7.448   9.968  66.114  1.00  0.00    -0.101 OA 
HETATM   15  O   UNL     1      -8.341   8.081  68.258  1.00  0.00    -0.122 OA 
HETATM   16  O   UNL     1     -10.258   8.201  66.927  1.00  0.00    -0.266 OA 
HETATM   17  C   UNL     1      -9.376  11.442  64.427  1.00  0.00    -0.085 C  
HETATM   18  C   UNL     1     -11.635  10.373  64.340  1.00  0.00     2.925 C  
HETATM   19  C   UNL     1     -10.228  10.227  64.927  1.00  0.00    -0.261 C  
ENDROOT
BRANCH   8  20
HETATM   20  C   UNL     1      -9.015   7.433  63.307  1.00  0.00     1.241 C  
BRANCH  20  21
HETATM   21  C   UNL     1      -7.579   7.967  63.104  1.00  0.00    -0.126 A  
HETATM   22  C   UNL     1      -6.276   9.990  62.839  1.00  0.00    -0.127 A  
HETATM   23  C   UNL     1      -5.273   8.077  63.868  1.00  0.00    -0.041 A  
HETATM   24  C   UNL     1      -6.431   7.341  63.642  1.00  0.00    -0.048 A  
HETATM   25  C   UNL     1      -5.200   9.409  63.513  1.00  0.00    -0.066 A  
HETATM   26  C   UNL     1      -7.454   9.278  62.632  1.00  0.00    -0.103 A  
ENDBRANCH  20  21
ENDBRANCH   8  20
BRANCH  13  27
HETATM   27  N   UNL     1     -10.134  10.587  67.565  1.00  0.00    -0.182 NA 
HETATM   28  H   UNL     1      -9.606  10.543  68.436  1.00  0.00     0.000 HD 
BRANCH  27  29
HETATM   29  C   UNL     1     -11.053  11.467  67.339  1.00  0.00    -0.289 C  
HETATM   30  H   UNL     1     -12.263  12.249  65.946  1.00  0.00     0.000 HD 
HETATM   31  O   UNL     1     -11.587  11.602  66.113  1.00  0.00    -0.390 OA 
BRANCH  29  32
HETATM   32  C   UNL     1     -11.662  12.490  68.299  1.00  0.00    -0.390 C  
HETATM   33  C   UNL     1     -10.870  12.778  69.573  1.00  0.00     0.217 C  
HETATM   34  N   UNL     1     -11.436  13.966  70.242  1.00  0.00    -0.132 NA 
HETATM   35  C   UNL     1     -11.292  15.253  69.481  1.00  0.00    -0.288 C  
HETATM   36  C   UNL     1     -11.103  14.035  71.653  1.00  0.00     2.245 C  
HETATM   37  C   UNL     1     -10.166  16.241  69.967  1.00  0.00     0.003 C  
HETATM   38  C   UNL     1      -8.858  15.626  69.637  1.00  0.00    -0.115 A  
HETATM   39  C   UNL     1      -7.731  15.335  70.365  1.00  0.00     0.808 A  
HETATM   40  N   UNL     1      -6.954  14.490  69.595  1.00  0.00    -0.253 NA 
HETATM   41  C   UNL     1      -7.556  14.259  68.373  1.00  0.00    -0.124 A  
HETATM   42  H   UNL     1      -6.062  14.092  69.888  1.00  0.00     0.000 HD 
HETATM   43  C   UNL     1      -7.257  13.394  67.320  1.00  0.00    -0.023 A  
HETATM   44  C   UNL     1      -8.174  13.345  66.255  1.00  0.00     1.023 A  
HETATM   45  C   UNL     1      -9.399  14.024  66.301  1.00  0.00    -0.199 A  
HETATM   46  C   UNL     1      -9.756  14.731  67.454  1.00  0.00    -0.214 A  
HETATM   47  C   UNL     1     -11.191  15.003  67.904  1.00  0.00    -0.330 C  
HETATM   48  C   UNL     1      -8.739  14.967  68.395  1.00  0.00    -0.172 A  
HETATM   49  C   UNL     1     -12.127  13.811  67.605  1.00  0.00    -0.333 C  
ENDBRANCH  29  32
ENDBRANCH  27  29
ENDBRANCH  13  27
TORSDOF 5
ENDMDL
MODEL      193
REMARK 921   NORMALIZED FREE ENERGY PREDICTED BY IDOCK:    7.75 KCAL/MOL
REMARK 922        TOTAL FREE ENERGY PREDICTED BY IDOCK:    8.17 KCAL/MOL
REMARK 923 INTER-LIGAND FREE ENERGY PREDICTED BY IDOCK:   -4.82 KCAL/MOL
REMARK 924 INTRA-LIGAND FREE ENERGY PREDICTED BY IDOCK:   13.00 KCAL/MOL
REMARK 927      BINDING AFFINITY PREDICTED BY RF-SCORE:    0.00 PKD
ROOT
HETATM    1  C   UNL     1     -12.101  11.532  70.710  1.00  0.00    -0.309 C  
HETATM    2  C   UNL     1     -12.985  12.271  71.708  1.00  0.00    -0.431 C  
HETATM    3  C   UNL     1     -13.513  13.475  70.875  1.00  0.00     0.141 C  
HETATM    4  C   UNL     1     -12.639  13.546  69.630  1.00  0.00     0.103 C  
HETATM    5  N   UNL     1     -11.613  12.552  69.843  1.00  0.00    -0.222 N  
HETATM    6  C   UNL     1     -10.916  12.165  68.727  1.00  0.00    -0.232 C  
HETATM    7  O   UNL     1     -10.601  13.021  67.908  1.00  0.00    -0.221 OA 
HETATM    8  C   UNL     1     -10.500  10.645  68.680  1.00  0.00    -0.191 C  
HETATM    9  C   UNL     1     -11.197  10.253  70.919  1.00  0.00    -0.233 C  
HETATM   10  N   UNL     1     -11.307   9.682  69.622  1.00  0.00    -0.137 N  
HETATM   11  C   UNL     1     -10.870   8.403  69.990  1.00  0.00    -0.225 C  
HETATM   12  H   UNL     1     -11.301   8.753  72.074  1.00  0.00     0.000 HD 
HETATM   13  C   UNL     1      -9.468   8.576  70.640  1.00  0.00    -0.174 C  
HETATM   14  O   UNL     1     -11.546   7.399  69.860  1.00  0.00    -0.084 OA 
HETATM   15  O   UNL     1     -11.845   9.522  71.948  1.00  0.00    -0.373 OA 
HETATM   16  O   UNL     1      -9.755  10.056  71.049  1.00  0.00     0.177 OA 
HETATM   17  C   UNL     1      -8.909   6.662  68.746  1.00  0.00    -0.126 C  
HETATM   18  C   UNL     1      -7.186   8.455  69.013  1.00  0.00    -0.070 C  
HETATM   19  C   UNL     1      -8.651   8.109  69.288  1.00  0.00    -0.135 C  
ENDROOT
BRANCH   8  20
HETATM   20  C   UNL     1     -10.345  10.267  67.195  1.00  0.00    -0.292 C  
BRANCH  20  21
HETATM   21  C   UNL     1      -8.870  10.367  66.744  1.00  0.00    -0.139 A  
HETATM   22  C   UNL     1      -6.683  11.163  67.411  1.00  0.00    -0.084 A  
HETATM   23  C   UNL     1      -6.848   9.255  65.977  1.00  0.00    -0.088 A  
HETATM   24  C   UNL     1      -8.232   9.394  65.942  1.00  0.00    -0.115 A  
HETATM   25  C   UNL     1      -6.071  10.102  66.741  1.00  0.00    -0.060 A  
HETATM   26  C   UNL     1      -8.068  11.299  67.412  1.00  0.00    -0.135 A  
ENDBRANCH  20  21
ENDBRANCH   8  20
BRANCH  13  27
HETATM   27  N   UNL     1      -9.203   7.792  71.875  1.00  0.00    -0.136 NA 
HETATM   28  H   UNL     1      -9.593   8.037  72.785  1.00  0.00     0.000 HD 
BRANCH  27  29
HETATM   29  C   UNL     1      -8.434   6.771  71.688  1.00  0.00    -0.115 C  
HETATM   30  H   UNL     1      -6.552   6.095  71.811  1.00  0.00     0.000 HD 
HETATM   31  O   UNL     1      -7.117   6.846  71.949  1.00  0.00    -0.072 OA 
BRANCH  29  32
HETATM   32  C   UNL     1      -8.788   5.387  71.141  1.00  0.00    -0.146 C  
HETATM   33  C   UNL     1      -9.033   5.296  69.636  1.00  0.00    -0.107 C  
HETATM   34  N   UNL     1      -9.084   3.877  69.234  1.00  0.00    -0.118 NA 
HETATM   35  C   UNL     1      -7.795   3.124  69.392  1.00  0.00    -0.049 C  
HETATM   36  C   UNL     1      -9.779   3.668  67.976  1.00  0.00    -0.041 C  
HETATM   37  C   UNL     1      -6.964   2.858  68.081  1.00  0.00    -0.049 C  
HETATM   38  C   UNL     1      -6.422   4.160  67.623  1.00  0.00    -0.038 A  
HETATM   39  C   UNL     1      -6.468   4.847  66.435  1.00  0.00    -0.041 A  
HETATM   40  N   UNL     1      -6.050   6.138  66.694  1.00  0.00    -0.030 NA 
HETATM   41  C   UNL     1      -5.708   6.278  68.026  1.00  0.00    -0.012 A  
HETATM   42  H   UNL     1      -5.999   6.883  65.999  1.00  0.00     0.000 HD 
HETATM   43  C   UNL     1      -5.365   7.385  68.802  1.00  0.00    -0.022 A  
HETATM   44  C   UNL     1      -5.184   7.166  70.180  1.00  0.00    -0.023 A  
HETATM   45  C   UNL     1      -5.466   5.929  70.776  1.00  0.00    -0.013 A  
HETATM   46  C   UNL     1      -5.992   4.891  70.000  1.00  0.00    -0.021 A  
HETATM   47  C   UNL     1      -6.871   3.760  70.534  1.00  0.00    -0.033 C  
HETATM   48  C   UNL     1      -5.935   5.048  68.605  1.00  0.00    -0.025 A  
HETATM   49  C   UNL     1      -7.838   4.249  71.635  1.00  0.00    -0.078 C  
ENDBRANCH  29  32
ENDBRANCH  27  29
ENDBRANCH  13  27
TORSDOF 5
ENDMDL
MODEL      194
REMARK 921   NORMALIZED FREE ENERGY PREDICTED BY IDOCK:    8.14 KCAL/MOL
REMARK 922        TOTAL FREE ENERGY PREDICTED BY IDOCK:    8.68 KCAL/MOL
REMARK 923 INTER-LIGAND FREE ENERGY PREDICTED BY IDOCK:   -1.07 KCAL/MOL
REMARK 924 INTRA-LIGAND FREE ENERGY PREDICTED BY IDOCK:    9.75 KCAL/MOL
REMARK 927      BINDING AFFINITY PREDICTED BY RF-SCORE:    0.00 PKD
ROOT
HETATM    1  C   UNL     1      -8.676   7.079  69.979  1.00  0.00    -0.142 C  
HETATM    2  C   UNL     1      -9.259   7.114  71.387  1.00  0.00    -0.150 C  
HETATM    3  C   UNL     1      -9.710   5.642  71.611  1.00  0.00    -0.196 C  
HETATM    4  C   UNL     1      -9.698   4.981  70.240  1.00  0.00    -0.215 C  
HETATM    5  N   UNL     1      -9.412   6.054  69.316  1.00  0.00    -0.132 N  
HETATM    6  C   UNL     1      -8.993   5.672  68.068  1.00  0.00    -0.108 C  
HETATM    7  O   UNL     1      -9.535   4.707  67.539  1.00  0.00    -0.136 OA 
HETATM    8  C   UNL     1      -7.912   6.603  67.399  1.00  0.00    -0.114 C  
HETATM    9  C   UNL     1      -8.101   8.257  69.097  1.00  0.00    -0.120 C  
HETATM   10  N   UNL     1      -7.111   7.537  68.374  1.00  0.00    -0.079 N  
HETATM   11  C   UNL     1      -6.388   8.663  67.960  1.00  0.00    -0.056 C  
HETATM   12  H   UNL     1      -7.247   9.899  69.505  1.00  0.00     0.000 HD 
HETATM   13  C   UNL     1      -7.384   9.582  67.196  1.00  0.00    -0.088 C  
HETATM   14  O   UNL     1      -5.220   8.853  68.243  1.00  0.00    -0.034 OA 
HETATM   15  O   UNL     1      -7.593   9.191  70.036  1.00  0.00    -0.062 OA 
HETATM   16  O   UNL     1      -8.622   8.993  67.947  1.00  0.00    -0.124 OA 
HETATM   17  C   UNL     1      -5.368   9.375  65.338  1.00  0.00    -0.040 C  
HETATM   18  C   UNL     1      -7.695   9.254  64.428  1.00  0.00    -0.118 C  
HETATM   19  C   UNL     1      -6.867   9.106  65.707  1.00  0.00    -0.077 C  
ENDROOT
BRANCH   8  20
HETATM   20  C   UNL     1      -7.128   5.736  66.397  1.00  0.00    -0.072 C  
BRANCH  20  21
HETATM   21  C   UNL     1      -7.459   6.129  64.939  1.00  0.00    -0.083 A  
HETATM   22  C   UNL     1      -9.284   6.530  63.399  1.00  0.00     1.672 A  
HETATM   23  C   UNL     1      -7.223   7.709  63.106  1.00  0.00    -0.083 A  
HETATM   24  C   UNL     1      -6.663   7.008  64.169  1.00  0.00    -0.046 A  
HETATM   25  C   UNL     1      -8.540   7.511  62.742  1.00  0.00     0.281 A  
HETATM   26  C   UNL     1      -8.750   5.841  64.485  1.00  0.00     0.106 A  
ENDBRANCH  20  21
ENDBRANCH   8  20
BRANCH  13  27
HETATM   27  N   UNL     1      -7.309  11.037  67.489  1.00  0.00    -0.097 NA 
HETATM   28  H   UNL     1      -6.487  11.482  67.898  1.00  0.00     0.000 HD 
BRANCH  27  29
HETATM   29  C   UNL     1      -8.381  11.686  67.176  1.00  0.00    -0.164 C  
HETATM   30  H   UNL     1      -9.149  13.096  65.977  1.00  0.00     0.000 HD 
HETATM   31  O   UNL     1      -8.361  12.619  66.207  1.00  0.00     0.210 OA 
BRANCH  29  32
HETATM   32  C   UNL     1      -9.777  11.594  67.794  1.00  0.00    -0.177 C  
HETATM   33  C   UNL     1     -10.034  12.470  69.019  1.00  0.00     0.231 C  
HETATM   34  N   UNL     1     -11.479  12.478  69.319  1.00  0.00    -0.289 NA 
HETATM   35  C   UNL     1     -12.342  13.129  68.276  1.00  0.00     0.175 C  
HETATM   36  C   UNL     1     -11.772  12.850  70.692  1.00  0.00     0.254 C  
HETATM   37  C   UNL     1     -12.864  14.580  68.594  1.00  0.00     1.082 C  
HETATM   38  C   UNL     1     -11.700  15.496  68.540  1.00  0.00    -0.351 A  
HETATM   39  C   UNL     1     -11.171  16.417  69.411  1.00  0.00    -0.267 A  
HETATM   40  N   UNL     1      -9.911  16.741  68.946  1.00  0.00    -0.255 NA 
HETATM   41  C   UNL     1      -9.638  16.063  67.774  1.00  0.00    -0.219 A  
HETATM   42  H   UNL     1      -9.271  17.391  69.404  1.00  0.00     0.000 HD 
HETATM   43  C   UNL     1      -8.484  15.939  67.000  1.00  0.00    -0.248 A  
HETATM   44  C   UNL     1      -8.542  15.056  65.906  1.00  0.00     0.759 A  
HETATM   45  C   UNL     1      -9.653  14.233  65.677  1.00  0.00    -0.139 A  
HETATM   46  C   UNL     1     -10.719  14.242  66.582  1.00  0.00    -0.290 A  
HETATM   47  C   UNL     1     -11.669  13.069  66.826  1.00  0.00    -0.440 C  
HETATM   48  C   UNL     1     -10.750  15.290  67.517  1.00  0.00    -0.285 A  
HETATM   49  C   UNL     1     -10.939  11.709  66.756  1.00  0.00    -0.341 C  
ENDBRANCH  29  32
ENDBRANCH  27  29
ENDBRANCH  13  27
TORSDOF 5
ENDMDL
MODEL      195
REMARK 921   NORMALIZED FREE ENERGY PREDICTED BY IDOCK:    8.24 KCAL/MOL
REMARK 922        TOTAL FREE ENERGY PREDICTED BY IDOCK:    8.81 KCAL/MOL
REMARK 923 INTER-LIGAND FREE ENERGY PREDICTED BY IDOCK:   -1.99 KCAL/MOL
REMARK 924 INTRA-LIGAND FREE ENERGY PREDICTED BY IDOCK:   10.80 KCAL/MOL
REMARK 927      BINDING AFFINITY PREDICTED BY RF-SCORE:    0.00 PKD
ROOT
HETATM    1  C   UNL     1     -11.352  10.194  69.552  1.00  0.00    -0.206 C  
HETATM    2  C   UNL     1     -12.424  10.639  70.540  1.00  0.00    -0.445 C  
HETATM    3  C   UNL     1     -13.410  11.439  69.640  1.00  0.00     1.778 C  
HETATM    4  C   UNL     1     -12.674  11.703  68.333  1.00  0.00     1.798 C  
HETATM    5  N   UNL     1     -11.333  11.218  68.562  1.00  0.00    -0.249 N  
HETATM    6  C   UNL     1     -10.574  11.009  67.439  1.00  0.00    -0.237 C  
HETATM    7  O   UNL     1     -10.648  11.821  66.524  1.00  0.00    -0.235 OA 
HETATM    8  C   UNL     1      -9.593   9.776  67.502  1.00  0.00    -0.150 C  
HETATM    9  C   UNL     1     -10.010   9.401  69.813  1.00  0.00    -0.200 C  
HETATM   10  N   UNL     1      -9.925   8.689  68.585  1.00  0.00    -0.178 N  
HETATM   11  C   UNL     1      -9.007   7.732  69.037  1.00  0.00    -0.145 C  
HETATM   12  H   UNL     1      -9.478   8.121  71.106  1.00  0.00     0.000 HD 
HETATM   13  C   UNL     1      -7.768   8.510  69.565  1.00  0.00    -0.091 C  
HETATM   14  O   UNL     1      -9.235   6.536  69.050  1.00  0.00    -0.131 OA 
HETATM   15  O   UNL     1     -10.285   8.598  70.949  1.00  0.00    -0.191 OA 
HETATM   16  O   UNL     1      -8.604   9.798  69.855  1.00  0.00    -0.190 OA 
HETATM   17  C   UNL     1      -6.557   6.763  67.820  1.00  0.00    -0.058 C  
HETATM   18  C   UNL     1      -5.675   9.103  67.795  1.00  0.00    -0.038 C  
HETATM   19  C   UNL     1      -6.875   8.247  68.206  1.00  0.00    -0.065 C  
ENDROOT
BRANCH   8  20
HETATM   20  C   UNL     1      -9.347   9.322  66.051  1.00  0.00    -0.283 C  
BRANCH  20  21
HETATM   21  C   UNL     1      -9.531   7.794  65.906  1.00  0.00     0.036 A  
HETATM   22  C   UNL     1      -8.361   5.732  65.419  1.00  0.00    -0.142 A  
HETATM   23  C   UNL     1     -10.261   5.686  66.872  1.00  0.00    -0.272 A  
HETATM   24  C   UNL     1     -10.462   7.046  66.662  1.00  0.00    -0.209 A  
HETATM   25  C   UNL     1      -9.193   5.030  66.294  1.00  0.00    -0.144 A  
HETATM   26  C   UNL     1      -8.528   7.099  65.222  1.00  0.00    -0.060 A  
ENDBRANCH  20  21
ENDBRANCH   8  20
BRANCH  13  27
HETATM   27  N   UNL     1      -7.178   8.037  70.844  1.00  0.00    -0.052 NA 
HETATM   28  H   UNL     1      -6.311   8.409  71.230  1.00  0.00     0.000 HD 
BRANCH  27  29
HETATM   29  C   UNL     1      -7.867   7.110  71.423  1.00  0.00    -0.097 C  
HETATM   30  H   UNL     1      -8.482   6.388  73.189  1.00  0.00     0.000 HD 
HETATM   31  O   UNL     1      -7.975   7.069  72.763  1.00  0.00    -0.102 OA 
BRANCH  29  32
HETATM   32  C   UNL     1      -8.615   5.932  70.796  1.00  0.00    -0.130 C  
HETATM   33  C   UNL     1      -7.767   4.723  70.405  1.00  0.00    -0.058 C  
HETATM   34  N   UNL     1      -8.653   3.588  70.082  1.00  0.00    -0.059 NA 
HETATM   35  C   UNL     1      -9.453   3.056  71.236  1.00  0.00    -0.149 C  
HETATM   36  C   UNL     1      -8.011   2.584  69.253  1.00  0.00    -0.045 C  
HETATM   37  C   UNL     1      -8.947   1.716  71.890  1.00  0.00    -0.109 C  
HETATM   38  C   UNL     1      -7.680   2.014  72.599  1.00  0.00    -0.051 A  
HETATM   39  C   UNL     1      -6.418   1.475  72.562  1.00  0.00    -0.014 A  
HETATM   40  N   UNL     1      -5.577   2.358  73.212  1.00  0.00     0.000 NA 
HETATM   41  C   UNL     1      -6.290   3.441  73.690  1.00  0.00    -0.024 A  
HETATM   42  H   UNL     1      -4.572   2.229  73.324  1.00  0.00     0.000 HD 
HETATM   43  C   UNL     1      -5.900   4.643  74.281  1.00  0.00    -0.025 A  
HETATM   44  C   UNL     1      -6.914   5.582  74.545  1.00  0.00    -0.078 A  
HETATM   45  C   UNL     1      -8.234   5.387  74.116  1.00  0.00    -0.109 A  
HETATM   46  C   UNL     1      -8.554   4.257  73.356  1.00  0.00    -0.093 A  
HETATM   47  C   UNL     1      -9.704   4.176  72.351  1.00  0.00    -0.210 C  
HETATM   48  C   UNL     1      -7.599   3.228  73.313  1.00  0.00    -0.057 A  
HETATM   49  C   UNL     1      -9.895   5.502  71.582  1.00  0.00    -0.221 C  
ENDBRANCH  29  32
ENDBRANCH  27  29
ENDBRANCH  13  27
TORSDOF 5
ENDMDL
MODEL      196
REMARK 921   NORMALIZED FREE ENERGY PREDICTED BY IDOCK:    9.50 KCAL/MOL
REMARK 922        TOTAL FREE ENERGY PREDICTED BY IDOCK:   10.43 KCAL/MOL
REMARK 923 INTER-LIGAND FREE ENERGY PREDICTED BY IDOCK:    6.07 KCAL/MOL
REMARK 924 INTRA-LIGAND FREE ENERGY PREDICTED BY IDOCK:    4.36 KCAL/MOL
REMARK 927      BINDING AFFINITY PREDICTED BY RF-SCORE:    0.00 PKD
ROOT
HETATM    1  C   UNL     1      -9.837   9.697  69.244  1.00  0.00    -0.189 C  
HETATM    2  C   UNL     1     -10.252  10.830  70.175  1.00  0.00     0.383 C  
HETATM    3  C   UNL     1     -11.110  10.099  71.248  1.00  0.00    -0.024 C  
HETATM    4  C   UNL     1     -11.424   8.724  70.675  1.00  0.00    -0.231 C  
HETATM    5  N   UNL     1     -10.907   8.760  69.327  1.00  0.00    -0.140 N  
HETATM    6  C   UNL     1     -10.740   7.542  68.719  1.00  0.00    -0.095 C  
HETATM    7  O   UNL     1     -11.596   6.681  68.888  1.00  0.00    -0.128 OA 
HETATM    8  C   UNL     1      -9.490   7.425  67.765  1.00  0.00    -0.140 C  
HETATM    9  C   UNL     1      -9.011   9.750  67.898  1.00  0.00    -0.118 C  
HETATM   10  N   UNL     1      -8.358   8.491  67.982  1.00  0.00    -0.126 N  
HETATM   11  C   UNL     1      -7.365   8.780  67.037  1.00  0.00    -0.080 C  
HETATM   12  H   UNL     1      -7.662  10.907  67.237  1.00  0.00     0.000 HD 
HETATM   13  C   UNL     1      -8.097   9.182  65.725  1.00  0.00    -0.112 C  
HETATM   14  O   UNL     1      -6.174   8.767  67.287  1.00  0.00    -0.054 OA 
HETATM   15  O   UNL     1      -8.159  10.875  68.046  1.00  0.00    -0.112 OA 
HETATM   16  O   UNL     1      -9.383   9.633  66.489  1.00  0.00    -0.151 OA 
HETATM   17  C   UNL     1      -6.417   7.222  64.780  1.00  0.00    -0.037 C  
HETATM   18  C   UNL     1      -8.741   7.192  63.856  1.00  0.00     0.696 C  
HETATM   19  C   UNL     1      -7.886   7.712  65.014  1.00  0.00    -0.126 C  
ENDROOT
BRANCH   8  20
HETATM   20  C   UNL     1      -9.102   5.936  67.711  1.00  0.00    -0.109 C  
BRANCH  20  21
HETATM   21  C   UNL     1      -8.283   5.527  68.957  1.00  0.00    -0.099 A  
HETATM   22  C   UNL     1      -8.206   5.683  71.371  1.00  0.00    -0.122 A  
HETATM   23  C   UNL     1      -7.264   3.768  70.291  1.00  0.00    -0.041 A  
HETATM   24  C   UNL     1      -7.552   4.320  69.047  1.00  0.00    -0.055 A  
HETATM   25  C   UNL     1      -7.625   4.416  71.455  1.00  0.00    -0.072 A  
HETATM   26  C   UNL     1      -8.530   6.237  70.136  1.00  0.00    -0.134 A  
ENDBRANCH  20  21
ENDBRANCH   8  20
BRANCH  13  27
HETATM   27  N   UNL     1      -7.554  10.355  64.990  1.00  0.00    -0.254 NA 
HETATM   28  H   UNL     1      -6.665  10.338  64.492  1.00  0.00     0.000 HD 
BRANCH  27  29
HETATM   29  C   UNL     1      -8.315  11.398  65.041  1.00  0.00     0.509 C  
HETATM   30  H   UNL     1      -8.437  13.307  65.641  1.00  0.00     0.000 HD 
HETATM   31  O   UNL     1      -7.878  12.539  65.603  1.00  0.00     1.632 OA 
BRANCH  29  32
HETATM   32  C   UNL     1      -9.759  11.561  64.565  1.00  0.00    -0.236 C  
HETATM   33  C   UNL     1     -10.839  11.492  65.643  1.00  0.00    -0.252 C  
HETATM   34  N   UNL     1     -12.126  11.938  65.075  1.00  0.00    -0.271 NA 
HETATM   35  C   UNL     1     -12.175  13.383  64.667  1.00  0.00    -0.407 C  
HETATM   36  C   UNL     1     -13.274  11.463  65.826  1.00  0.00     6.486 C  
HETATM   37  C   UNL     1     -12.931  14.367  65.636  1.00  0.00    -0.105 C  
HETATM   38  C   UNL     1     -12.116  14.498  66.868  1.00  0.00    -0.309 A  
HETATM   39  C   UNL     1     -12.378  14.336  68.206  1.00  0.00     0.011 A  
HETATM   40  N   UNL     1     -11.160  14.291  68.857  1.00  0.00    -0.251 NA 
HETATM   41  C   UNL     1     -10.124  14.450  67.957  1.00  0.00    -0.232 A  
HETATM   42  H   UNL     1     -11.043  14.158  69.862  1.00  0.00     0.000 HD 
HETATM   43  C   UNL     1      -8.738  14.346  68.084  1.00  0.00    -0.175 A  
HETATM   44  C   UNL     1      -7.980  14.466  66.904  1.00  0.00     0.099 A  
HETATM   45  C   UNL     1      -8.583  14.548  65.642  1.00  0.00     1.768 A  
HETATM   46  C   UNL     1      -9.974  14.457  65.532  1.00  0.00    -0.359 A  
HETATM   47  C   UNL     1     -10.723  13.946  64.301  1.00  0.00    -0.146 C  
HETATM   48  C   UNL     1     -10.716  14.582  66.719  1.00  0.00    -0.291 A  
HETATM   49  C   UNL     1      -9.979  12.780  63.613  1.00  0.00     0.263 C  
ENDBRANCH  29  32
ENDBRANCH  27  29
ENDBRANCH  13  27
TORSDOF 5
ENDMDL
MODEL      197
REMARK 921   NORMALIZED FREE ENERGY PREDICTED BY IDOCK:    9.60 KCAL/MOL
REMARK 922        TOTAL FREE ENERGY PREDICTED BY IDOCK:   10.56 KCAL/MOL
REMARK 923 INTER-LIGAND FREE ENERGY PREDICTED BY IDOCK:    7.52 KCAL/MOL
REMARK 924 INTRA-LIGAND FREE ENERGY PREDICTED BY IDOCK:    3.04 KCAL/MOL
REMARK 927      BINDING AFFINITY PREDICTED BY RF-SCORE:    0.00 PKD
ROOT
HETATM    1  C   UNL     1      -7.834  13.873  69.749  1.00  0.00     0.838 C  
HETATM    2  C   UNL     1      -6.387  14.040  70.198  1.00  0.00    -0.107 C  
HETATM    3  C   UNL     1      -6.360  15.501  70.733  1.00  0.00     0.396 C  
HETATM    4  C   UNL     1      -7.636  16.162  70.229  1.00  0.00     1.325 C  
HETATM    5  N   UNL     1      -8.239  15.182  69.357  1.00  0.00    -0.217 N  
HETATM    6  C   UNL     1      -9.563  15.380  69.060  1.00  0.00    -0.236 C  
HETATM    7  O   UNL     1      -9.948  16.524  68.846  1.00  0.00    -0.238 OA 
HETATM    8  C   UNL     1     -10.432  14.073  68.922  1.00  0.00    -0.200 C  
HETATM    9  C   UNL     1      -8.533  12.646  69.038  1.00  0.00     0.465 C  
HETATM   10  N   UNL     1      -9.838  12.780  69.586  1.00  0.00     1.258 N  
HETATM   11  C   UNL     1     -10.258  11.479  69.276  1.00  0.00     0.078 C  
HETATM   12  H   UNL     1      -8.230  10.775  69.064  1.00  0.00     0.000 HD 
HETATM   13  C   UNL     1     -10.080  11.303  67.741  1.00  0.00    -0.179 C  
HETATM   14  O   UNL     1     -10.614  10.671  70.113  1.00  0.00    -0.199 OA 
HETATM   15  O   UNL     1      -7.810  11.513  69.491  1.00  0.00     0.166 OA 
HETATM   16  O   UNL     1      -8.969  12.399  67.666  1.00  0.00    -0.167 OA 
HETATM   17  C   UNL     1     -12.708  10.548  68.031  1.00  0.00     3.989 C  
HETATM   18  C   UNL     1     -12.204  11.969  66.036  1.00  0.00     0.290 C  
HETATM   19  C   UNL     1     -11.674  11.546  67.408  1.00  0.00    -0.231 C  
ENDROOT
BRANCH   8  20
HETATM   20  C   UNL     1     -11.887  14.463  69.237  1.00  0.00    -0.365 C  
BRANCH  20  21
HETATM   21  C   UNL     1     -12.085  14.703  70.752  1.00  0.00    -0.387 A  
HETATM   22  C   UNL     1     -12.445  16.422  72.418  1.00  0.00    -0.206 A  
HETATM   23  C   UNL     1     -13.327  14.229  72.788  1.00  0.00    -0.621 A  
HETATM   24  C   UNL     1     -12.740  13.787  71.607  1.00  0.00    -0.409 A  
HETATM   25  C   UNL     1     -13.224  15.549  73.179  1.00  0.00    -0.657 A  
HETATM   26  C   UNL     1     -11.877  16.005  71.217  1.00  0.00    -0.502 A  
ENDBRANCH  20  21
ENDBRANCH   8  20
BRANCH  13  27
HETATM   27  N   UNL     1      -9.497  10.015  67.281  1.00  0.00    -0.152 NA 
HETATM   28  H   UNL     1      -8.684   9.583  67.718  1.00  0.00     0.000 HD 
BRANCH  27  29
HETATM   29  C   UNL     1     -10.118   9.494  66.275  1.00  0.00    -0.257 C  
HETATM   30  H   UNL     1     -11.890   9.326  65.354  1.00  0.00     0.000 HD 
HETATM   31  O   UNL     1     -11.433   9.709  66.093  1.00  0.00     1.328 OA 
BRANCH  29  32
HETATM   32  C   UNL     1      -9.577   8.569  65.183  1.00  0.00     0.635 C  
HETATM   33  C   UNL     1      -8.058   8.434  65.102  1.00  0.00    -0.147 C  
HETATM   34  N   UNL     1      -7.713   7.314  64.204  1.00  0.00    -0.116 NA 
HETATM   35  C   UNL     1      -8.129   5.956  64.692  1.00  0.00    -0.132 C  
HETATM   36  C   UNL     1      -6.363   7.403  63.678  1.00  0.00    -0.053 C  
HETATM   37  C   UNL     1      -6.997   5.046  65.299  1.00  0.00    -0.062 C  
HETATM   38  C   UNL     1      -6.587   5.644  66.592  1.00  0.00    -0.056 A  
HETATM   39  C   UNL     1      -5.382   6.030  67.124  1.00  0.00    -0.005 A  
HETATM   40  N   UNL     1      -5.655   6.802  68.237  1.00  0.00    -0.016 NA 
HETATM   41  C   UNL     1      -7.019   6.890  68.442  1.00  0.00    -0.080 A  
HETATM   42  H   UNL     1      -4.949   7.244  68.826  1.00  0.00     0.000 HD 
HETATM   43  C   UNL     1      -7.795   7.642  69.324  1.00  0.00    -0.121 A  
HETATM   44  C   UNL     1      -9.192   7.560  69.171  1.00  0.00    -0.144 A  
HETATM   45  C   UNL     1      -9.781   6.869  68.104  1.00  0.00    -0.134 A  
HETATM   46  C   UNL     1      -8.970   6.284  67.126  1.00  0.00    -0.111 A  
HETATM   47  C   UNL     1      -9.387   6.037  65.676  1.00  0.00     0.087 C  
HETATM   48  C   UNL     1      -7.601   6.168  67.422  1.00  0.00    -0.090 A  
HETATM   49  C   UNL     1     -10.279   7.174  65.129  1.00  0.00     3.262 C  
ENDBRANCH  29  32
ENDBRANCH  27  29
ENDBRANCH  13  27
TORSDOF 5
ENDMDL
MODEL      198
REMARK 921   NORMALIZED FREE ENERGY PREDICTED BY IDOCK:    9.76 KCAL/MOL
REMARK 922        TOTAL FREE ENERGY PREDICTED BY IDOCK:   10.77 KCAL/MOL
REMARK 923 INTER-LIGAND FREE ENERGY PREDICTED BY IDOCK:    6.66 KCAL/MOL
REMARK 924 INTRA-LIGAND FREE ENERGY PREDICTED BY IDOCK:    4.11 KCAL/MOL
REMARK 927      BINDING AFFINITY PREDICTED BY RF-SCORE:    0.00 PKD
ROOT
HETATM    1  C   UNL     1     -10.884  12.557  66.633  1.00  0.00    -0.246 C  
HETATM    2  C   UNL     1     -11.949  12.867  65.587  1.00  0.00    -0.490 C  
HETATM    3  C   UNL     1     -13.035  11.790  65.872  1.00  0.00     3.689 C  
HETATM    4  C   UNL     1     -12.378  10.751  66.771  1.00  0.00     3.685 C  
HETATM    5  N   UNL     1     -10.993  11.152  66.845  1.00  0.00    -0.285 N  
HETATM    6  C   UNL     1     -10.266  10.602  67.869  1.00  0.00    -0.177 C  
HETATM    7  O   UNL     1     -10.445   9.421  68.144  1.00  0.00    -0.204 OA 
HETATM    8  C   UNL     1      -9.182  11.546  68.517  1.00  0.00    -0.167 C  
HETATM    9  C   UNL     1      -9.470  13.226  66.860  1.00  0.00    -0.249 C  
HETATM   10  N   UNL     1      -9.376  13.084  68.271  1.00  0.00    -0.214 N  
HETATM   11  C   UNL     1      -8.363  14.037  68.444  1.00  0.00    -0.162 C  
HETATM   12  H   UNL     1      -8.779  14.963  66.541  1.00  0.00     0.000 HD 
HETATM   13  C   UNL     1      -7.174  13.597  67.544  1.00  0.00    -0.156 C  
HETATM   14  O   UNL     1      -8.489  15.034  69.130  1.00  0.00    -0.195 OA 
HETATM   15  O   UNL     1      -9.630  14.560  66.404  1.00  0.00    -0.276 OA 
HETATM   16  O   UNL     1      -8.102  12.799  66.573  1.00  0.00     0.145 OA 
HETATM   17  C   UNL     1      -5.892  13.890  69.959  1.00  0.00    -0.135 C  
HETATM   18  C   UNL     1      -5.212  11.898  68.608  1.00  0.00    -0.049 C  
HETATM   19  C   UNL     1      -6.318  12.940  68.789  1.00  0.00    -0.080 C  
ENDROOT
BRANCH   8  20
HETATM   20  C   UNL     1      -8.958  11.051  69.958  1.00  0.00     1.323 C  
BRANCH  20  21
HETATM   21  C   UNL     1      -8.223   9.692  69.974  1.00  0.00    -0.197 A  
HETATM   22  C   UNL     1      -6.227   8.551  69.215  1.00  0.00    -0.042 A  
HETATM   23  C   UNL     1      -7.268   7.858  71.254  1.00  0.00    -0.059 A  
HETATM   24  C   UNL     1      -8.288   8.783  71.055  1.00  0.00    -0.208 A  
HETATM   25  C   UNL     1      -6.214   7.764  70.368  1.00  0.00    -0.037 A  
HETATM   26  C   UNL     1      -7.221   9.504  69.015  1.00  0.00    -0.071 A  
ENDBRANCH  20  21
ENDBRANCH   8  20
BRANCH  13  27
HETATM   27  N   UNL     1      -6.494  14.666  66.767  1.00  0.00     0.308 NA 
HETATM   28  H   UNL     1      -5.821  14.474  66.025  1.00  0.00     0.000 HD 
BRANCH  27  29
HETATM   29  C   UNL     1      -6.835  15.861  67.119  1.00  0.00    -0.164 C  
HETATM   30  H   UNL     1      -6.710  17.238  68.570  1.00  0.00     0.000 HD 
HETATM   31  O   UNL     1      -6.460  16.359  68.311  1.00  0.00    -0.125 OA 
BRANCH  29  32
HETATM   32  C   UNL     1      -7.693  16.879  66.366  1.00  0.00    -0.345 C  
HETATM   33  C   UNL     1      -8.832  17.521  67.156  1.00  0.00    -0.238 C  
HETATM   34  N   UNL     1      -9.376  18.661  66.391  1.00  0.00    -0.362 NA 
HETATM   35  C   UNL     1      -8.429  19.812  66.206  1.00  0.00    -0.361 C  
HETATM   36  C   UNL     1     -10.724  19.020  66.790  1.00  0.00    -0.364 C  
HETATM   37  C   UNL     1      -8.659  21.072  67.122  1.00  0.00     0.027 C  
HETATM   38  C   UNL     1      -8.297  20.691  68.508  1.00  0.00     0.628 A  
HETATM   39  C   UNL     1      -8.948  20.755  69.715  1.00  0.00     2.143 A  
HETATM   40  N   UNL     1      -8.236  19.974  70.605  1.00  0.00     1.319 NA 
HETATM   41  C   UNL     1      -7.122  19.433  69.990  1.00  0.00     0.186 A  
HETATM   42  H   UNL     1      -8.496  19.817  71.579  1.00  0.00     0.000 HD 
HETATM   43  C   UNL     1      -6.180  18.491  70.402  1.00  0.00     0.167 A  
HETATM   44  C   UNL     1      -5.224  18.088  69.451  1.00  0.00    -0.186 A  
HETATM   45  C   UNL     1      -5.290  18.502  68.114  1.00  0.00    -0.167 A  
HETATM   46  C   UNL     1      -6.359  19.296  67.688  1.00  0.00    -0.222 A  
HETATM   47  C   UNL     1      -6.901  19.339  66.259  1.00  0.00    -0.231 C  
HETATM   48  C   UNL     1      -7.156  19.881  68.687  1.00  0.00    -0.338 A  
HETATM   49  C   UNL     1      -6.866  17.950  65.584  1.00  0.00    -0.160 C  
ENDBRANCH  29  32
ENDBRANCH  27  29
ENDBRANCH  13  27
TORSDOF 5
ENDMDL
MODEL      199
REMARK 921   NORMALIZED FREE ENERGY PREDICTED BY IDOCK:   10.04 KCAL/MOL
REMARK 922        TOTAL FREE ENERGY PREDICTED BY IDOCK:   11.14 KCAL/MOL
REMARK 923 INTER-LIGAND FREE ENERGY PREDICTED BY IDOCK:    3.51 KCAL/MOL
REMARK 924 INTRA-LIGAND FREE ENERGY PREDICTED BY IDOCK:    7.63 KCAL/MOL
REMARK 927      BINDING AFFINITY PREDICTED BY RF-SCORE:    0.00 PKD
ROOT
HETATM    1  C   UNL     1     -11.229  15.053  67.380  1.00  0.00    -0.335 C  
HETATM    2  C   UNL     1     -12.652  15.309  66.894  1.00  0.00     1.345 C  
HETATM    3  C   UNL     1     -12.802  16.848  67.061  1.00  0.00     5.522 C  
HETATM    4  C   UNL     1     -11.643  17.294  67.943  1.00  0.00     0.758 C  
HETATM    5  N   UNL     1     -10.998  16.069  68.352  1.00  0.00    -0.315 N  
HETATM    6  C   UNL     1      -9.727  16.200  68.850  1.00  0.00    -0.242 C  
HETATM    7  O   UNL     1      -9.484  17.147  69.590  1.00  0.00     0.196 OA 
HETATM    8  C   UNL     1      -8.733  15.031  68.491  1.00  0.00    -0.175 C  
HETATM    9  C   UNL     1     -10.452  13.687  67.546  1.00  0.00    -0.241 C  
HETATM   10  N   UNL     1      -9.134  14.140  67.262  1.00  0.00    -0.203 N  
HETATM   11  C   UNL     1      -8.598  12.871  67.009  1.00  0.00    -0.169 C  
HETATM   12  H   UNL     1     -10.546  12.013  66.662  1.00  0.00     0.000 HD 
HETATM   13  C   UNL     1      -8.861  12.010  68.277  1.00  0.00    -0.182 C  
HETATM   14  O   UNL     1      -8.098  12.553  65.946  1.00  0.00     0.820 OA 
HETATM   15  O   UNL     1     -11.014  12.834  66.562  1.00  0.00    -0.254 OA 
HETATM   16  O   UNL     1     -10.086  12.878  68.707  1.00  0.00    -0.168 OA 
HETATM   17  C   UNL     1      -6.152  11.644  67.976  1.00  0.00    -0.047 C  
HETATM   18  C   UNL     1      -6.944  11.976  70.325  1.00  0.00     1.124 C  
HETATM   19  C   UNL     1      -7.329  12.182  68.858  1.00  0.00    -0.054 C  
ENDROOT
BRANCH   8  20
HETATM   20  C   UNL     1      -7.310  15.618  68.544  1.00  0.00    -0.122 C  
BRANCH  20  21
HETATM   21  C   UNL     1      -7.185  16.862  67.635  1.00  0.00    -0.161 A  
HETATM   22  C   UNL     1      -5.736  17.970  66.043  1.00  0.00    -0.236 A  
HETATM   23  C   UNL     1      -8.105  18.237  65.853  1.00  0.00     0.009 A  
HETATM   24  C   UNL     1      -8.290  17.482  67.007  1.00  0.00    -0.239 A  
HETATM   25  C   UNL     1      -6.842  18.449  65.339  1.00  0.00    -0.124 A  
HETATM   26  C   UNL     1      -5.902  17.187  67.182  1.00  0.00    -0.192 A  
ENDBRANCH  20  21
ENDBRANCH   8  20
BRANCH  13  27
HETATM   27  N   UNL     1      -9.329  10.617  68.053  1.00  0.00    -0.145 NA 
HETATM   28  H   UNL     1      -9.898  10.105  68.726  1.00  0.00     0.000 HD 
BRANCH  27  29
HETATM   29  C   UNL     1      -8.949  10.116  66.924  1.00  0.00    -0.132 C  
HETATM   30  H   UNL     1      -8.123  10.529  65.146  1.00  0.00     0.000 HD 
HETATM   31  O   UNL     1      -8.403  10.897  65.976  1.00  0.00    -0.164 OA 
BRANCH  29  32
HETATM   32  C   UNL     1      -9.054   8.673  66.427  1.00  0.00    -0.218 C  
HETATM   33  C   UNL     1      -7.824   7.793  66.639  1.00  0.00    -0.102 C  
HETATM   34  N   UNL     1      -8.176   6.386  66.367  1.00  0.00    -0.112 NA 
HETATM   35  C   UNL     1      -9.167   5.783  67.321  1.00  0.00    -0.110 C  
HETATM   36  C   UNL     1      -7.022   5.560  66.061  1.00  0.00    -0.066 C  
HETATM   37  C   UNL     1      -8.591   4.814  68.421  1.00  0.00    -0.104 C  
HETATM   38  C   UNL     1      -7.813   5.635  69.378  1.00  0.00    -0.088 A  
HETATM   39  C   UNL     1      -6.531   5.572  69.866  1.00  0.00    -0.034 A  
HETATM   40  N   UNL     1      -6.270   6.777  70.489  1.00  0.00    -0.031 NA 
HETATM   41  C   UNL     1      -7.379   7.601  70.431  1.00  0.00    -0.071 A  
HETATM   42  H   UNL     1      -5.384   7.025  70.930  1.00  0.00     0.000 HD 
HETATM   43  C   UNL     1      -7.583   8.936  70.780  1.00  0.00    -0.110 A  
HETATM   44  C   UNL     1      -8.840   9.489  70.472  1.00  0.00    -0.253 A  
HETATM   45  C   UNL     1      -9.797   8.786  69.729  1.00  0.00    -0.189 A  
HETATM   46  C   UNL     1      -9.488   7.517  69.227  1.00  0.00    -0.154 A  
HETATM   47  C   UNL     1     -10.112   6.895  67.978  1.00  0.00    -0.193 C  
HETATM   48  C   UNL     1      -8.341   6.892  69.744  1.00  0.00    -0.132 A  
HETATM   49  C   UNL     1     -10.362   7.943  66.872  1.00  0.00    -0.400 C  
ENDBRANCH  29  32
ENDBRANCH  27  29
ENDBRANCH  13  27
TORSDOF 5
ENDMDL
MODEL      200
REMARK 921   NORMALIZED FREE ENERGY PREDICTED BY IDOCK:   10.18 KCAL/MOL
REMARK 922        TOTAL FREE ENERGY PREDICTED BY IDOCK:   11.31 KCAL/MOL
REMARK 923 INTER-LIGAND FREE ENERGY PREDICTED BY IDOCK:    0.45 KCAL/MOL
REMARK 924 INTRA-LIGAND FREE ENERGY PREDICTED BY IDOCK:   10.87 KCAL/MOL
REMARK 927      BINDING AFFINITY PREDICTED BY RF-SCORE:    0.00 PKD
ROOT
HETATM    1  C   UNL     1      -7.153   7.616  68.136  1.00  0.00    -0.081 C  
HETATM    2  C   UNL     1      -5.805   7.863  67.467  1.00  0.00    -0.038 C  
HETATM    3  C   UNL     1      -5.232   6.426  67.304  1.00  0.00    -0.005 C  
HETATM    4  C   UNL     1      -6.084   5.526  68.190  1.00  0.00    -0.026 C  
HETATM    5  N   UNL     1      -6.957   6.430  68.901  1.00  0.00    -0.073 N  
HETATM    6  C   UNL     1      -8.057   5.859  69.489  1.00  0.00    -0.106 C  
HETATM    7  O   UNL     1      -7.926   4.772  70.042  1.00  0.00    -0.067 OA 
HETATM    8  C   UNL     1      -9.367   6.736  69.476  1.00  0.00    -0.146 C  
HETATM    9  C   UNL     1      -8.227   8.654  68.653  1.00  0.00    -0.121 C  
HETATM   10  N   UNL     1      -9.406   7.896  68.418  1.00  0.00    -0.141 N  
HETATM   11  C   UNL     1     -10.290   8.981  68.482  1.00  0.00    -0.203 C  
HETATM   12  H   UNL     1      -8.712  10.407  68.121  1.00  0.00     0.000 HD 
HETATM   13  C   UNL     1     -10.071   9.659  69.865  1.00  0.00    -0.246 C  
HETATM   14  O   UNL     1     -11.012   9.315  67.562  1.00  0.00    -0.199 OA 
HETATM   15  O   UNL     1      -8.066   9.783  67.810  1.00  0.00    -0.111 OA 
HETATM   16  O   UNL     1      -8.609   9.120  69.984  1.00  0.00    -0.133 OA 
HETATM   17  C   UNL     1     -12.793   9.277  69.920  1.00  0.00     1.445 C  
HETATM   18  C   UNL     1     -11.591   8.801  72.061  1.00  0.00    -0.436 C  
HETATM   19  C   UNL     1     -11.395   8.960  70.551  1.00  0.00    -0.268 C  
ENDROOT
BRANCH   8  20
HETATM   20  C   UNL     1     -10.560   5.765  69.552  1.00  0.00    -0.390 C  
BRANCH  20  21
HETATM   21  C   UNL     1     -10.341   4.696  70.647  1.00  0.00    -0.119 A  
HETATM   22  C   UNL     1     -11.127   3.934  72.806  1.00  0.00     0.022 A  
HETATM   23  C   UNL     1     -10.214   2.348  71.266  1.00  0.00     0.311 A  
HETATM   24  C   UNL     1      -9.923   3.374  70.372  1.00  0.00     0.162 A  
HETATM   25  C   UNL     1     -10.854   2.610  72.461  1.00  0.00     0.099 A  
HETATM   26  C   UNL     1     -10.871   4.970  71.912  1.00  0.00    -0.118 A  
ENDBRANCH  20  21
ENDBRANCH   8  20
BRANCH  13  27
HETATM   27  N   UNL     1     -10.024  11.144  69.881  1.00  0.00    -0.043 NA 
HETATM   28  H   UNL     1      -9.339  11.686  69.355  1.00  0.00     0.000 HD 
BRANCH  27  29
HETATM   29  C   UNL     1     -10.933  11.685  70.623  1.00  0.00     1.599 C  
HETATM   30  H   UNL     1     -12.045  11.459  72.275  1.00  0.00     0.000 HD 
HETATM   31  O   UNL     1     -11.376  11.062  71.730  1.00  0.00     1.470 OA 
BRANCH  29  32
HETATM   32  C   UNL     1     -11.680  13.005  70.423  1.00  0.00    -0.117 C  
HETATM   33  C   UNL     1     -10.829  14.273  70.434  1.00  0.00     0.415 C  
HETATM   34  N   UNL     1     -11.640  15.410  69.957  1.00  0.00    -0.294 NA 
HETATM   35  C   UNL     1     -12.069  15.328  68.521  1.00  0.00    -0.085 C  
HETATM   36  C   UNL     1     -11.116  16.697  70.380  1.00  0.00     0.009 C  
HETATM   37  C   UNL     1     -11.276  16.219  67.493  1.00  0.00    -0.054 C  
HETATM   38  C   UNL     1      -9.913  15.651  67.364  1.00  0.00    -0.232 A  
HETATM   39  C   UNL     1      -8.649  16.169  67.489  1.00  0.00    -0.177 A  
HETATM   40  N   UNL     1      -7.775  15.101  67.561  1.00  0.00    -0.165 NA 
HETATM   41  C   UNL     1      -8.461  13.907  67.455  1.00  0.00    -0.199 A  
HETATM   42  H   UNL     1      -6.764  15.183  67.677  1.00  0.00     0.000 HD 
HETATM   43  C   UNL     1      -8.070  12.576  67.602  1.00  0.00    -0.171 A  
HETATM   44  C   UNL     1      -9.083  11.602  67.531  1.00  0.00    -0.172 A  
HETATM   45  C   UNL     1     -10.439  11.949  67.455  1.00  0.00    -0.242 A  
HETATM   46  C   UNL     1     -10.812  13.296  67.502  1.00  0.00    -0.276 A  
HETATM   47  C   UNL     1     -12.157  13.813  68.013  1.00  0.00    -0.315 C  
HETATM   48  C   UNL     1      -9.791  14.246  67.329  1.00  0.00    -0.244 A  
HETATM   49  C   UNL     1     -12.673  12.994  69.216  1.00  0.00     0.728 C  
ENDBRANCH  29  32
ENDBRANCH  27  29
ENDBRANCH  13  27
TORSDOF 5
ENDMDL
MODEL      201
REMARK 921   NORMALIZED FREE ENERGY PREDICTED BY IDOCK:   11.18 KCAL/MOL
REMARK 922        TOTAL FREE ENERGY PREDICTED BY IDOCK:   12.60 KCAL/MOL
REMARK 923 INTER-LIGAND FREE ENERGY PREDICTED BY IDOCK:    3.46 KCAL/MOL
REMARK 924 INTRA-LIGAND FREE ENERGY PREDICTED BY IDOCK:    9.14 KCAL/MOL
REMARK 927      BINDING AFFINITY PREDICTED BY RF-SCORE:    0.00 PKD
ROOT
HETATM    1  C   UNL     1     -10.146  12.312  65.905  1.00  0.00    -0.251 C  
HETATM    2  C   UNL     1     -10.969  11.273  65.152  1.00  0.00    -0.216 C  
HETATM    3  C   UNL     1     -11.280  11.989  63.806  1.00  0.00    -0.516 C  
HETATM    4  C   UNL     1     -10.950  13.460  64.022  1.00  0.00    -0.217 C  
HETATM    5  N   UNL     1     -10.630  13.563  65.426  1.00  0.00    -0.297 N  
HETATM    6  C   UNL     1      -9.955  14.696  65.803  1.00  0.00    -0.338 C  
HETATM    7  O   UNL     1     -10.281  15.766  65.298  1.00  0.00    -0.375 OA 
HETATM    8  C   UNL     1      -8.887  14.503  66.946  1.00  0.00    -0.234 C  
HETATM    9  C   UNL     1      -9.563  12.264  67.374  1.00  0.00    -0.179 C  
HETATM   10  N   UNL     1      -8.385  13.033  67.175  1.00  0.00    -0.176 N  
HETATM   11  C   UNL     1      -7.734  12.603  68.339  1.00  0.00    -0.133 C  
HETATM   12  H   UNL     1      -8.989  10.857  68.507  1.00  0.00     0.000 HD 
HETATM   13  C   UNL     1      -8.679  12.932  69.530  1.00  0.00     1.607 C  
HETATM   14  O   UNL     1      -6.665  12.023  68.335  1.00  0.00    -0.057 OA 
HETATM   15  O   UNL     1      -9.340  10.886  67.624  1.00  0.00    -0.153 OA 
HETATM   16  O   UNL     1      -9.953  12.906  68.627  1.00  0.00    -0.191 OA 
HETATM   17  C   UNL     1      -6.355  14.127  70.388  1.00  0.00    -0.103 C  
HETATM   18  C   UNL     1      -8.454  15.422  70.801  1.00  0.00     2.143 C  
HETATM   19  C   UNL     1      -7.854  14.290  69.964  1.00  0.00     0.780 C  
ENDROOT
BRANCH   8  20
HETATM   20  C   UNL     1      -7.843  15.623  66.782  1.00  0.00    -0.211 C  
BRANCH  20  21
HETATM   21  C   UNL     1      -8.518  16.967  66.425  1.00  0.00    -0.318 A  
HETATM   22  C   UNL     1     -10.208  18.546  67.142  1.00  0.00    -0.408 A  
HETATM   23  C   UNL     1      -8.299  19.340  65.938  1.00  0.00    -0.046 A  
HETATM   24  C   UNL     1      -7.842  18.034  65.790  1.00  0.00     0.042 A  
HETATM   25  C   UNL     1      -9.452  19.610  66.647  1.00  0.00    -0.467 A  
HETATM   26  C   UNL     1      -9.750  17.236  67.031  1.00  0.00    -0.267 A  
ENDBRANCH  20  21
ENDBRANCH   8  20
BRANCH  13  27
HETATM   27  N   UNL     1      -8.824  11.885  70.576  1.00  0.00     4.011 NA 
HETATM   28  H   UNL     1      -9.282  12.051  71.471  1.00  0.00     0.000 HD 
BRANCH  27  29
HETATM   29  C   UNL     1      -8.316  10.745  70.243  1.00  0.00     1.405 C  
HETATM   30  H   UNL     1      -8.626   9.051  69.218  1.00  0.00     0.000 HD 
HETATM   31  O   UNL     1      -9.000   9.890  69.463  1.00  0.00    -0.182 OA 
BRANCH  29  32
HETATM   32  C   UNL     1      -6.973  10.135  70.649  1.00  0.00     0.033 C  
HETATM   33  C   UNL     1      -7.008   9.120  71.789  1.00  0.00     0.134 C  
HETATM   34  N   UNL     1      -5.705   8.430  71.870  1.00  0.00    -0.039 NA 
HETATM   35  C   UNL     1      -5.368   7.568  70.687  1.00  0.00    -0.023 C  
HETATM   36  C   UNL     1      -5.459   7.831  73.169  1.00  0.00    -0.044 C  
HETATM   37  C   UNL     1      -5.541   6.014  70.871  1.00  0.00    -0.018 C  
HETATM   38  C   UNL     1      -6.994   5.732  70.961  1.00  0.00    -0.066 A  
HETATM   39  C   UNL     1      -7.782   5.068  71.867  1.00  0.00    -0.107 A  
HETATM   40  N   UNL     1      -9.094   5.395  71.585  1.00  0.00    -0.138 NA 
HETATM   41  C   UNL     1      -9.158   6.237  70.492  1.00  0.00    -0.154 A  
HETATM   42  H   UNL     1      -9.903   5.062  72.110  1.00  0.00     0.000 HD 
HETATM   43  C   UNL     1     -10.206   6.946  69.904  1.00  0.00    -0.214 A  
HETATM   44  C   UNL     1      -9.876   7.812  68.845  1.00  0.00    -0.166 A  
HETATM   45  C   UNL     1      -8.546   8.062  68.482  1.00  0.00    -0.128 A  
HETATM   46  C   UNL     1      -7.507   7.483  69.216  1.00  0.00    -0.091 A  
HETATM   47  C   UNL     1      -6.102   8.070  69.357  1.00  0.00    -0.034 C  
HETATM   48  C   UNL     1      -7.853   6.446  70.099  1.00  0.00    -0.107 A  
HETATM   49  C   UNL     1      -6.125   9.612  69.445  1.00  0.00    -0.036 C  
ENDBRANCH  29  32
ENDBRANCH  27  29
ENDBRANCH  13  27
TORSDOF 5
ENDMDL
MODEL      202
REMARK 921   NORMALIZED FREE ENERGY PREDICTED BY IDOCK:   13.17 KCAL/MOL
REMARK 922        TOTAL FREE ENERGY PREDICTED BY IDOCK:   15.17 KCAL/MOL
REMARK 923 INTER-LIGAND FREE ENERGY PREDICTED BY IDOCK:    4.45 KCAL/MOL
REMARK 924 INTRA-LIGAND FREE ENERGY PREDICTED BY IDOCK:   10.72 KCAL/MOL
REMARK 927      BINDING AFFINITY PREDICTED BY RF-SCORE:    0.00 PKD
ROOT
HETATM    1  C   UNL     1      -8.660  15.895  66.675  1.00  0.00    -0.285 C  
HETATM    2  C   UNL     1      -7.368  16.703  66.647  1.00  0.00    -0.290 C  
HETATM    3  C   UNL     1      -7.700  17.915  67.565  1.00  0.00    -0.217 C  
HETATM    4  C   UNL     1      -9.212  17.911  67.743  1.00  0.00    -0.258 C  
HETATM    5  N   UNL     1      -9.684  16.868  66.864  1.00  0.00    -0.250 N  
HETATM    6  C   UNL     1     -10.958  16.418  67.100  1.00  0.00    -0.082 C  
HETATM    7  O   UNL     1     -11.823  17.238  67.390  1.00  0.00     0.983 OA 
HETATM    8  C   UNL     1     -11.190  14.878  66.861  1.00  0.00    -0.343 C  
HETATM    9  C   UNL     1      -9.039  14.573  65.895  1.00  0.00     0.196 C  
HETATM   10  N   UNL     1      -9.901  13.981  66.858  1.00  0.00    -0.259 N  
HETATM   11  C   UNL     1      -9.850  12.688  66.320  1.00  0.00    -0.262 C  
HETATM   12  H   UNL     1      -8.031  13.107  65.241  1.00  0.00     0.000 HD 
HETATM   13  C   UNL     1     -10.309  12.799  64.838  1.00  0.00    -0.309 C  
HETATM   14  O   UNL     1      -9.444  11.720  66.935  1.00  0.00    -0.185 OA 
HETATM   15  O   UNL     1      -7.803  13.902  65.709  1.00  0.00     2.478 OA 
HETATM   16  O   UNL     1      -9.892  14.301  64.740  1.00  0.00    -0.160 OA 
HETATM   17  C   UNL     1     -11.990  10.816  65.736  1.00  0.00     2.309 C  
HETATM   18  C   UNL     1     -13.033  12.518  64.229  1.00  0.00    -0.253 C  
HETATM   19  C   UNL     1     -11.834  12.258  65.145  1.00  0.00    -0.404 C  
ENDROOT
BRANCH   8  20
HETATM   20  C   UNL     1     -12.378  14.458  67.747  1.00  0.00    -0.022 C  
BRANCH  20  21
HETATM   21  C   UNL     1     -12.117  13.093  68.422  1.00  0.00    -0.216 A  
HETATM   22  C   UNL     1     -10.721  11.961  70.045  1.00  0.00     0.784 A  
HETATM   23  C   UNL     1     -12.966  11.210  69.706  1.00  0.00     0.351 A  
HETATM   24  C   UNL     1     -13.135  12.150  68.694  1.00  0.00     3.165 A  
HETATM   25  C   UNL     1     -11.785  11.137  70.415  1.00  0.00    -0.415 A  
HETATM   26  C   UNL     1     -10.881  12.928  69.056  1.00  0.00    -0.188 A  
ENDBRANCH  20  21
ENDBRANCH   8  20
BRANCH  13  27
HETATM   27  N   UNL     1      -9.525  12.030  63.837  1.00  0.00    -0.525 NA 
HETATM   28  H   UNL     1      -9.559  12.220  62.836  1.00  0.00     0.000 HD 
BRANCH  27  29
HETATM   29  C   UNL     1      -8.795  11.097  64.354  1.00  0.00     0.102 C  
HETATM   30  H   UNL     1      -7.033  10.149  64.246  1.00  0.00     0.000 HD 
HETATM   31  O   UNL     1      -7.570  10.834  63.866  1.00  0.00     0.109 OA 
BRANCH  29  32
HETATM   32  C   UNL     1      -9.127  10.138  65.498  1.00  0.00    -0.216 C  
HETATM   33  C   UNL     1      -9.264   8.663  65.126  1.00  0.00     0.115 C  
HETATM   34  N   UNL     1      -9.306   7.849  66.357  1.00  0.00    -0.192 NA 
HETATM   35  C   UNL     1      -8.042   7.857  67.167  1.00  0.00    -0.117 C  
HETATM   36  C   UNL     1      -9.911   6.545  66.156  1.00  0.00     0.127 C  
HETATM   37  C   UNL     1      -7.123   6.583  67.057  1.00  0.00    -0.073 C  
HETATM   38  C   UNL     1      -6.531   6.574  65.698  1.00  0.00    -0.042 A  
HETATM   39  C   UNL     1      -6.482   5.648  64.686  1.00  0.00    -0.041 A  
HETATM   40  N   UNL     1      -6.065   6.310  63.547  1.00  0.00    -0.022 NA 
HETATM   41  C   UNL     1      -5.819   7.641  63.823  1.00  0.00    -0.049 A  
HETATM   42  H   UNL     1      -5.955   5.876  62.630  1.00  0.00     0.000 HD 
HETATM   43  C   UNL     1      -5.518   8.735  63.012  1.00  0.00    -0.069 A  
HETATM   44  C   UNL     1      -5.440   9.992  63.640  1.00  0.00    -0.111 A  
HETATM   45  C   UNL     1      -5.780  10.168  64.987  1.00  0.00    -0.114 A  
HETATM   46  C   UNL     1      -6.263   9.084  65.727  1.00  0.00    -0.056 A  
HETATM   47  C   UNL     1      -7.194   9.194  66.934  1.00  0.00    -0.086 C  
HETATM   48  C   UNL     1      -6.104   7.807  65.162  1.00  0.00    -0.038 A  
HETATM   49  C   UNL     1      -8.231  10.326  66.764  1.00  0.00    -0.124 C  
ENDBRANCH  29  32
ENDBRANCH  27  29
ENDBRANCH  13  27
TORSDOF 5
ENDMDL
MODEL      203
REMARK 921   NORMALIZED FREE ENERGY PREDICTED BY IDOCK:   13.45 KCAL/MOL
REMARK 922        TOTAL FREE ENERGY PREDICTED BY IDOCK:   15.54 KCAL/MOL
REMARK 923 INTER-LIGAND FREE ENERGY PREDICTED BY IDOCK:    1.12 KCAL/MOL
REMARK 924 INTRA-LIGAND FREE ENERGY PREDICTED BY IDOCK:   14.42 KCAL/MOL
REMARK 927      BINDING AFFINITY PREDICTED BY RF-SCORE:    0.00 PKD
ROOT
HETATM    1  C   UNL     1      -7.656  14.002  67.159  1.00  0.00     0.064 C  
HETATM    2  C   UNL     1      -7.612  15.521  67.040  1.00  0.00    -0.228 C  
HETATM    3  C   UNL     1      -6.087  15.827  67.097  1.00  0.00     0.099 C  
HETATM    4  C   UNL     1      -5.418  14.556  67.601  1.00  0.00     0.075 C  
HETATM    5  N   UNL     1      -6.510  13.674  67.939  1.00  0.00    -0.141 N  
HETATM    6  C   UNL     1      -6.187  12.348  68.075  1.00  0.00    -0.082 C  
HETATM    7  O   UNL     1      -5.135  12.057  68.634  1.00  0.00    -0.050 OA 
HETATM    8  C   UNL     1      -7.281  11.328  67.578  1.00  0.00    -0.100 C  
HETATM    9  C   UNL     1      -8.902  13.034  67.243  1.00  0.00    -0.208 C  
HETATM   10  N   UNL     1      -8.353  11.900  66.585  1.00  0.00    -0.155 N  
HETATM   11  C   UNL     1      -9.581  11.280  66.318  1.00  0.00    -0.209 C  
HETATM   12  H   UNL     1     -10.674  13.122  66.572  1.00  0.00     0.000 HD 
HETATM   13  C   UNL     1     -10.302  11.104  67.685  1.00  0.00    -0.192 C  
HETATM   14  O   UNL     1      -9.974  11.022  65.196  1.00  0.00    -0.243 OA 
HETATM   15  O   UNL     1      -9.924  13.704  66.522  1.00  0.00    -0.272 OA 
HETATM   16  O   UNL     1      -9.520  12.289  68.338  1.00  0.00    -0.211 OA 
HETATM   17  C   UNL     1     -10.419   8.531  66.723  1.00  0.00    -0.308 C  
HETATM   18  C   UNL     1      -9.884   8.753  69.156  1.00  0.00    -0.181 C  
HETATM   19  C   UNL     1      -9.901   9.513  67.828  1.00  0.00    -0.196 C  
ENDROOT
BRANCH   8  20
HETATM   20  C   UNL     1      -6.547  10.027  67.203  1.00  0.00    -0.070 C  
BRANCH  20  21
HETATM   21  C   UNL     1      -6.422   9.878  65.670  1.00  0.00    -0.092 A  
HETATM   22  C   UNL     1      -7.577   9.096  63.691  1.00  0.00    -0.113 A  
HETATM   23  C   UNL     1      -6.034  10.914  63.504  1.00  0.00     0.252 A  
HETATM   24  C   UNL     1      -5.717  10.792  64.853  1.00  0.00    -0.014 A  
HETATM   25  C   UNL     1      -6.990  10.105  62.925  1.00  0.00    -0.132 A  
HETATM   26  C   UNL     1      -7.295   8.978  65.049  1.00  0.00    -0.096 A  
ENDBRANCH  20  21
ENDBRANCH   8  20
BRANCH  13  27
HETATM   27  N   UNL     1     -11.753  11.425  67.721  1.00  0.00    -0.590 NA 
HETATM   28  H   UNL     1     -12.468  10.746  67.978  1.00  0.00     0.000 HD 
BRANCH  27  29
HETATM   29  C   UNL     1     -12.023  12.646  67.395  1.00  0.00    -0.242 C  
HETATM   30  H   UNL     1     -13.109  13.814  66.181  1.00  0.00     0.000 HD 
HETATM   31  O   UNL     1     -12.910  12.917  66.421  1.00  0.00    -0.010 OA 
BRANCH  29  32
HETATM   32  C   UNL     1     -11.432  13.944  67.949  1.00  0.00    -0.350 C  
HETATM   33  C   UNL     1     -12.397  14.863  68.694  1.00  0.00     0.058 C  
HETATM   34  N   UNL     1     -11.630  15.913  69.394  1.00  0.00    -0.351 NA 
HETATM   35  C   UNL     1     -10.741  15.420  70.500  1.00  0.00    -0.261 C  
HETATM   36  C   UNL     1     -12.427  17.084  69.708  1.00  0.00     3.915 C  
HETATM   37  C   UNL     1     -11.257  15.637  71.972  1.00  0.00    -0.261 C  
HETATM   38  C   UNL     1     -12.413  14.732  72.179  1.00  0.00    -0.409 A  
HETATM   39  C   UNL     1     -13.704  14.919  72.607  1.00  0.00    -0.450 A  
HETATM   40  N   UNL     1     -14.405  13.767  72.304  1.00  0.00    -0.622 NA 
HETATM   41  C   UNL     1     -13.572  12.835  71.714  1.00  0.00    -0.127 A  
HETATM   42  H   UNL     1     -15.398  13.624  72.490  1.00  0.00     0.000 HD 
HETATM   43  C   UNL     1     -13.812  11.599  71.114  1.00  0.00     1.546 A  
HETATM   44  C   UNL     1     -12.715  10.962  70.506  1.00  0.00    -0.363 A  
HETATM   45  C   UNL     1     -11.468  11.591  70.384  1.00  0.00    -0.069 A  
HETATM   46  C   UNL     1     -11.312  12.908  70.826  1.00  0.00     1.269 A  
HETATM   47  C   UNL     1     -10.292  13.902  70.270  1.00  0.00     1.434 C  
HETATM   48  C   UNL     1     -12.332  13.432  71.638  1.00  0.00    -0.054 A  
HETATM   49  C   UNL     1     -10.102  13.745  68.745  1.00  0.00    -0.141 C  
ENDBRANCH  29  32
ENDBRANCH  27  29
ENDBRANCH  13  27
TORSDOF 5
ENDMDL
MODEL      204
REMARK 921   NORMALIZED FREE ENERGY PREDICTED BY IDOCK:   13.64 KCAL/MOL
REMARK 922        TOTAL FREE ENERGY PREDICTED BY IDOCK:   15.78 KCAL/MOL
REMARK 923 INTER-LIGAND FREE ENERGY PREDICTED BY IDOCK:    2.14 KCAL/MOL
REMARK 924 INTRA-LIGAND FREE ENERGY PREDICTED BY IDOCK:   13.63 KCAL/MOL
REMARK 927      BINDING AFFINITY PREDICTED BY RF-SCORE:    0.00 PKD
ROOT
HETATM    1  C   UNL     1      -7.089  13.758  67.673  1.00  0.00    -0.176 C  
HETATM    2  C   UNL     1      -6.705  15.194  67.337  1.00  0.00    -0.134 C  
HETATM    3  C   UNL     1      -5.303  15.340  67.995  1.00  0.00    -0.133 C  
HETATM    4  C   UNL     1      -5.153  14.154  68.940  1.00  0.00    -0.080 C  
HETATM    5  N   UNL     1      -6.438  13.497  68.913  1.00  0.00    -0.096 N  
HETATM    6  C   UNL     1      -6.461  12.211  69.390  1.00  0.00    -0.110 C  
HETATM    7  O   UNL     1      -5.800  11.946  70.388  1.00  0.00    -0.153 OA 
HETATM    8  C   UNL     1      -7.442  11.228  68.645  1.00  0.00    -0.118 C  
HETATM    9  C   UNL     1      -8.428  12.975  67.368  1.00  0.00    -0.200 C  
HETATM   10  N   UNL     1      -7.894  11.667  67.207  1.00  0.00    -0.149 N  
HETATM   11  C   UNL     1      -9.009  11.138  66.542  1.00  0.00    -0.178 C  
HETATM   12  H   UNL     1      -9.729  13.096  65.995  1.00  0.00     0.000 HD 
HETATM   13  C   UNL     1     -10.235  11.362  67.473  1.00  0.00    -0.185 C  
HETATM   14  O   UNL     1      -8.963  10.672  65.419  1.00  0.00    -0.177 OA 
HETATM   15  O   UNL     1      -8.924  13.567  66.178  1.00  0.00     0.026 OA 
HETATM   16  O   UNL     1      -9.564  12.574  68.195  1.00  0.00    -0.206 OA 
HETATM   17  C   UNL     1     -10.457   8.664  66.991  1.00  0.00    -0.354 C  
HETATM   18  C   UNL     1     -10.907   9.383  69.344  1.00  0.00    -0.208 C  
HETATM   19  C   UNL     1     -10.243   9.813  68.033  1.00  0.00    -0.229 C  
ENDROOT
BRANCH   8  20
HETATM   20  C   UNL     1      -6.889   9.804  68.842  1.00  0.00    -0.054 C  
BRANCH  20  21
HETATM   21  C   UNL     1      -7.775   8.990  69.812  1.00  0.00    -0.077 A  
HETATM   22  C   UNL     1      -7.806   7.041  71.247  1.00  0.00    -0.099 A  
HETATM   23  C   UNL     1      -9.163   8.929  71.808  1.00  0.00    -0.279 A  
HETATM   24  C   UNL     1      -8.761   9.572  70.642  1.00  0.00    -0.189 A  
HETATM   25  C   UNL     1      -8.660   7.688  72.142  1.00  0.00    -0.148 A  
HETATM   26  C   UNL     1      -7.369   7.681  70.091  1.00  0.00    -0.076 A  
ENDBRANCH  20  21
ENDBRANCH   8  20
BRANCH  13  27
HETATM   27  N   UNL     1     -11.486  11.837  66.826  1.00  0.00    -0.476 NA 
HETATM   28  H   UNL     1     -12.006  11.284  66.145  1.00  0.00     0.000 HD 
BRANCH  27  29
HETATM   29  C   UNL     1     -11.853  13.015  67.207  1.00  0.00    -0.363 C  
HETATM   30  H   UNL     1     -13.406  14.272  67.374  1.00  0.00     0.000 HD 
HETATM   31  O   UNL     1     -13.135  13.405  67.094  1.00  0.00     0.828 OA 
BRANCH  29  32
HETATM   32  C   UNL     1     -11.003  14.150  67.780  1.00  0.00    -0.274 C  
HETATM   33  C   UNL     1     -11.764  15.343  68.356  1.00  0.00    -0.316 C  
HETATM   34  N   UNL     1     -10.830  16.204  69.106  1.00  0.00    -0.276 NA 
HETATM   35  C   UNL     1     -10.239  15.579  70.338  1.00  0.00    -0.012 C  
HETATM   36  C   UNL     1     -11.314  17.563  69.266  1.00  0.00     1.285 C  
HETATM   37  C   UNL     1     -10.843  16.031  71.720  1.00  0.00     0.659 C  
HETATM   38  C   UNL     1     -12.215  15.478  71.811  1.00  0.00    -0.467 A  
HETATM   39  C   UNL     1     -13.449  16.026  72.059  1.00  0.00    -0.005 A  
HETATM   40  N   UNL     1     -14.394  15.078  71.714  1.00  0.00    -0.528 NA 
HETATM   41  C   UNL     1     -13.780  13.920  71.276  1.00  0.00    -0.098 A  
HETATM   42  H   UNL     1     -15.403  15.214  71.775  1.00  0.00     0.000 HD 
HETATM   43  C   UNL     1     -14.272  12.749  70.700  1.00  0.00     3.761 A  
HETATM   44  C   UNL     1     -13.324  11.804  70.267  1.00  0.00     1.179 A  
HETATM   45  C   UNL     1     -11.949  12.075  70.283  1.00  0.00    -0.398 A  
HETATM   46  C   UNL     1     -11.496  13.334  70.688  1.00  0.00     0.502 A  
HETATM   47  C   UNL     1     -10.190  13.984  70.230  1.00  0.00     1.431 C  
HETATM   48  C   UNL     1     -12.424  14.165  71.339  1.00  0.00    -0.438 A  
HETATM   49  C   UNL     1      -9.876  13.670  68.751  1.00  0.00    -0.069 C  
ENDBRANCH  29  32
ENDBRANCH  27  29
ENDBRANCH  13  27
TORSDOF 5
ENDMDL
MODEL      205
REMARK 921   NORMALIZED FREE ENERGY PREDICTED BY IDOCK:   15.91 KCAL/MOL
REMARK 922        TOTAL FREE ENERGY PREDICTED BY IDOCK:   18.71 KCAL/MOL
REMARK 923 INTER-LIGAND FREE ENERGY PREDICTED BY IDOCK:    7.99 KCAL/MOL
REMARK 924 INTRA-LIGAND FREE ENERGY PREDICTED BY IDOCK:   10.72 KCAL/MOL
REMARK 927      BINDING AFFINITY PREDICTED BY RF-SCORE:    0.00 PKD
ROOT
HETATM    1  C   UNL     1      -9.295   5.803  64.849  1.00  0.00     0.512 C  
HETATM    2  C   UNL     1      -9.837   6.391  63.551  1.00  0.00     3.745 C  
HETATM    3  C   UNL     1     -10.516   5.165  62.874  1.00  0.00     1.423 C  
HETATM    4  C   UNL     1     -10.011   3.936  63.619  1.00  0.00    -0.174 C  
HETATM    5  N   UNL     1      -9.014   4.442  64.532  1.00  0.00    -0.147 N  
HETATM    6  C   UNL     1      -8.667   3.605  65.561  1.00  0.00    -0.119 C  
HETATM    7  O   UNL     1      -8.547   2.408  65.325  1.00  0.00    -0.100 OA 
HETATM    8  C   UNL     1      -8.351   4.310  66.935  1.00  0.00    -0.101 C  
HETATM    9  C   UNL     1      -8.429   6.487  65.980  1.00  0.00    -0.145 C  
HETATM   10  N   UNL     1      -8.915   5.766  67.105  1.00  0.00    -0.113 N  
HETATM   11  C   UNL     1      -8.455   6.674  68.067  1.00  0.00    -0.116 C  
HETATM   12  H   UNL     1      -8.285   8.265  66.621  1.00  0.00     0.000 HD 
HETATM   13  C   UNL     1      -6.922   6.822  67.850  1.00  0.00    -0.083 C  
HETATM   14  O   UNL     1      -9.186   7.254  68.848  1.00  0.00    -0.142 OA 
HETATM   15  O   UNL     1      -8.805   7.854  65.940  1.00  0.00    -0.163 OA 
HETATM   16  O   UNL     1      -7.017   6.406  66.347  1.00  0.00    -0.063 OA 
HETATM   17  C   UNL     1      -6.991   6.213  70.530  1.00  0.00    -0.063 C  
HETATM   18  C   UNL     1      -5.178   5.101  69.215  1.00  0.00     0.000 C  
HETATM   19  C   UNL     1      -6.527   5.812  69.089  1.00  0.00    -0.046 C  
ENDROOT
BRANCH   8  20
HETATM   20  C   UNL     1      -8.624   3.279  68.045  1.00  0.00    -0.118 C  
BRANCH  20  21
HETATM   21  C   UNL     1      -9.677   3.803  69.048  1.00  0.00    -0.094 A  
HETATM   22  C   UNL     1     -10.964   3.202  71.008  1.00  0.00     2.737 A  
HETATM   23  C   UNL     1     -10.351   5.489  70.665  1.00  0.00    -0.332 A  
HETATM   24  C   UNL     1      -9.767   5.156  69.447  1.00  0.00    -0.248 A  
HETATM   25  C   UNL     1     -10.911   4.518  71.471  1.00  0.00     0.323 A  
HETATM   26  C   UNL     1     -10.358   2.845  69.807  1.00  0.00     1.683 A  
ENDBRANCH  20  21
ENDBRANCH   8  20
BRANCH  13  27
HETATM   27  N   UNL     1      -6.368   8.200  67.919  1.00  0.00    -0.051 NA 
HETATM   28  H   UNL     1      -5.369   8.402  67.884  1.00  0.00     0.000 HD 
BRANCH  27  29
HETATM   29  C   UNL     1      -7.270   9.118  68.027  1.00  0.00    -0.079 C  
HETATM   30  H   UNL     1      -7.922  10.649  69.145  1.00  0.00     0.000 HD 
HETATM   31  O   UNL     1      -7.259   9.974  69.065  1.00  0.00    -0.068 OA 
BRANCH  29  32
HETATM   32  C   UNL     1      -8.470   9.400  67.121  1.00  0.00    -0.128 C  
HETATM   33  C   UNL     1      -9.675  10.067  67.782  1.00  0.00    -0.150 C  
HETATM   34  N   UNL     1     -10.617  10.518  66.739  1.00  0.00    -0.241 NA 
HETATM   35  C   UNL     1     -10.101  11.607  65.843  1.00  0.00    -0.230 C  
HETATM   36  C   UNL     1     -11.968  10.706  67.237  1.00  0.00     1.507 C  
HETATM   37  C   UNL     1     -10.630  13.064  66.124  1.00  0.00    -0.289 C  
HETATM   38  C   UNL     1     -10.040  13.515  67.407  1.00  0.00    -0.237 A  
HETATM   39  C   UNL     1     -10.564  14.018  68.572  1.00  0.00    -0.254 A  
HETATM   40  N   UNL     1      -9.564  13.968  69.524  1.00  0.00    -0.079 NA 
HETATM   41  C   UNL     1      -8.399  13.467  68.976  1.00  0.00     0.314 A  
HETATM   42  H   UNL     1      -9.671  14.261  70.496  1.00  0.00     0.000 HD 
HETATM   43  C   UNL     1      -7.174  13.099  69.533  1.00  0.00     0.356 A  
HETATM   44  C   UNL     1      -6.232  12.510  68.669  1.00  0.00    -0.069 A  
HETATM   45  C   UNL     1      -6.548  12.178  67.345  1.00  0.00    -0.147 A  
HETATM   46  C   UNL     1      -7.847  12.386  66.871  1.00  0.00    -0.014 A  
HETATM   47  C   UNL     1      -8.505  11.589  65.744  1.00  0.00     0.130 C  
HETATM   48  C   UNL     1      -8.691  13.188  67.658  1.00  0.00    -0.192 A  
HETATM   49  C   UNL     1      -8.097  10.099  65.775  1.00  0.00    -0.142 C  
ENDBRANCH  29  32
ENDBRANCH  27  29
ENDBRANCH  13  27
TORSDOF 5
ENDMDL
MODEL      206
REMARK 921   NORMALIZED FREE ENERGY PREDICTED BY IDOCK:   17.90 KCAL/MOL
REMARK 922        TOTAL FREE ENERGY PREDICTED BY IDOCK:   21.28 KCAL/MOL
REMARK 923 INTER-LIGAND FREE ENERGY PREDICTED BY IDOCK:    7.67 KCAL/MOL
REMARK 924 INTRA-LIGAND FREE ENERGY PREDICTED BY IDOCK:   13.62 KCAL/MOL
REMARK 927      BINDING AFFINITY PREDICTED BY RF-SCORE:    0.00 PKD
ROOT
HETATM    1  C   UNL     1      -9.815   9.646  68.995  1.00  0.00    -0.182 C  
HETATM    2  C   UNL     1      -9.523   8.630  70.092  1.00  0.00    -0.172 C  
HETATM    3  C   UNL     1      -9.768   9.447  71.393  1.00  0.00    -0.126 C  
HETATM    4  C   UNL     1      -9.815  10.910  70.974  1.00  0.00     3.852 C  
HETATM    5  N   UNL     1      -9.468  10.902  69.572  1.00  0.00     0.064 N  
HETATM    6  C   UNL     1      -9.785  12.038  68.872  1.00  0.00     0.088 C  
HETATM    7  O   UNL     1      -9.609  13.125  69.410  1.00  0.00     0.619 OA 
HETATM    8  C   UNL     1     -10.251  11.811  67.383  1.00  0.00    -0.199 C  
HETATM    9  C   UNL     1      -9.690   9.500  67.426  1.00  0.00    -0.157 C  
HETATM   10  N   UNL     1     -10.748  10.363  67.032  1.00  0.00    -0.256 N  
HETATM   11  C   UNL     1     -10.857   9.870  65.725  1.00  0.00     0.623 C  
HETATM   12  H   UNL     1      -9.844   8.035  66.233  1.00  0.00     0.000 HD 
HETATM   13  C   UNL     1      -9.454  10.021  65.069  1.00  0.00    -0.277 C  
HETATM   14  O   UNL     1     -11.871   9.367  65.279  1.00  0.00     5.870 OA 
HETATM   15  O   UNL     1      -9.919   8.123  67.176  1.00  0.00    -0.188 OA 
HETATM   16  O   UNL     1      -8.721   9.993  66.449  1.00  0.00    -0.128 OA 
HETATM   17  C   UNL     1     -11.022  11.284  63.196  1.00  0.00    -0.037 C  
HETATM   18  C   UNL     1      -8.836  12.390  63.701  1.00  0.00     1.833 C  
HETATM   19  C   UNL     1      -9.857  11.385  64.239  1.00  0.00    -0.301 C  
ENDROOT
BRANCH   8  20
HETATM   20  C   UNL     1     -11.138  13.009  67.000  1.00  0.00    -0.311 C  
BRANCH  20  21
HETATM   21  C   UNL     1     -10.899  14.206  67.948  1.00  0.00    -0.253 A  
HETATM   22  C   UNL     1      -9.491  16.140  68.322  1.00  0.00    -0.208 A  
HETATM   23  C   UNL     1     -11.768  16.190  69.054  1.00  0.00    -0.254 A  
HETATM   24  C   UNL     1     -11.937  14.873  68.638  1.00  0.00    -0.276 A  
HETATM   25  C   UNL     1     -10.568  16.845  68.861  1.00  0.00    -0.353 A  
HETATM   26  C   UNL     1      -9.650  14.832  67.872  1.00  0.00    -0.210 A  
ENDBRANCH  20  21
ENDBRANCH   8  20
BRANCH  13  27
HETATM   27  N   UNL     1      -8.970   8.873  64.259  1.00  0.00    -0.418 NA 
HETATM   28  H   UNL     1      -9.123   8.796  63.254  1.00  0.00     0.000 HD 
BRANCH  27  29
HETATM   29  C   UNL     1      -8.337   7.981  64.947  1.00  0.00    -0.099 C  
HETATM   30  H   UNL     1      -7.566   6.131  64.914  1.00  0.00     0.000 HD 
HETATM   31  O   UNL     1      -8.032   6.787  64.409  1.00  0.00    -0.119 OA 
BRANCH  29  32
HETATM   32  C   UNL     1      -7.866   8.043  66.401  1.00  0.00    -0.097 C  
HETATM   33  C   UNL     1      -8.164   6.817  67.262  1.00  0.00    -0.121 C  
HETATM   34  N   UNL     1      -7.415   6.915  68.530  1.00  0.00    -0.093 NA 
HETATM   35  C   UNL     1      -5.921   6.851  68.392  1.00  0.00    -0.025 C  
HETATM   36  C   UNL     1      -7.980   6.097  69.588  1.00  0.00    -0.107 C  
HETATM   37  C   UNL     1      -5.233   5.487  68.771  1.00  0.00     0.000 C  
HETATM   38  C   UNL     1      -5.607   4.494  67.735  1.00  0.00    -0.017 A  
HETATM   39  C   UNL     1      -6.169   3.242  67.774  1.00  0.00    -0.032 A  
HETATM   40  N   UNL     1      -6.562   2.931  66.487  1.00  0.00    -0.036 NA 
HETATM   41  C   UNL     1      -6.233   3.955  65.619  1.00  0.00    -0.031 A  
HETATM   42  H   UNL     1      -7.030   2.066  66.214  1.00  0.00     0.000 HD 
HETATM   43  C   UNL     1      -6.527   4.187  64.276  1.00  0.00    -0.042 A  
HETATM   44  C   UNL     1      -6.111   5.418  63.736  1.00  0.00    -0.022 A  
HETATM   45  C   UNL     1      -5.551   6.425  64.533  1.00  0.00    -0.025 A  
HETATM   46  C   UNL     1      -5.445   6.235  65.915  1.00  0.00    -0.014 A  
HETATM   47  C   UNL     1      -5.434   7.356  66.954  1.00  0.00    -0.023 C  
HETATM   48  C   UNL     1      -5.635   4.927  66.393  1.00  0.00    -0.017 A  
HETATM   49  C   UNL     1      -6.385   8.511  66.568  1.00  0.00    -0.058 C  
ENDBRANCH  29  32
ENDBRANCH  27  29
ENDBRANCH  13  27
TORSDOF 5
ENDMDL
MODEL      207
REMARK 921   NORMALIZED FREE ENERGY PREDICTED BY IDOCK:   18.20 KCAL/MOL
REMARK 922        TOTAL FREE ENERGY PREDICTED BY IDOCK:   21.67 KCAL/MOL
REMARK 923 INTER-LIGAND FREE ENERGY PREDICTED BY IDOCK:   19.80 KCAL/MOL
REMARK 924 INTRA-LIGAND FREE ENERGY PREDICTED BY IDOCK:    1.87 KCAL/MOL
REMARK 927      BINDING AFFINITY PREDICTED BY RF-SCORE:    0.00 PKD
ROOT
HETATM    1  C   UNL     1      -8.529   9.533  65.204  1.00  0.00    -0.149 C  
HETATM    2  C   UNL     1      -8.139  10.015  63.812  1.00  0.00    -0.158 C  
HETATM    3  C   UNL     1      -7.167   8.903  63.322  1.00  0.00    -0.093 C  
HETATM    4  C   UNL     1      -6.792   8.093  64.555  1.00  0.00    -0.068 C  
HETATM    5  N   UNL     1      -7.392   8.803  65.659  1.00  0.00    -0.084 N  
HETATM    6  C   UNL     1      -7.511   8.099  66.829  1.00  0.00    -0.090 C  
HETATM    7  O   UNL     1      -6.587   7.366  67.167  1.00  0.00    -0.057 OA 
HETATM    8  C   UNL     1      -8.806   8.400  67.677  1.00  0.00    -0.136 C  
HETATM    9  C   UNL     1      -9.438  10.228  66.294  1.00  0.00    -0.177 C  
HETATM   10  N   UNL     1      -9.995   9.069  66.899  1.00  0.00    -0.222 N  
HETATM   11  C   UNL     1     -11.062   9.730  67.522  1.00  0.00    -0.018 C  
HETATM   12  H   UNL     1     -10.904  11.427  66.201  1.00  0.00     0.000 HD 
HETATM   13  C   UNL     1     -10.442  10.843  68.414  1.00  0.00    -0.183 C  
HETATM   14  O   UNL     1     -12.231   9.473  67.303  1.00  0.00     3.324 OA 
HETATM   15  O   UNL     1     -10.357  11.009  65.546  1.00  0.00    -0.255 OA 
HETATM   16  O   UNL     1      -9.147  10.927  67.544  1.00  0.00    -0.140 OA 
HETATM   17  C   UNL     1     -12.035   9.559  70.251  1.00  0.00    -0.040 C  
HETATM   18  C   UNL     1      -9.776  10.249  71.073  1.00  0.00     1.515 C  
HETATM   19  C   UNL     1     -10.593   9.978  69.807  1.00  0.00    -0.301 C  
ENDROOT
BRANCH   8  20
HETATM   20  C   UNL     1      -9.090   7.148  68.527  1.00  0.00    -0.132 C  
BRANCH  20  21
HETATM   21  C   UNL     1      -7.814   6.664  69.252  1.00  0.00    -0.110 A  
HETATM   22  C   UNL     1      -6.768   6.472  71.427  1.00  0.00    -0.058 A  
HETATM   23  C   UNL     1      -6.250   4.865  69.732  1.00  0.00    -0.026 A  
HETATM   24  C   UNL     1      -7.048   5.555  68.825  1.00  0.00    -0.065 A  
HETATM   25  C   UNL     1      -6.138   5.287  71.042  1.00  0.00    -0.022 A  
HETATM   26  C   UNL     1      -7.596   7.158  70.543  1.00  0.00    -0.089 A  
ENDBRANCH  20  21
ENDBRANCH   8  20
BRANCH  13  27
HETATM   27  N   UNL     1     -11.111  12.171  68.385  1.00  0.00    -0.227 NA 
HETATM   28  H   UNL     1     -11.405  12.628  67.523  1.00  0.00     0.000 HD 
BRANCH  27  29
HETATM   29  C   UNL     1     -11.285  12.690  69.555  1.00  0.00    -0.082 C  
HETATM   30  H   UNL     1     -10.373  13.580  71.102  1.00  0.00     0.000 HD 
HETATM   31  O   UNL     1     -10.246  13.198  70.242  1.00  0.00     1.959 OA 
BRANCH  29  32
HETATM   32  C   UNL     1     -12.570  12.805  70.376  1.00  0.00    -0.126 C  
HETATM   33  C   UNL     1     -12.397  13.072  71.870  1.00  0.00     0.415 C  
HETATM   34  N   UNL     1     -13.704  13.428  72.458  1.00  0.00    -0.698 NA 
HETATM   35  C   UNL     1     -14.289  14.722  71.969  1.00  0.00    -0.554 C  
HETATM   36  C   UNL     1     -13.755  13.223  73.894  1.00  0.00     6.354 C  
HETATM   37  C   UNL     1     -14.176  15.960  72.936  1.00  0.00    -0.081 C  
HETATM   38  C   UNL     1     -12.748  16.355  72.993  1.00  0.00    -0.285 A  
HETATM   39  C   UNL     1     -11.854  16.553  74.017  1.00  0.00     0.008 A  
HETATM   40  N   UNL     1     -10.594  16.608  73.453  1.00  0.00     4.489 NA 
HETATM   41  C   UNL     1     -10.672  16.477  72.080  1.00  0.00     2.182 A  
HETATM   42  H   UNL     1      -9.727  16.730  73.978  1.00  0.00     0.000 HD 
HETATM   43  C   UNL     1      -9.702  16.333  71.088  1.00  0.00     3.086 A  
HETATM   44  C   UNL     1     -10.160  16.108  69.777  1.00  0.00    -0.162 A  
HETATM   45  C   UNL     1     -11.516  15.899  69.492  1.00  0.00    -0.342 A  
HETATM   46  C   UNL     1     -12.444  15.859  70.537  1.00  0.00    -0.241 A  
HETATM   47  C   UNL     1     -13.768  15.094  70.503  1.00  0.00     0.073 C  
HETATM   48  C   UNL     1     -12.011  16.322  71.791  1.00  0.00    -0.473 A  
HETATM   49  C   UNL     1     -13.642  13.753  69.747  1.00  0.00     2.343 C  
ENDBRANCH  29  32
ENDBRANCH  27  29
ENDBRANCH  13  27
TORSDOF 5
ENDMDL
MODEL      208
REMARK 921   NORMALIZED FREE ENERGY PREDICTED BY IDOCK:   18.50 KCAL/MOL
REMARK 922        TOTAL FREE ENERGY PREDICTED BY IDOCK:   22.06 KCAL/MOL
REMARK 923 INTER-LIGAND FREE ENERGY PREDICTED BY IDOCK:   17.79 KCAL/MOL
REMARK 924 INTRA-LIGAND FREE ENERGY PREDICTED BY IDOCK:    4.27 KCAL/MOL
REMARK 927      BINDING AFFINITY PREDICTED BY RF-SCORE:    0.00 PKD
ROOT
HETATM    1  C   UNL     1      -7.449  16.379  71.171  1.00  0.00     4.556 C  
HETATM    2  C   UNL     1      -7.007  15.285  72.136  1.00  0.00     3.195 C  
HETATM    3  C   UNL     1      -6.032  16.037  73.087  1.00  0.00     2.521 C  
HETATM    4  C   UNL     1      -5.708  17.359  72.404  1.00  0.00     2.023 C  
HETATM    5  N   UNL     1      -6.337  17.267  71.107  1.00  0.00     1.716 N  
HETATM    6  C   UNL     1      -6.502  18.453  70.439  1.00  0.00     0.540 C  
HETATM    7  O   UNL     1      -5.599  19.280  70.484  1.00  0.00    -0.223 OA 
HETATM    8  C   UNL     1      -7.821  18.573  69.584  1.00  0.00     0.609 C  
HETATM    9  C   UNL     1      -8.387  16.286  69.902  1.00  0.00     0.814 C  
HETATM   10  N   UNL     1      -8.976  17.578  69.959  1.00  0.00     1.666 N  
HETATM   11  C   UNL     1     -10.056  17.281  69.118  1.00  0.00    -0.252 C  
HETATM   12  H   UNL     1      -9.835  15.158  69.427  1.00  0.00     0.000 HD 
HETATM   13  C   UNL     1      -9.454  16.766  67.779  1.00  0.00    -0.228 C  
HETATM   14  O   UNL     1     -11.220  17.366  69.462  1.00  0.00     0.484 OA 
HETATM   15  O   UNL     1      -9.271  15.214  70.190  1.00  0.00     0.080 OA 
HETATM   16  O   UNL     1      -8.130  16.300  68.464  1.00  0.00    -0.174 OA 
HETATM   17  C   UNL     1     -11.122  18.746  66.850  1.00  0.00     0.055 C  
HETATM   18  C   UNL     1      -8.885  18.608  65.742  1.00  0.00     0.438 C  
HETATM   19  C   UNL     1      -9.661  18.201  66.996  1.00  0.00    -0.307 C  
ENDROOT
BRANCH   8  20
HETATM   20  C   UNL     1      -8.148  20.073  69.467  1.00  0.00     0.438 C  
BRANCH  20  21
HETATM   21  C   UNL     1      -7.592  20.666  68.153  1.00  0.00     0.020 A  
HETATM   22  C   UNL     1      -5.551  21.296  67.014  1.00  0.00    -0.355 A  
HETATM   23  C   UNL     1      -7.429  20.560  65.729  1.00  0.00    -0.038 A  
HETATM   24  C   UNL     1      -8.189  20.455  66.889  1.00  0.00    -0.314 A  
HETATM   25  C   UNL     1      -6.102  20.935  65.783  1.00  0.00    -0.281 A  
HETATM   26  C   UNL     1      -6.286  21.167  68.188  1.00  0.00    -0.240 A  
ENDBRANCH  20  21
ENDBRANCH   8  20
BRANCH  13  27
HETATM   27  N   UNL     1     -10.107  15.579  67.166  1.00  0.00    -0.250 NA 
HETATM   28  H   UNL     1     -10.979  15.182  67.513  1.00  0.00     0.000 HD 
BRANCH  27  29
HETATM   29  C   UNL     1      -9.466  15.099  66.153  1.00  0.00    -0.319 C  
HETATM   30  H   UNL     1      -7.658  14.868  65.319  1.00  0.00     0.000 HD 
HETATM   31  O   UNL     1      -8.130  15.221  66.065  1.00  0.00     0.497 OA 
BRANCH  29  32
HETATM   32  C   UNL     1     -10.016  14.388  64.915  1.00  0.00    -0.124 C  
HETATM   33  C   UNL     1      -9.374  13.047  64.563  1.00  0.00     0.940 C  
HETATM   34  N   UNL     1     -10.187  12.371  63.533  1.00  0.00    -0.386 NA 
HETATM   35  C   UNL     1     -11.562  11.960  63.977  1.00  0.00    -0.389 C  
HETATM   36  C   UNL     1      -9.445  11.369  62.792  1.00  0.00    -0.281 C  
HETATM   37  C   UNL     1     -11.772  10.435  64.307  1.00  0.00     3.413 C  
HETATM   38  C   UNL     1     -11.025  10.139  65.553  1.00  0.00     0.692 A  
HETATM   39  C   UNL     1     -10.078   9.207  65.898  1.00  0.00    -0.048 A  
HETATM   40  N   UNL     1      -9.527   9.611  67.099  1.00  0.00    -0.145 NA 
HETATM   41  C   UNL     1     -10.129  10.773  67.542  1.00  0.00    -0.186 A  
HETATM   42  H   UNL     1      -8.780   9.119  67.590  1.00  0.00     0.000 HD 
HETATM   43  C   UNL     1      -9.851  11.637  68.600  1.00  0.00    -0.173 A  
HETATM   44  C   UNL     1     -10.623  12.810  68.685  1.00  0.00    -0.256 A  
HETATM   45  C   UNL     1     -11.536  13.170  67.684  1.00  0.00    -0.366 A  
HETATM   46  C   UNL     1     -11.654  12.377  66.538  1.00  0.00    -0.447 A  
HETATM   47  C   UNL     1     -12.103  12.882  65.167  1.00  0.00    -0.489 C  
HETATM   48  C   UNL     1     -11.064  11.102  66.583  1.00  0.00    -0.255 A  
HETATM   49  C   UNL     1     -11.576  14.304  64.873  1.00  0.00    -0.384 C  
ENDBRANCH  29  32
ENDBRANCH  27  29
ENDBRANCH  13  27
TORSDOF 5
ENDMDL
MODEL      209
REMARK 921   NORMALIZED FREE ENERGY PREDICTED BY IDOCK:   20.53 KCAL/MOL
REMARK 922        TOTAL FREE ENERGY PREDICTED BY IDOCK:   24.68 KCAL/MOL
REMARK 923 INTER-LIGAND FREE ENERGY PREDICTED BY IDOCK:   19.07 KCAL/MOL
REMARK 924 INTRA-LIGAND FREE ENERGY PREDICTED BY IDOCK:    5.62 KCAL/MOL
REMARK 927      BINDING AFFINITY PREDICTED BY RF-SCORE:    0.00 PKD
ROOT
HETATM    1  C   UNL     1      -6.901  10.808  68.948  1.00  0.00    -0.069 C  
HETATM    2  C   UNL     1      -5.962  10.080  69.903  1.00  0.00    -0.048 C  
HETATM    3  C   UNL     1      -6.694   8.728  70.144  1.00  0.00    -0.040 C  
HETATM    4  C   UNL     1      -8.116   8.919  69.633  1.00  0.00    -0.104 C  
HETATM    5  N   UNL     1      -8.197  10.317  69.282  1.00  0.00    -0.150 N  
HETATM    6  C   UNL     1      -9.243  10.669  68.469  1.00  0.00    -0.170 C  
HETATM    7  O   UNL     1     -10.338  10.153  68.668  1.00  0.00    -0.171 OA 
HETATM    8  C   UNL     1      -8.935  11.801  67.416  1.00  0.00    -0.173 C  
HETATM    9  C   UNL     1      -6.801  12.269  68.354  1.00  0.00    -0.075 C  
HETATM   10  N   UNL     1      -7.417  12.044  67.093  1.00  0.00    -0.148 N  
HETATM   11  C   UNL     1      -6.925  13.206  66.484  1.00  0.00     1.831 C  
HETATM   12  H   UNL     1      -5.349  13.415  67.941  1.00  0.00     0.000 HD 
HETATM   13  C   UNL     1      -7.382  14.404  67.363  1.00  0.00    -0.142 C  
HETATM   14  O   UNL     1      -6.218  13.196  65.493  1.00  0.00     5.625 OA 
HETATM   15  O   UNL     1      -5.409  12.536  68.298  1.00  0.00    -0.054 OA 
HETATM   16  O   UNL     1      -7.501  13.518  68.645  1.00  0.00    -0.114 OA 
HETATM   17  C   UNL     1      -8.294  15.215  64.899  1.00  0.00     6.013 C  
HETATM   18  C   UNL     1      -9.842  15.637  66.817  1.00  0.00    -0.255 C  
HETATM   19  C   UNL     1      -8.635  14.808  66.372  1.00  0.00     0.042 C  
ENDROOT
BRANCH   8  20
HETATM   20  C   UNL     1      -9.916  11.607  66.245  1.00  0.00    -0.247 C  
BRANCH  20  21
HETATM   21  C   UNL     1     -11.291  12.240  66.558  1.00  0.00    -0.403 A  
HETATM   22  C   UNL     1     -12.405  13.887  67.940  1.00  0.00    -0.016 A  
HETATM   23  C   UNL     1     -13.276  13.400  65.766  1.00  0.00     0.499 A  
HETATM   24  C   UNL     1     -12.305  12.419  65.590  1.00  0.00    -0.182 A  
HETATM   25  C   UNL     1     -13.308  14.167  66.913  1.00  0.00     2.952 A  
HETATM   26  C   UNL     1     -11.407  12.931  67.769  1.00  0.00    -0.343 A  
ENDBRANCH  20  21
ENDBRANCH   8  20
BRANCH  13  27
HETATM   27  N   UNL     1      -6.375  15.466  67.621  1.00  0.00    -0.167 NA 
HETATM   28  H   UNL     1      -5.901  15.580  68.516  1.00  0.00     0.000 HD 
BRANCH  27  29
HETATM   29  C   UNL     1      -6.155  16.232  66.603  1.00  0.00     0.412 C  
HETATM   30  H   UNL     1      -5.033  16.492  64.963  1.00  0.00     0.000 HD 
HETATM   31  O   UNL     1      -5.194  15.930  65.712  1.00  0.00     2.447 OA 
BRANCH  29  32
HETATM   32  C   UNL     1      -6.833  17.550  66.226  1.00  0.00    -0.323 C  
HETATM   33  C   UNL     1      -8.359  17.561  66.262  1.00  0.00    -0.224 C  
HETATM   34  N   UNL     1      -8.841  18.952  66.150  1.00  0.00    -0.466 NA 
HETATM   35  C   UNL     1      -8.489  19.842  67.307  1.00  0.00    -0.317 C  
HETATM   36  C   UNL     1     -10.215  19.041  65.688  1.00  0.00     0.004 C  
HETATM   37  C   UNL     1      -9.638  20.147  68.340  1.00  0.00    -0.258 C  
HETATM   38  C   UNL     1      -9.916  18.895  69.083  1.00  0.00    -0.273 A  
HETATM   39  C   UNL     1     -11.053  18.165  69.328  1.00  0.00     1.560 A  
HETATM   40  N   UNL     1     -10.651  16.935  69.814  1.00  0.00    -0.250 NA 
HETATM   41  C   UNL     1      -9.274  16.879  69.911  1.00  0.00     1.106 A  
HETATM   42  H   UNL     1     -11.283  16.175  70.067  1.00  0.00     0.000 HD 
HETATM   43  C   UNL     1      -8.389  15.843  70.206  1.00  0.00     1.297 A  
HETATM   44  C   UNL     1      -7.015  16.129  70.102  1.00  0.00     0.507 A  
HETATM   45  C   UNL     1      -6.550  17.349  69.594  1.00  0.00    -0.100 A  
HETATM   46  C   UNL     1      -7.464  18.298  69.126  1.00  0.00    -0.112 A  
HETATM   47  C   UNL     1      -7.165  19.348  68.056  1.00  0.00    -0.308 C  
HETATM   48  C   UNL     1      -8.815  18.098  69.459  1.00  0.00     0.662 A  
HETATM   49  C   UNL     1      -6.235  18.799  66.951  1.00  0.00    -0.191 C  
ENDBRANCH  29  32
ENDBRANCH  27  29
ENDBRANCH  13  27
TORSDOF 5
ENDMDL
MODEL      210
REMARK 921   NORMALIZED FREE ENERGY PREDICTED BY IDOCK:   22.19 KCAL/MOL
REMARK 922        TOTAL FREE ENERGY PREDICTED BY IDOCK:   26.83 KCAL/MOL
REMARK 923 INTER-LIGAND FREE ENERGY PREDICTED BY IDOCK:    2.41 KCAL/MOL
REMARK 924 INTRA-LIGAND FREE ENERGY PREDICTED BY IDOCK:   24.42 KCAL/MOL
REMARK 927      BINDING AFFINITY PREDICTED BY RF-SCORE:    0.00 PKD
ROOT
HETATM    1  C   UNL     1      -9.311   8.190  65.734  1.00  0.00     0.017 C  
HETATM    2  C   UNL     1      -9.230   9.172  64.571  1.00  0.00     0.038 C  
HETATM    3  C   UNL     1      -9.250   8.236  63.328  1.00  0.00     1.442 C  
HETATM    4  C   UNL     1      -8.974   6.832  63.849  1.00  0.00     1.169 C  
HETATM    5  N   UNL     1      -8.673   7.011  65.250  1.00  0.00     0.011 N  
HETATM    6  C   UNL     1      -8.742   5.883  66.025  1.00  0.00    -0.148 C  
HETATM    7  O   UNL     1      -8.309   4.831  65.566  1.00  0.00    -0.114 OA 
HETATM    8  C   UNL     1      -9.283   6.096  67.490  1.00  0.00    -0.111 C  
HETATM    9  C   UNL     1      -9.261   8.465  67.290  1.00  0.00    -0.138 C  
HETATM   10  N   UNL     1     -10.105   7.411  67.734  1.00  0.00    -0.173 N  
HETATM   11  C   UNL     1     -10.356   7.952  69.001  1.00  0.00    -0.214 C  
HETATM   12  H   UNL     1      -9.774   9.932  68.375  1.00  0.00     0.000 HD 
HETATM   13  C   UNL     1      -8.972   8.170  69.679  1.00  0.00    -0.154 C  
HETATM   14  O   UNL     1     -11.468   8.239  69.402  1.00  0.00     0.261 OA 
HETATM   15  O   UNL     1      -9.804   9.767  67.439  1.00  0.00    -0.160 OA 
HETATM   16  O   UNL     1      -8.231   8.273  68.308  1.00  0.00    -0.125 OA 
HETATM   17  C   UNL     1     -10.258   6.709  71.622  1.00  0.00    -0.212 C  
HETATM   18  C   UNL     1      -7.866   6.101  71.216  1.00  0.00    -0.111 C  
HETATM   19  C   UNL     1      -9.075   6.808  70.600  1.00  0.00    -0.155 C  
ENDROOT
BRANCH   8  20
HETATM   20  C   UNL     1      -9.884   4.754  67.948  1.00  0.00    -0.191 C  
BRANCH  20  21
HETATM   21  C   UNL     1      -9.468   3.604  67.003  1.00  0.00    -0.219 A  
HETATM   22  C   UNL     1     -10.141   2.364  65.035  1.00  0.00     0.535 A  
HETATM   23  C   UNL     1      -7.812   2.634  65.510  1.00  0.00    -0.078 A  
HETATM   24  C   UNL     1      -8.123   3.299  66.692  1.00  0.00    -0.081 A  
HETATM   25  C   UNL     1      -8.807   2.204  64.656  1.00  0.00    -0.115 A  
HETATM   26  C   UNL     1     -10.472   3.054  66.198  1.00  0.00     2.021 A  
ENDBRANCH  20  21
ENDBRANCH   8  20
BRANCH  13  27
HETATM   27  N   UNL     1      -8.782   9.449  70.411  1.00  0.00    -0.227 NA 
HETATM   28  H   UNL     1      -8.490   9.495  71.387  1.00  0.00     0.000 HD 
BRANCH  27  29
HETATM   29  C   UNL     1      -9.020  10.498  69.695  1.00  0.00     0.061 C  
HETATM   30  H   UNL     1      -8.237  11.804  68.393  1.00  0.00     0.000 HD 
HETATM   31  O   UNL     1      -8.061  11.033  68.919  1.00  0.00    -0.142 OA 
BRANCH  29  32
HETATM   32  C   UNL     1     -10.303  11.326  69.599  1.00  0.00     0.173 C  
HETATM   33  C   UNL     1     -10.127  12.842  69.532  1.00  0.00     0.962 C  
HETATM   34  N   UNL     1     -11.412  13.468  69.165  1.00  0.00    -0.278 NA 
HETATM   35  C   UNL     1     -11.907  13.143  67.785  1.00  0.00    -0.348 C  
HETATM   36  C   UNL     1     -11.491  14.867  69.543  1.00  0.00    -0.297 C  
HETATM   37  C   UNL     1     -11.722  14.257  66.687  1.00  0.00    -0.417 C  
HETATM   38  C   UNL     1     -10.272  14.364  66.397  1.00  0.00    -0.294 A  
HETATM   39  C   UNL     1      -9.377  15.405  66.387  1.00  0.00    -0.299 A  
HETATM   40  N   UNL     1      -8.111  14.854  66.345  1.00  0.00    -0.183 NA 
HETATM   41  C   UNL     1      -8.185  13.475  66.300  1.00  0.00     1.097 A  
HETATM   42  H   UNL     1      -7.243  15.390  66.348  1.00  0.00     0.000 HD 
HETATM   43  C   UNL     1      -7.217  12.474  66.384  1.00  0.00     1.061 A  
HETATM   44  C   UNL     1      -7.677  11.144  66.414  1.00  0.00    -0.124 A  
HETATM   45  C   UNL     1      -9.041  10.834  66.496  1.00  0.00    -0.181 A  
HETATM   46  C   UNL     1      -9.979  11.866  66.604  1.00  0.00    -0.220 A  
HETATM   47  C   UNL     1     -11.350  11.735  67.269  1.00  0.00    -0.379 C  
HETATM   48  C   UNL     1      -9.528  13.168  66.329  1.00  0.00    -0.194 A  
HETATM   49  C   UNL     1     -11.305  10.819  68.512  1.00  0.00    -0.360 C  
ENDBRANCH  29  32
ENDBRANCH  27  29
ENDBRANCH  13  27
TORSDOF 5
ENDMDL
MODEL      211
REMARK 921   NORMALIZED FREE ENERGY PREDICTED BY IDOCK:   22.73 KCAL/MOL
REMARK 922        TOTAL FREE ENERGY PREDICTED BY IDOCK:   27.53 KCAL/MOL
REMARK 923 INTER-LIGAND FREE ENERGY PREDICTED BY IDOCK:   10.38 KCAL/MOL
REMARK 924 INTRA-LIGAND FREE ENERGY PREDICTED BY IDOCK:   17.15 KCAL/MOL
REMARK 927      BINDING AFFINITY PREDICTED BY RF-SCORE:    0.00 PKD
ROOT
HETATM    1  C   UNL     1      -7.592   6.209  65.491  1.00  0.00    -0.086 C  
HETATM    2  C   UNL     1      -7.436   6.050  63.983  1.00  0.00    -0.080 C  
HETATM    3  C   UNL     1      -6.943   4.581  63.840  1.00  0.00    -0.045 C  
HETATM    4  C   UNL     1      -6.510   4.141  65.232  1.00  0.00    -0.039 C  
HETATM    5  N   UNL     1      -6.614   5.331  66.044  1.00  0.00    -0.047 N  
HETATM    6  C   UNL     1      -6.629   5.130  67.400  1.00  0.00    -0.054 C  
HETATM    7  O   UNL     1      -5.879   4.284  67.873  1.00  0.00    -0.021 OA 
HETATM    8  C   UNL     1      -7.553   6.108  68.222  1.00  0.00    -0.098 C  
HETATM    9  C   UNL     1      -7.993   7.484  66.334  1.00  0.00    -0.107 C  
HETATM   10  N   UNL     1      -8.673   6.844  67.405  1.00  0.00    -0.120 N  
HETATM   11  C   UNL     1      -9.344   7.989  67.855  1.00  0.00    -0.138 C  
HETATM   12  H   UNL     1      -9.065   9.005  65.973  1.00  0.00     0.000 HD 
HETATM   13  C   UNL     1      -8.254   9.056  68.161  1.00  0.00    -0.113 C  
HETATM   14  O   UNL     1     -10.556   8.083  67.902  1.00  0.00    -0.209 OA 
HETATM   15  O   UNL     1      -8.824   8.238  65.466  1.00  0.00    -0.169 OA 
HETATM   16  O   UNL     1      -7.234   8.412  67.170  1.00  0.00    -0.081 OA 
HETATM   17  C   UNL     1      -9.638   9.056  70.538  1.00  0.00    -0.264 C  
HETATM   18  C   UNL     1      -7.148   9.176  70.735  1.00  0.00    -0.103 C  
HETATM   19  C   UNL     1      -8.288   8.797  69.787  1.00  0.00    -0.127 C  
ENDROOT
BRANCH   8  20
HETATM   20  C   UNL     1      -7.945   5.375  69.518  1.00  0.00    -0.089 C  
BRANCH  20  21
HETATM   21  C   UNL     1      -9.459   5.066  69.549  1.00  0.00    -0.207 A  
HETATM   22  C   UNL     1     -11.446   5.210  70.924  1.00  0.00     1.084 A  
HETATM   23  C   UNL     1     -11.658   5.335  68.545  1.00  0.00     2.893 A  
HETATM   24  C   UNL     1     -10.290   5.124  68.406  1.00  0.00    -0.140 A  
HETATM   25  C   UNL     1     -12.237   5.424  69.794  1.00  0.00     4.965 A  
HETATM   26  C   UNL     1     -10.071   5.030  70.806  1.00  0.00    -0.307 A  
ENDBRANCH  20  21
ENDBRANCH   8  20
BRANCH  13  27
HETATM   27  N   UNL     1      -8.534  10.444  67.708  1.00  0.00    -0.114 NA 
HETATM   28  H   UNL     1      -8.205  10.817  66.818  1.00  0.00     0.000 HD 
BRANCH  27  29
HETATM   29  C   UNL     1      -9.233  11.134  68.547  1.00  0.00    -0.183 C  
HETATM   30  H   UNL     1      -9.311  11.842  70.420  1.00  0.00     0.000 HD 
HETATM   31  O   UNL     1      -8.797  11.334  69.803  1.00  0.00     0.661 OA 
BRANCH  29  32
HETATM   32  C   UNL     1     -10.603  11.786  68.351  1.00  0.00    -0.239 C  
HETATM   33  C   UNL     1     -10.654  12.984  67.404  1.00  0.00    -0.234 C  
HETATM   34  N   UNL     1     -12.062  13.315  67.110  1.00  0.00    -0.340 NA 
HETATM   35  C   UNL     1     -12.814  12.268  66.340  1.00  0.00     2.255 C  
HETATM   36  C   UNL     1     -12.239  14.679  66.646  1.00  0.00    -0.117 C  
HETATM   37  C   UNL     1     -13.041  12.545  64.806  1.00  0.00     0.106 C  
HETATM   38  C   UNL     1     -11.726  12.432  64.132  1.00  0.00    -0.476 A  
HETATM   39  C   UNL     1     -11.007  13.257  63.303  1.00  0.00     0.748 A  
HETATM   40  N   UNL     1      -9.722  12.753  63.240  1.00  0.00    -0.326 NA 
HETATM   41  C   UNL     1      -9.617  11.600  63.994  1.00  0.00    -0.136 A  
HETATM   42  H   UNL     1      -8.958  13.173  62.710  1.00  0.00     0.000 HD 
HETATM   43  C   UNL     1      -8.531  10.806  64.361  1.00  0.00     0.007 A  
HETATM   44  C   UNL     1      -8.787   9.746  65.250  1.00  0.00    -0.206 A  
HETATM   45  C   UNL     1     -10.040   9.572  65.852  1.00  0.00    -0.284 A  
HETATM   46  C   UNL     1     -11.059  10.500  65.612  1.00  0.00     0.369 A  
HETATM   47  C   UNL     1     -12.207  10.807  66.573  1.00  0.00     3.094 C  
HETATM   48  C   UNL     1     -10.863  11.397  64.548  1.00  0.00    -0.375 A  
HETATM   49  C   UNL     1     -11.751  10.770  68.049  1.00  0.00    -0.127 C  
ENDBRANCH  29  32
ENDBRANCH  27  29
ENDBRANCH  13  27
TORSDOF 5
ENDMDL
MODEL      212
REMARK 921   NORMALIZED FREE ENERGY PREDICTED BY IDOCK:   27.30 KCAL/MOL
REMARK 922        TOTAL FREE ENERGY PREDICTED BY IDOCK:   33.44 KCAL/MOL
REMARK 923 INTER-LIGAND FREE ENERGY PREDICTED BY IDOCK:   20.99 KCAL/MOL
REMARK 924 INTRA-LIGAND FREE ENERGY PREDICTED BY IDOCK:   12.45 KCAL/MOL
REMARK 927      BINDING AFFINITY PREDICTED BY RF-SCORE:    0.00 PKD
ROOT
HETATM    1  C   UNL     1      -7.346  12.332  67.145  1.00  0.00    -0.107 C  
HETATM    2  C   UNL     1      -6.444  11.374  67.914  1.00  0.00    -0.058 C  
HETATM    3  C   UNL     1      -6.624  10.035  67.141  1.00  0.00    -0.070 C  
HETATM    4  C   UNL     1      -7.848  10.219  66.254  1.00  0.00    -0.118 C  
HETATM    5  N   UNL     1      -8.386  11.505  66.629  1.00  0.00    -0.171 N  
HETATM    6  C   UNL     1      -9.268  12.065  65.742  1.00  0.00    -0.060 C  
HETATM    7  O   UNL     1     -10.088  11.337  65.194  1.00  0.00    -0.245 OA 
HETATM    8  C   UNL     1      -9.193  13.634  65.608  1.00  0.00     0.448 C  
HETATM    9  C   UNL     1      -7.691  13.846  67.438  1.00  0.00    -0.148 C  
HETATM   10  N   UNL     1      -7.862  14.303  66.103  1.00  0.00     1.769 N  
HETATM   11  C   UNL     1      -7.736  15.666  66.401  1.00  0.00     0.341 C  
HETATM   12  H   UNL     1      -6.749  15.263  68.275  1.00  0.00     0.000 HD 
HETATM   13  C   UNL     1      -8.815  15.994  67.473  1.00  0.00    -0.189 C  
HETATM   14  O   UNL     1      -6.875  16.381  65.924  1.00  0.00     0.443 OA 
HETATM   15  O   UNL     1      -6.542  14.352  68.099  1.00  0.00    -0.102 OA 
HETATM   16  O   UNL     1      -8.870  14.518  67.981  1.00  0.00    -0.163 OA 
HETATM   17  C   UNL     1      -9.377  17.920  65.591  1.00  0.00     0.544 C  
HETATM   18  C   UNL     1     -11.363  16.817  66.637  1.00  0.00     0.669 C  
HETATM   19  C   UNL     1      -9.860  16.662  66.389  1.00  0.00    -0.308 C  
ENDROOT
BRANCH   8  20
HETATM   20  C   UNL     1      -9.722  13.993  64.207  1.00  0.00     1.638 C  
BRANCH  20  21
HETATM   21  C   UNL     1     -11.224  13.651  64.073  1.00  0.00    -0.189 A  
HETATM   22  C   UNL     1     -12.775  11.997  63.224  1.00  0.00    -0.437 A  
HETATM   23  C   UNL     1     -13.379  13.294  65.141  1.00  0.00     0.516 A  
HETATM   24  C   UNL     1     -12.195  14.016  65.034  1.00  0.00    -0.448 A  
HETATM   25  C   UNL     1     -13.658  12.258  64.272  1.00  0.00     1.089 A  
HETATM   26  C   UNL     1     -11.570  12.687  63.120  1.00  0.00    -0.232 A  
ENDBRANCH  20  21
ENDBRANCH   8  20
BRANCH  13  27
HETATM   27  N   UNL     1      -8.391  16.862  68.602  1.00  0.00    -0.253 NA 
HETATM   28  H   UNL     1      -7.480  16.785  69.054  1.00  0.00     0.000 HD 
BRANCH  27  29
HETATM   29  C   UNL     1      -9.285  17.725  68.959  1.00  0.00    -0.041 C  
HETATM   30  H   UNL     1      -9.627  19.660  69.352  1.00  0.00     0.000 HD 
HETATM   31  O   UNL     1      -8.970  19.025  69.090  1.00  0.00    -0.223 OA 
BRANCH  29  32
HETATM   32  C   UNL     1     -10.753  17.495  69.322  1.00  0.00     0.136 C  
HETATM   33  C   UNL     1     -11.434  16.296  68.665  1.00  0.00    -0.288 C  
HETATM   34  N   UNL     1     -12.734  16.052  69.320  1.00  0.00     0.363 NA 
HETATM   35  C   UNL     1     -12.651  15.624  70.757  1.00  0.00    -0.431 C  
HETATM   36  C   UNL     1     -13.652  15.291  68.494  1.00  0.00     4.831 C  
HETATM   37  C   UNL     1     -12.878  14.094  71.054  1.00  0.00    -0.421 C  
HETATM   38  C   UNL     1     -11.707  13.356  70.521  1.00  0.00    -0.106 A  
HETATM   39  C   UNL     1     -11.560  12.295  69.663  1.00  0.00    -0.278 A  
HETATM   40  N   UNL     1     -10.227  12.246  69.300  1.00  0.00    -0.361 NA 
HETATM   41  C   UNL     1      -9.515  13.244  69.937  1.00  0.00     2.488 A  
HETATM   42  H   UNL     1      -9.825  11.567  68.653  1.00  0.00     0.000 HD 
HETATM   43  C   UNL     1      -8.202  13.696  69.810  1.00  0.00     1.439 A  
HETATM   44  C   UNL     1      -7.844  14.833  70.558  1.00  0.00     1.189 A  
HETATM   45  C   UNL     1      -8.788  15.564  71.291  1.00  0.00     3.702 A  
HETATM   46  C   UNL     1     -10.137  15.195  71.245  1.00  0.00     1.301 A  
HETATM   47  C   UNL     1     -11.312  16.149  71.459  1.00  0.00    -0.286 C  
HETATM   48  C   UNL     1     -10.433  13.934  70.700  1.00  0.00     2.059 A  
HETATM   49  C   UNL     1     -11.041  17.546  70.857  1.00  0.00     1.760 C  
ENDBRANCH  29  32
ENDBRANCH  27  29
ENDBRANCH  13  27
TORSDOF 5
ENDMDL
MODEL      213
REMARK 921   NORMALIZED FREE ENERGY PREDICTED BY IDOCK:   28.62 KCAL/MOL
REMARK 922        TOTAL FREE ENERGY PREDICTED BY IDOCK:   35.14 KCAL/MOL
REMARK 923 INTER-LIGAND FREE ENERGY PREDICTED BY IDOCK:   -3.01 KCAL/MOL
REMARK 924 INTRA-LIGAND FREE ENERGY PREDICTED BY IDOCK:   38.14 KCAL/MOL
REMARK 927      BINDING AFFINITY PREDICTED BY RF-SCORE:    0.00 PKD
ROOT
HETATM    1  C   UNL     1     -11.019  10.351  69.608  1.00  0.00    -0.277 C  
HETATM    2  C   UNL     1     -11.762  10.824  70.852  1.00  0.00    -0.334 C  
HETATM    3  C   UNL     1     -13.033  11.499  70.260  1.00  0.00     0.192 C  
HETATM    4  C   UNL     1     -12.759  11.689  68.774  1.00  0.00     1.292 C  
HETATM    5  N   UNL     1     -11.382  11.290  68.599  1.00  0.00    -0.245 N  
HETATM    6  C   UNL     1     -10.996  11.026  67.311  1.00  0.00    -0.297 C  
HETATM    7  O   UNL     1     -11.408  11.755  66.415  1.00  0.00    -0.329 OA 
HETATM    8  C   UNL     1      -9.958   9.851  67.139  1.00  0.00    -0.200 C  
HETATM    9  C   UNL     1      -9.610   9.648  69.483  1.00  0.00    -0.198 C  
HETATM   10  N   UNL     1      -9.859   8.842  68.338  1.00  0.00    -0.168 N  
HETATM   11  C   UNL     1      -8.780   7.971  68.539  1.00  0.00    -0.131 C  
HETATM   12  H   UNL     1      -8.613   8.506  70.621  1.00  0.00     0.000 HD 
HETATM   13  C   UNL     1      -7.498   8.849  68.599  1.00  0.00    -0.088 C  
HETATM   14  O   UNL     1      -8.906   6.771  68.698  1.00  0.00    -0.125 OA 
HETATM   15  O   UNL     1      -9.460   8.929  70.697  1.00  0.00    -0.180 OA 
HETATM   16  O   UNL     1      -8.292  10.114  69.055  1.00  0.00    -0.118 OA 
HETATM   17  C   UNL     1      -6.765   7.025  66.677  1.00  0.00    -0.053 C  
HETATM   18  C   UNL     1      -6.104   9.394  66.227  1.00  0.00    -0.060 C  
HETATM   19  C   UNL     1      -7.054   8.519  67.048  1.00  0.00    -0.075 C  
ENDROOT
BRANCH   8  20
HETATM   20  C   UNL     1     -10.142   9.291  65.717  1.00  0.00    -0.092 C  
BRANCH  20  21
HETATM   21  C   UNL     1      -8.797   9.252  64.955  1.00  0.00    -0.233 A  
HETATM   22  C   UNL     1      -6.474   8.596  65.142  1.00  0.00    -0.064 A  
HETATM   23  C   UNL     1      -7.535   8.550  62.999  1.00  0.00    -0.107 A  
HETATM   24  C   UNL     1      -8.699   9.068  63.556  1.00  0.00    -0.097 A  
HETATM   25  C   UNL     1      -6.436   8.269  63.786  1.00  0.00    -0.072 A  
HETATM   26  C   UNL     1      -7.640   9.086  65.724  1.00  0.00    -0.090 A  
ENDBRANCH  20  21
ENDBRANCH   8  20
BRANCH  13  27
HETATM   27  N   UNL     1      -6.508   8.512  69.656  1.00  0.00    -0.039 NA 
HETATM   28  H   UNL     1      -5.518   8.746  69.587  1.00  0.00     0.000 HD 
BRANCH  27  29
HETATM   29  C   UNL     1      -7.019   7.896  70.670  1.00  0.00    -0.041 C  
HETATM   30  H   UNL     1      -6.656   7.194  72.511  1.00  0.00     0.000 HD 
HETATM   31  O   UNL     1      -6.281   7.647  71.766  1.00  0.00    -0.039 OA 
BRANCH  29  32
HETATM   32  C   UNL     1      -8.427   7.321  70.837  1.00  0.00    -0.128 C  
HETATM   33  C   UNL     1      -8.732   6.042  70.060  1.00  0.00    -0.135 C  
HETATM   34  N   UNL     1     -10.008   5.473  70.538  1.00  0.00    -0.198 NA 
HETATM   35  C   UNL     1      -9.995   4.987  71.959  1.00  0.00    -0.184 C  
HETATM   36  C   UNL     1     -10.625   4.576  69.577  1.00  0.00     0.815 C  
HETATM   37  C   UNL     1      -9.896   3.430  72.174  1.00  0.00    -0.236 C  
HETATM   38  C   UNL     1      -8.534   3.008  71.769  1.00  0.00    -0.085 A  
HETATM   39  C   UNL     1      -8.048   2.061  70.902  1.00  0.00    -0.049 A  
HETATM   40  N   UNL     1      -6.707   2.335  70.708  1.00  0.00    -0.031 NA 
HETATM   41  C   UNL     1      -6.322   3.427  71.462  1.00  0.00    -0.015 A  
HETATM   42  H   UNL     1      -6.088   1.805  70.094  1.00  0.00     0.000 HD 
HETATM   43  C   UNL     1      -5.143   4.170  71.517  1.00  0.00     0.000 A  
HETATM   44  C   UNL     1      -5.145   5.310  72.341  1.00  0.00    -0.008 A  
HETATM   45  C   UNL     1      -6.310   5.764  72.973  1.00  0.00    -0.062 A  
HETATM   46  C   UNL     1      -7.523   5.105  72.745  1.00  0.00    -0.096 A  
HETATM   47  C   UNL     1      -8.903   5.756  72.840  1.00  0.00    -0.124 C  
HETATM   48  C   UNL     1      -7.456   3.846  72.126  1.00  0.00    -0.065 A  
HETATM   49  C   UNL     1      -8.894   7.212  72.324  1.00  0.00    -0.142 C  
ENDBRANCH  29  32
ENDBRANCH  27  29
ENDBRANCH  13  27
TORSDOF 5
ENDMDL
MODEL      214
REMARK 921   NORMALIZED FREE ENERGY PREDICTED BY IDOCK:   31.39 KCAL/MOL
REMARK 922        TOTAL FREE ENERGY PREDICTED BY IDOCK:   38.72 KCAL/MOL
REMARK 923 INTER-LIGAND FREE ENERGY PREDICTED BY IDOCK:   35.30 KCAL/MOL
REMARK 924 INTRA-LIGAND FREE ENERGY PREDICTED BY IDOCK:    3.42 KCAL/MOL
REMARK 927      BINDING AFFINITY PREDICTED BY RF-SCORE:    0.00 PKD
ROOT
HETATM    1  C   UNL     1     -11.092  10.577  69.314  1.00  0.00    -0.246 C  
HETATM    2  C   UNL     1     -11.993  11.387  70.238  1.00  0.00    -0.460 C  
HETATM    3  C   UNL     1     -13.383  11.277  69.548  1.00  0.00     1.936 C  
HETATM    4  C   UNL     1     -13.119  10.753  68.143  1.00  0.00     5.550 C  
HETATM    5  N   UNL     1     -11.680  10.725  68.024  1.00  0.00    -0.175 N  
HETATM    6  C   UNL     1     -11.180   9.962  67.001  1.00  0.00     0.346 C  
HETATM    7  O   UNL     1     -11.756   9.984  65.919  1.00  0.00     1.802 OA 
HETATM    8  C   UNL     1      -9.829   9.210  67.312  1.00  0.00    -0.189 C  
HETATM    9  C   UNL     1      -9.532  10.336  69.385  1.00  0.00    -0.206 C  
HETATM   10  N   UNL     1      -9.478   9.028  68.831  1.00  0.00    -0.150 N  
HETATM   11  C   UNL     1      -8.196   8.723  69.305  1.00  0.00    -0.108 C  
HETATM   12  H   UNL     1      -8.283  10.266  70.810  1.00  0.00     0.000 HD 
HETATM   13  C   UNL     1      -7.243   9.828  68.767  1.00  0.00    -0.072 C  
HETATM   14  O   UNL     1      -7.960   7.793  70.053  1.00  0.00    -0.108 OA 
HETATM   15  O   UNL     1      -9.222  10.411  70.767  1.00  0.00     0.717 OA 
HETATM   16  O   UNL     1      -8.401  10.867  68.627  1.00  0.00    -0.133 OA 
HETATM   17  C   UNL     1      -5.915   7.570  67.931  1.00  0.00    -0.039 C  
HETATM   18  C   UNL     1      -5.984   9.454  66.288  1.00  0.00    -0.059 C  
HETATM   19  C   UNL     1      -6.657   8.894  67.544  1.00  0.00    -0.062 C  
ENDROOT
BRANCH   8  20
HETATM   20  C   UNL     1      -9.776   7.979  66.389  1.00  0.00    -0.255 C  
BRANCH  20  21
HETATM   21  C   UNL     1     -10.313   6.719  67.107  1.00  0.00    -0.327 A  
HETATM   22  C   UNL     1     -10.095   4.312  67.233  1.00  0.00    -0.043 A  
HETATM   23  C   UNL     1     -10.739   5.533  69.186  1.00  0.00    -0.260 A  
HETATM   24  C   UNL     1     -10.747   6.715  68.452  1.00  0.00    -0.314 A  
HETATM   25  C   UNL     1     -10.373   4.338  68.601  1.00  0.00     0.471 A  
HETATM   26  C   UNL     1     -10.067   5.488  66.490  1.00  0.00    -0.241 A  
ENDBRANCH  20  21
ENDBRANCH   8  20
BRANCH  13  27
HETATM   27  N   UNL     1      -6.241  10.370  69.722  1.00  0.00    -0.056 NA 
HETATM   28  H   UNL     1      -5.649   9.778  70.304  1.00  0.00     0.000 HD 
BRANCH  27  29
HETATM   29  C   UNL     1      -6.191  11.660  69.747  1.00  0.00    -0.139 C  
HETATM   30  H   UNL     1      -6.104  13.272  70.934  1.00  0.00     0.000 HD 
HETATM   31  O   UNL     1      -6.141  12.323  70.916  1.00  0.00    -0.258 OA 
BRANCH  29  32
HETATM   32  C   UNL     1      -6.218  12.647  68.578  1.00  0.00    -0.067 C  
HETATM   33  C   UNL     1      -7.560  12.821  67.870  1.00  0.00    -0.138 C  
HETATM   34  N   UNL     1      -7.490  13.989  66.969  1.00  0.00     0.110 NA 
HETATM   35  C   UNL     1      -7.318  15.313  67.657  1.00  0.00    -0.178 C  
HETATM   36  C   UNL     1      -8.491  13.956  65.919  1.00  0.00     1.538 C  
HETATM   37  C   UNL     1      -8.600  16.220  67.776  1.00  0.00    -0.175 C  
HETATM   38  C   UNL     1      -9.520  15.572  68.741  1.00  0.00    -0.210 A  
HETATM   39  C   UNL     1     -10.837  15.189  68.692  1.00  0.00    -0.245 A  
HETATM   40  N   UNL     1     -11.062  14.361  69.775  1.00  0.00    -0.398 NA 
HETATM   41  C   UNL     1      -9.914  14.232  70.532  1.00  0.00     1.859 A  
HETATM   42  H   UNL     1     -11.952  13.909  69.987  1.00  0.00     0.000 HD 
HETATM   43  C   UNL     1      -9.584  13.422  71.619  1.00  0.00    11.712 A  
HETATM   44  C   UNL     1      -8.255  13.479  72.076  1.00  0.00    11.494 A  
HETATM   45  C   UNL     1      -7.268  14.205  71.396  1.00  0.00     2.692 A  
HETATM   46  C   UNL     1      -7.588  14.853  70.198  1.00  0.00     0.330 A  
HETATM   47  C   UNL     1      -6.596  15.157  69.076  1.00  0.00    -0.113 C  
HETATM   48  C   UNL     1      -8.953  14.987  69.893  1.00  0.00     0.247 A  
HETATM   49  C   UNL     1      -5.558  14.027  68.899  1.00  0.00    -0.082 C  
ENDBRANCH  29  32
ENDBRANCH  27  29
ENDBRANCH  13  27
TORSDOF 5
ENDMDL
MODEL      215
REMARK 921   NORMALIZED FREE ENERGY PREDICTED BY IDOCK:   31.66 KCAL/MOL
REMARK 922        TOTAL FREE ENERGY PREDICTED BY IDOCK:   39.07 KCAL/MOL
REMARK 923 INTER-LIGAND FREE ENERGY PREDICTED BY IDOCK:   31.50 KCAL/MOL
REMARK 924 INTRA-LIGAND FREE ENERGY PREDICTED BY IDOCK:    7.56 KCAL/MOL
REMARK 927      BINDING AFFINITY PREDICTED BY RF-SCORE:    0.00 PKD
ROOT
HETATM    1  C   UNL     1      -8.590  17.342  69.276  1.00  0.00     0.183 C  
HETATM    2  C   UNL     1      -7.867  17.854  70.517  1.00  0.00     3.712 C  
HETATM    3  C   UNL     1      -7.867  19.395  70.305  1.00  0.00     1.125 C  
HETATM    4  C   UNL     1      -8.239  19.623  68.846  1.00  0.00    -0.214 C  
HETATM    5  N   UNL     1      -8.286  18.301  68.267  1.00  0.00    -0.290 N  
HETATM    6  C   UNL     1      -8.942  18.197  67.068  1.00  0.00    -0.263 C  
HETATM    7  O   UNL     1      -8.786  19.086  66.237  1.00  0.00    -0.338 OA 
HETATM    8  C   UNL     1      -9.754  16.863  66.850  1.00  0.00    -0.259 C  
HETATM    9  C   UNL     1      -8.872  15.857  68.816  1.00  0.00    -0.213 C  
HETATM   10  N   UNL     1     -10.112  16.058  68.149  1.00  0.00    -0.231 N  
HETATM   11  C   UNL     1     -10.496  14.711  68.152  1.00  0.00    -0.237 C  
HETATM   12  H   UNL     1      -9.128  14.226  69.747  1.00  0.00     0.000 HD 
HETATM   13  C   UNL     1      -9.360  13.917  67.445  1.00  0.00    -0.228 C  
HETATM   14  O   UNL     1     -11.509  14.302  68.689  1.00  0.00    -0.263 OA 
HETATM   15  O   UNL     1      -8.958  15.119  70.024  1.00  0.00     0.016 OA 
HETATM   16  O   UNL     1      -8.286  14.998  67.789  1.00  0.00    -0.138 OA 
HETATM   17  C   UNL     1     -11.541  13.056  66.009  1.00  0.00    -0.409 C  
HETATM   18  C   UNL     1      -9.485  13.537  64.669  1.00  0.00     0.898 C  
HETATM   19  C   UNL     1     -10.166  13.806  66.013  1.00  0.00    -0.315 C  
ENDROOT
BRANCH   8  20
HETATM   20  C   UNL     1     -10.876  17.178  65.844  1.00  0.00    -0.017 C  
BRANCH  20  21
HETATM   21  C   UNL     1     -11.069  18.703  65.681  1.00  0.00     0.428 A  
HETATM   22  C   UNL     1     -10.850  20.534  64.113  1.00  0.00     3.550 A  
HETATM   23  C   UNL     1     -12.533  20.640  65.810  1.00  0.00     5.814 A  
HETATM   24  C   UNL     1     -12.084  19.435  66.340  1.00  0.00     3.181 A  
HETATM   25  C   UNL     1     -11.956  21.174  64.676  1.00  0.00     4.727 A  
HETATM   26  C   UNL     1     -10.406  19.312  64.610  1.00  0.00     3.293 A  
ENDBRANCH  20  21
ENDBRANCH   8  20
BRANCH  13  27
HETATM   27  N   UNL     1      -8.951  12.634  68.074  1.00  0.00    -0.193 NA 
HETATM   28  H   UNL     1      -9.059  11.729  67.617  1.00  0.00     0.000 HD 
BRANCH  27  29
HETATM   29  C   UNL     1      -8.446  12.772  69.255  1.00  0.00     0.895 C  
HETATM   30  H   UNL     1      -7.345  13.960  70.436  1.00  0.00     0.000 HD 
HETATM   31  O   UNL     1      -7.717  13.858  69.567  1.00  0.00     0.209 OA 
BRANCH  29  32
HETATM   32  C   UNL     1      -8.511  11.816  70.448  1.00  0.00     4.412 C  
HETATM   33  C   UNL     1      -9.392  10.581  70.278  1.00  0.00     0.836 C  
HETATM   34  N   UNL     1      -9.132   9.638  71.384  1.00  0.00     0.080 NA 
HETATM   35  C   UNL     1      -7.752   9.045  71.402  1.00  0.00    -0.037 C  
HETATM   36  C   UNL     1     -10.218   8.699  71.598  1.00  0.00    -0.295 C  
HETATM   37  C   UNL     1      -7.612   7.564  70.886  1.00  0.00    -0.081 C  
HETATM   38  C   UNL     1      -7.843   7.576  69.422  1.00  0.00    -0.121 A  
HETATM   39  C   UNL     1      -8.684   6.886  68.584  1.00  0.00    -0.122 A  
HETATM   40  N   UNL     1      -8.672   7.537  67.366  1.00  0.00    -0.124 NA 
HETATM   41  C   UNL     1      -7.811   8.618  67.404  1.00  0.00    -0.098 A  
HETATM   42  H   UNL     1      -9.220   7.259  66.552  1.00  0.00     0.000 HD 
HETATM   43  C   UNL     1      -7.550   9.651  66.503  1.00  0.00    -0.098 A  
HETATM   44  C   UNL     1      -6.673  10.663  66.931  1.00  0.00    -0.091 A  
HETATM   45  C   UNL     1      -6.187  10.716  68.244  1.00  0.00    -0.050 A  
HETATM   46  C   UNL     1      -6.620   9.771  69.180  1.00  0.00    -0.052 A  
HETATM   47  C   UNL     1      -6.685  10.001  70.690  1.00  0.00    -0.074 C  
HETATM   48  C   UNL     1      -7.292   8.642  68.681  1.00  0.00    -0.081 A  
HETATM   49  C   UNL     1      -7.113  11.444  71.038  1.00  0.00     3.075 C  
ENDBRANCH  29  32
ENDBRANCH  27  29
ENDBRANCH  13  27
TORSDOF 5
ENDMDL
MODEL      216
REMARK 921   NORMALIZED FREE ENERGY PREDICTED BY IDOCK:   40.30 KCAL/MOL
REMARK 922        TOTAL FREE ENERGY PREDICTED BY IDOCK:   50.24 KCAL/MOL
REMARK 923 INTER-LIGAND FREE ENERGY PREDICTED BY IDOCK:    4.63 KCAL/MOL
REMARK 924 INTRA-LIGAND FREE ENERGY PREDICTED BY IDOCK:   45.60 KCAL/MOL
REMARK 927      BINDING AFFINITY PREDICTED BY RF-SCORE:    0.00 PKD
ROOT
HETATM    1  C   UNL     1      -9.389   8.835  67.449  1.00  0.00    -0.137 C  
HETATM    2  C   UNL     1      -9.657   8.758  65.951  1.00  0.00    -0.255 C  
HETATM    3  C   UNL     1     -11.033   8.035  65.883  1.00  0.00     3.136 C  
HETATM    4  C   UNL     1     -11.268   7.439  67.265  1.00  0.00     0.230 C  
HETATM    5  N   UNL     1     -10.042   7.688  67.986  1.00  0.00    -0.179 N  
HETATM    6  C   UNL     1     -10.119   7.575  69.351  1.00  0.00    -0.190 C  
HETATM    7  O   UNL     1     -10.786   6.663  69.825  1.00  0.00    -0.240 OA 
HETATM    8  C   UNL     1      -9.234   8.592  70.167  1.00  0.00    -0.159 C  
HETATM    9  C   UNL     1      -8.125   9.387  68.220  1.00  0.00    -0.109 C  
HETATM   10  N   UNL     1      -8.767   9.875  69.390  1.00  0.00    -0.165 N  
HETATM   11  C   UNL     1      -7.710  10.696  69.803  1.00  0.00    -0.004 C  
HETATM   12  H   UNL     1      -6.837  10.723  67.831  1.00  0.00     0.000 HD 
HETATM   13  C   UNL     1      -6.456   9.784  69.934  1.00  0.00    -0.062 C  
HETATM   14  O   UNL     1      -7.810  11.901  69.942  1.00  0.00     0.942 OA 
HETATM   15  O   UNL     1      -7.598  10.391  67.367  1.00  0.00    -0.093 OA 
HETATM   16  O   UNL     1      -7.014   8.740  68.915  1.00  0.00    -0.060 OA 
HETATM   17  C   UNL     1      -6.465  10.982  72.409  1.00  0.00     3.553 C  
HETATM   18  C   UNL     1      -5.925   8.540  72.391  1.00  0.00    -0.069 C  
HETATM   19  C   UNL     1      -6.569   9.662  71.572  1.00  0.00     0.215 C  
ENDROOT
BRANCH   8  20
HETATM   20  C   UNL     1      -9.900   8.766  71.545  1.00  0.00    -0.371 C  
BRANCH  20  21
HETATM   21  C   UNL     1     -11.313   9.377  71.408  1.00  0.00    -0.451 A  
HETATM   22  C   UNL     1     -13.352   9.852  72.623  1.00  0.00     0.035 A  
HETATM   23  C   UNL     1     -12.709  11.277  70.813  1.00  0.00    -0.360 A  
HETATM   24  C   UNL     1     -11.614  10.460  70.550  1.00  0.00    -0.433 A  
HETATM   25  C   UNL     1     -13.556  11.010  71.870  1.00  0.00    -0.127 A  
HETATM   26  C   UNL     1     -12.245   9.040  72.396  1.00  0.00    -0.322 A  
ENDBRANCH  20  21
ENDBRANCH   8  20
BRANCH  13  27
HETATM   27  N   UNL     1      -5.179  10.325  69.398  1.00  0.00    -0.038 NA 
HETATM   28  H   UNL     1      -4.263  10.002  69.709  1.00  0.00     0.000 HD 
BRANCH  27  29
HETATM   29  C   UNL     1      -5.338  11.241  68.501  1.00  0.00    -0.043 C  
HETATM   30  H   UNL     1      -5.811  11.591  66.585  1.00  0.00     0.000 HD 
HETATM   31  O   UNL     1      -5.693  10.918  67.245  1.00  0.00    -0.044 OA 
BRANCH  29  32
HETATM   32  C   UNL     1      -5.141  12.753  68.623  1.00  0.00    -0.058 C  
HETATM   33  C   UNL     1      -5.584  13.592  67.427  1.00  0.00     0.243 C  
HETATM   34  N   UNL     1      -5.588  15.019  67.805  1.00  0.00    -0.278 NA 
HETATM   35  C   UNL     1      -6.599  15.396  68.851  1.00  0.00    -0.110 C  
HETATM   36  C   UNL     1      -5.510  15.910  66.662  1.00  0.00     1.076 C  
HETATM   37  C   UNL     1      -7.898  16.130  68.347  1.00  0.00    -0.160 C  
HETATM   38  C   UNL     1      -8.703  15.144  67.587  1.00  0.00    -0.177 A  
HETATM   39  C   UNL     1      -9.252  15.129  66.329  1.00  0.00    -0.301 A  
HETATM   40  N   UNL     1      -9.627  13.826  66.062  1.00  0.00    -0.468 NA 
HETATM   41  C   UNL     1      -9.352  13.013  67.145  1.00  0.00    -0.230 A  
HETATM   42  H   UNL     1     -10.049  13.509  65.189  1.00  0.00     0.000 HD 
HETATM   43  C   UNL     1      -9.412  11.631  67.328  1.00  0.00    -0.173 A  
HETATM   44  C   UNL     1      -8.941  11.130  68.556  1.00  0.00    -0.168 A  
HETATM   45  C   UNL     1      -8.313  11.954  69.499  1.00  0.00     1.056 A  
HETATM   46  C   UNL     1      -8.095  13.303  69.204  1.00  0.00     0.449 A  
HETATM   47  C   UNL     1      -6.971  14.158  69.792  1.00  0.00     0.041 C  
HETATM   48  C   UNL     1      -8.780  13.830  68.096  1.00  0.00    -0.183 A  
HETATM   49  C   UNL     1      -5.665  13.353  69.968  1.00  0.00    -0.124 C  
ENDBRANCH  29  32
ENDBRANCH  27  29
ENDBRANCH  13  27
TORSDOF 5
ENDMDL
MODEL      217
REMARK 921   NORMALIZED FREE ENERGY PREDICTED BY IDOCK:   40.46 KCAL/MOL
REMARK 922        TOTAL FREE ENERGY PREDICTED BY IDOCK:   50.45 KCAL/MOL
REMARK 923 INTER-LIGAND FREE ENERGY PREDICTED BY IDOCK:   13.18 KCAL/MOL
REMARK 924 INTRA-LIGAND FREE ENERGY PREDICTED BY IDOCK:   37.26 KCAL/MOL
REMARK 927      BINDING AFFINITY PREDICTED BY RF-SCORE:    0.00 PKD
ROOT
HETATM    1  C   UNL     1      -9.005  12.143  68.483  1.00  0.00    -0.082 C  
HETATM    2  C   UNL     1      -8.214  13.276  69.125  1.00  0.00     0.497 C  
HETATM    3  C   UNL     1      -9.332  14.216  69.662  1.00  0.00     0.805 C  
HETATM    4  C   UNL     1     -10.623  13.766  68.992  1.00  0.00    -0.139 C  
HETATM    5  N   UNL     1     -10.214  12.757  68.044  1.00  0.00    -0.222 N  
HETATM    6  C   UNL     1     -11.210  11.942  67.571  1.00  0.00    -0.296 C  
HETATM    7  O   UNL     1     -12.299  12.442  67.310  1.00  0.00    -0.366 OA 
HETATM    8  C   UNL     1     -10.798  10.443  67.313  1.00  0.00    -0.264 C  
HETATM    9  C   UNL     1      -8.490  10.881  67.682  1.00  0.00    -0.123 C  
HETATM   10  N   UNL     1      -9.501   9.951  68.049  1.00  0.00    -0.134 N  
HETATM   11  C   UNL     1      -8.782   8.806  67.682  1.00  0.00    -0.135 C  
HETATM   12  H   UNL     1      -6.898   9.855  67.744  1.00  0.00     0.000 HD 
HETATM   13  C   UNL     1      -8.397   8.977  66.184  1.00  0.00    -0.121 C  
HETATM   14  O   UNL     1      -8.489   7.919  68.461  1.00  0.00    -0.127 OA 
HETATM   15  O   UNL     1      -7.208  10.613  68.226  1.00  0.00    -0.080 OA 
HETATM   16  O   UNL     1      -8.474  10.535  66.262  1.00  0.00    -0.139 OA 
HETATM   17  C   UNL     1      -9.597   6.504  66.115  1.00  0.00    -0.028 C  
HETATM   18  C   UNL     1     -10.147   8.027  64.209  1.00  0.00     5.190 C  
HETATM   19  C   UNL     1      -9.602   7.996  65.639  1.00  0.00     0.325 C  
ENDROOT
BRANCH   8  20
HETATM   20  C   UNL     1     -12.079   9.596  67.431  1.00  0.00     4.228 C  
BRANCH  20  21
HETATM   21  C   UNL     1     -12.089   8.777  68.741  1.00  0.00     2.641 A  
HETATM   22  C   UNL     1     -10.665   7.850  70.466  1.00  0.00    -0.233 A  
HETATM   23  C   UNL     1     -12.899   8.505  71.018  1.00  0.00     0.016 A  
HETATM   24  C   UNL     1     -13.138   8.834  69.688  1.00  0.00     3.292 A  
HETATM   25  C   UNL     1     -11.658   8.057  71.425  1.00  0.00    -0.301 A  
HETATM   26  C   UNL     1     -10.876   8.202  69.136  1.00  0.00    -0.033 A  
ENDBRANCH  20  21
ENDBRANCH   8  20
BRANCH  13  27
HETATM   27  N   UNL     1      -7.011   8.595  65.804  1.00  0.00    -0.074 NA 
HETATM   28  H   UNL     1      -6.208   9.209  65.935  1.00  0.00     0.000 HD 
BRANCH  27  29
HETATM   29  C   UNL     1      -6.920   7.413  65.291  1.00  0.00    -0.059 C  
HETATM   30  H   UNL     1      -7.501   6.237  63.775  1.00  0.00     0.000 HD 
HETATM   31  O   UNL     1      -7.568   7.106  64.153  1.00  0.00    -0.095 OA 
BRANCH  29  32
HETATM   32  C   UNL     1      -6.169   6.190  65.819  1.00  0.00    -0.037 C  
HETATM   33  C   UNL     1      -6.245   5.946  67.325  1.00  0.00    -0.033 C  
HETATM   34  N   UNL     1      -5.716   4.603  67.630  1.00  0.00    -0.020 NA 
HETATM   35  C   UNL     1      -6.524   3.462  67.082  1.00  0.00    -0.037 C  
HETATM   36  C   UNL     1      -5.291   4.460  69.011  1.00  0.00    -0.011 C  
HETATM   37  C   UNL     1      -7.443   2.691  68.103  1.00  0.00    -0.052 C  
HETATM   38  C   UNL     1      -8.549   3.601  68.485  1.00  0.00    -0.118 A  
HETATM   39  C   UNL     1      -9.045   4.047  69.685  1.00  0.00    -0.121 A  
HETATM   40  N   UNL     1      -9.880   5.113  69.411  1.00  0.00    -0.180 NA 
HETATM   41  C   UNL     1      -9.948   5.336  68.049  1.00  0.00    -0.152 A  
HETATM   42  H   UNL     1     -10.378   5.659  70.115  1.00  0.00     0.000 HD 
HETATM   43  C   UNL     1     -10.528   6.349  67.285  1.00  0.00    -0.326 A  
HETATM   44  C   UNL     1     -10.299   6.311  65.897  1.00  0.00     0.585 A  
HETATM   45  C   UNL     1      -9.420   5.387  65.317  1.00  0.00     0.110 A  
HETATM   46  C   UNL     1      -8.705   4.505  66.134  1.00  0.00    -0.114 A  
HETATM   47  C   UNL     1      -7.351   3.889  65.781  1.00  0.00    -0.073 C  
HETATM   48  C   UNL     1      -9.124   4.395  67.470  1.00  0.00    -0.146 A  
HETATM   49  C   UNL     1      -6.447   4.879  65.014  1.00  0.00    -0.036 C  
ENDBRANCH  29  32
ENDBRANCH  27  29
ENDBRANCH  13  27
TORSDOF 5
ENDMDL
MODEL      218
REMARK 921   NORMALIZED FREE ENERGY PREDICTED BY IDOCK:   41.11 KCAL/MOL
REMARK 922        TOTAL FREE ENERGY PREDICTED BY IDOCK:   51.28 KCAL/MOL
REMARK 923 INTER-LIGAND FREE ENERGY PREDICTED BY IDOCK:   34.76 KCAL/MOL
REMARK 924 INTRA-LIGAND FREE ENERGY PREDICTED BY IDOCK:   16.52 KCAL/MOL
REMARK 927      BINDING AFFINITY PREDICTED BY RF-SCORE:    0.00 PKD
ROOT
HETATM    1  C   UNL     1      -8.836  15.071  67.120  1.00  0.00    -0.213 C  
HETATM    2  C   UNL     1      -7.526  15.544  66.499  1.00  0.00     0.459 C  
HETATM    3  C   UNL     1      -7.222  16.849  67.290  1.00  0.00    -0.196 C  
HETATM    4  C   UNL     1      -8.510  17.217  68.015  1.00  0.00    -0.219 C  
HETATM    5  N   UNL     1      -9.487  16.269  67.532  1.00  0.00    -0.226 N  
HETATM    6  C   UNL     1     -10.627  16.151  68.285  1.00  0.00    -0.288 C  
HETATM    7  O   UNL     1     -11.126  17.168  68.753  1.00  0.00    -0.205 OA 
HETATM    8  C   UNL     1     -11.236  14.700  68.374  1.00  0.00    -0.274 C  
HETATM    9  C   UNL     1      -9.745  13.837  66.734  1.00  0.00    -0.275 C  
HETATM   10  N   UNL     1     -10.258  13.522  68.022  1.00  0.00    -0.236 N  
HETATM   11  C   UNL     1     -10.681  12.227  67.696  1.00  0.00    -0.220 C  
HETATM   12  H   UNL     1      -9.389  12.139  65.971  1.00  0.00     0.000 HD 
HETATM   13  C   UNL     1     -11.654  12.362  66.490  1.00  0.00    -0.387 C  
HETATM   14  O   UNL     1     -10.267  11.226  68.249  1.00  0.00    -0.173 OA 
HETATM   15  O   UNL     1      -8.842  12.881  66.203  1.00  0.00     0.063 OA 
HETATM   16  O   UNL     1     -11.019  13.713  66.029  1.00  0.00    -0.286 OA 
HETATM   17  C   UNL     1     -13.203  10.891  68.221  1.00  0.00     5.559 C  
HETATM   18  C   UNL     1     -14.394  12.706  66.979  1.00  0.00    15.537 C  
HETATM   19  C   UNL     1     -13.010  12.219  67.414  1.00  0.00     3.518 C  
ENDROOT
BRANCH   8  20
HETATM   20  C   UNL     1     -12.037  14.626  69.686  1.00  0.00    -0.355 C  
BRANCH  20  21
HETATM   21  C   UNL     1     -11.817  13.273  70.400  1.00  0.00    -0.270 A  
HETATM   22  C   UNL     1     -10.419  11.297  70.434  1.00  0.00     1.357 A  
HETATM   23  C   UNL     1     -11.432  12.050  72.466  1.00  0.00     6.991 A  
HETATM   24  C   UNL     1     -12.085  13.064  71.773  1.00  0.00     0.793 A  
HETATM   25  C   UNL     1     -10.566  11.192  71.819  1.00  0.00     6.109 A  
HETATM   26  C   UNL     1     -11.040  12.324  69.729  1.00  0.00     0.078 A  
ENDBRANCH  20  21
ENDBRANCH   8  20
BRANCH  13  27
HETATM   27  N   UNL     1     -11.496  11.373  65.391  1.00  0.00    -0.008 NA 
HETATM   28  H   UNL     1     -12.130  11.319  64.595  1.00  0.00     0.000 HD 
BRANCH  27  29
HETATM   29  C   UNL     1     -10.480  10.589  65.540  1.00  0.00    -0.150 C  
HETATM   30  H   UNL     1      -9.846   8.868  66.348  1.00  0.00     0.000 HD 
HETATM   31  O   UNL     1     -10.592   9.445  66.239  1.00  0.00    -0.106 OA 
BRANCH  29  32
HETATM   32  C   UNL     1      -9.044  10.770  65.047  1.00  0.00    -0.226 C  
HETATM   33  C   UNL     1      -7.972  10.917  66.125  1.00  0.00    -0.155 C  
HETATM   34  N   UNL     1      -6.637  10.803  65.506  1.00  0.00    -0.052 NA 
HETATM   35  C   UNL     1      -6.319   9.456  64.923  1.00  0.00    -0.077 C  
HETATM   36  C   UNL     1      -5.585  11.399  66.310  1.00  0.00    -0.082 C  
HETATM   37  C   UNL     1      -5.363   8.529  65.763  1.00  0.00    -0.031 C  
HETATM   38  C   UNL     1      -6.108   8.093  66.969  1.00  0.00    -0.054 A  
HETATM   39  C   UNL     1      -5.850   8.139  68.317  1.00  0.00    -0.037 A  
HETATM   40  N   UNL     1      -7.037   7.867  68.969  1.00  0.00    -0.068 NA 
HETATM   41  C   UNL     1      -8.044   7.619  68.057  1.00  0.00    -0.123 A  
HETATM   42  H   UNL     1      -7.153   7.851  69.983  1.00  0.00     0.000 HD 
HETATM   43  C   UNL     1      -9.420   7.434  68.195  1.00  0.00    -0.141 A  
HETATM   44  C   UNL     1     -10.169   7.312  67.010  1.00  0.00    -0.348 A  
HETATM   45  C   UNL     1      -9.593   7.503  65.747  1.00  0.00     0.324 A  
HETATM   46  C   UNL     1      -8.248   7.877  65.649  1.00  0.00    -0.137 A  
HETATM   47  C   UNL     1      -7.643   8.668  64.490  1.00  0.00    -0.113 C  
HETATM   48  C   UNL     1      -7.468   7.756  66.812  1.00  0.00    -0.090 A  
HETATM   49  C   UNL     1      -8.615   9.741  63.952  1.00  0.00    -0.208 C  
ENDBRANCH  29  32
ENDBRANCH  27  29
ENDBRANCH  13  27
TORSDOF 5
ENDMDL
MODEL      219
REMARK 921   NORMALIZED FREE ENERGY PREDICTED BY IDOCK:   42.12 KCAL/MOL
REMARK 922        TOTAL FREE ENERGY PREDICTED BY IDOCK:   52.59 KCAL/MOL
REMARK 923 INTER-LIGAND FREE ENERGY PREDICTED BY IDOCK:   12.54 KCAL/MOL
REMARK 924 INTRA-LIGAND FREE ENERGY PREDICTED BY IDOCK:   40.06 KCAL/MOL
REMARK 927      BINDING AFFINITY PREDICTED BY RF-SCORE:    0.00 PKD
ROOT
HETATM    1  C   UNL     1      -7.640   6.240  65.534  1.00  0.00    -0.087 C  
HETATM    2  C   UNL     1      -6.798   6.535  64.298  1.00  0.00    -0.042 C  
HETATM    3  C   UNL     1      -6.367   5.115  63.828  1.00  0.00    -0.022 C  
HETATM    4  C   UNL     1      -6.665   4.175  64.988  1.00  0.00    -0.048 C  
HETATM    5  N   UNL     1      -7.083   5.040  66.066  1.00  0.00    -0.070 N  
HETATM    6  C   UNL     1      -7.747   4.430  67.099  1.00  0.00    -0.089 C  
HETATM    7  O   UNL     1      -7.351   3.334  67.481  1.00  0.00    -0.057 OA 
HETATM    8  C   UNL     1      -8.901   5.276  67.760  1.00  0.00    -0.105 C  
HETATM    9  C   UNL     1      -8.330   7.239  66.546  1.00  0.00    -0.121 C  
HETATM   10  N   UNL     1      -9.466   6.460  66.896  1.00  0.00    -0.139 N  
HETATM   11  C   UNL     1     -10.213   7.522  67.421  1.00  0.00    -0.249 C  
HETATM   12  H   UNL     1      -9.030   8.993  66.378  1.00  0.00     0.000 HD 
HETATM   13  C   UNL     1      -9.348   8.171  68.539  1.00  0.00    -0.138 C  
HETATM   14  O   UNL     1     -11.297   7.861  66.986  1.00  0.00     0.415 OA 
HETATM   15  O   UNL     1      -8.615   8.392  65.770  1.00  0.00    -0.142 OA 
HETATM   16  O   UNL     1      -8.012   7.664  67.907  1.00  0.00    -0.115 OA 
HETATM   17  C   UNL     1     -11.688   7.725  69.912  1.00  0.00     0.316 C  
HETATM   18  C   UNL     1      -9.584   7.226  71.169  1.00  0.00    -0.160 C  
HETATM   19  C   UNL     1     -10.158   7.426  69.764  1.00  0.00    -0.193 C  
ENDROOT
BRANCH   8  20
HETATM   20  C   UNL     1      -9.894   4.276  68.381  1.00  0.00    -0.104 C  
BRANCH  20  21
HETATM   21  C   UNL     1      -9.540   3.982  69.856  1.00  0.00    -0.281 A  
HETATM   22  C   UNL     1      -9.208   2.196  71.458  1.00  0.00    -0.170 A  
HETATM   23  C   UNL     1      -7.997   4.243  71.718  1.00  0.00    -0.087 A  
HETATM   24  C   UNL     1      -8.663   4.784  70.623  1.00  0.00    -0.134 A  
HETATM   25  C   UNL     1      -8.228   2.941  72.115  1.00  0.00    -0.059 A  
HETATM   26  C   UNL     1      -9.862   2.709  70.341  1.00  0.00     0.112 A  
ENDBRANCH  20  21
ENDBRANCH   8  20
BRANCH  13  27
HETATM   27  N   UNL     1      -9.312   9.657  68.578  1.00  0.00    -0.137 NA 
HETATM   28  H   UNL     1      -8.538  10.186  68.978  1.00  0.00     0.000 HD 
BRANCH  27  29
HETATM   29  C   UNL     1     -10.355  10.215  68.058  1.00  0.00    -0.190 C  
HETATM   30  H   UNL     1     -12.355  10.329  68.123  1.00  0.00     0.000 HD 
HETATM   31  O   UNL     1     -11.588   9.918  68.505  1.00  0.00     0.018 OA 
BRANCH  29  32
HETATM   32  C   UNL     1     -10.436  11.211  66.900  1.00  0.00    -0.289 C  
HETATM   33  C   UNL     1      -9.376  12.310  66.877  1.00  0.00    -0.210 C  
HETATM   34  N   UNL     1      -9.419  13.005  65.575  1.00  0.00     0.060 NA 
HETATM   35  C   UNL     1      -9.032  12.164  64.393  1.00  0.00     0.914 C  
HETATM   36  C   UNL     1      -8.829  14.330  65.619  1.00  0.00     1.172 C  
HETATM   37  C   UNL     1      -7.589  12.392  63.804  1.00  0.00     5.929 C  
HETATM   38  C   UNL     1      -6.615  11.871  64.793  1.00  0.00     3.882 A  
HETATM   39  C   UNL     1      -5.517  12.404  65.421  1.00  0.00     4.266 A  
HETATM   40  N   UNL     1      -5.190  11.556  66.462  1.00  0.00    -0.200 NA 
HETATM   41  C   UNL     1      -6.046  10.472  66.490  1.00  0.00    -0.079 A  
HETATM   42  H   UNL     1      -4.423  11.709  67.117  1.00  0.00     0.000 HD 
HETATM   43  C   UNL     1      -6.223   9.430  67.401  1.00  0.00    -0.061 A  
HETATM   44  C   UNL     1      -7.289   8.546  67.158  1.00  0.00    -0.084 A  
HETATM   45  C   UNL     1      -8.219   8.770  66.134  1.00  0.00    -0.117 A  
HETATM   46  C   UNL     1      -8.126   9.929  65.356  1.00  0.00    -0.137 A  
HETATM   47  C   UNL     1      -9.302  10.609  64.655  1.00  0.00    -0.280 C  
HETATM   48  C   UNL     1      -6.932  10.664  65.451  1.00  0.00    -0.013 A  
HETATM   49  C   UNL     1     -10.595  10.541  65.497  1.00  0.00    -0.138 C  
ENDBRANCH  29  32
ENDBRANCH  27  29
ENDBRANCH  13  27
TORSDOF 5
ENDMDL
MODEL      220
REMARK 921   NORMALIZED FREE ENERGY PREDICTED BY IDOCK:   43.02 KCAL/MOL
REMARK 922        TOTAL FREE ENERGY PREDICTED BY IDOCK:   53.75 KCAL/MOL
REMARK 923 INTER-LIGAND FREE ENERGY PREDICTED BY IDOCK:   43.97 KCAL/MOL
REMARK 924 INTRA-LIGAND FREE ENERGY PREDICTED BY IDOCK:    9.78 KCAL/MOL
REMARK 927      BINDING AFFINITY PREDICTED BY RF-SCORE:    0.00 PKD
ROOT
HETATM    1  C   UNL     1     -11.397  10.899  66.802  1.00  0.00     0.098 C  
HETATM    2  C   UNL     1     -12.048  10.711  65.437  1.00  0.00     3.324 C  
HETATM    3  C   UNL     1     -13.005   9.508  65.674  1.00  0.00    16.878 C  
HETATM    4  C   UNL     1     -12.579   8.879  66.994  1.00  0.00    11.077 C  
HETATM    5  N   UNL     1     -11.381   9.593  67.371  1.00  0.00     0.301 N  
HETATM    6  C   UNL     1     -11.002   9.471  68.683  1.00  0.00    -0.072 C  
HETATM    7  O   UNL     1     -11.105   8.374  69.222  1.00  0.00    -0.031 OA 
HETATM    8  C   UNL     1     -10.364  10.760  69.329  1.00  0.00    -0.205 C  
HETATM    9  C   UNL     1     -10.265  11.908  67.249  1.00  0.00    -0.200 C  
HETATM   10  N   UNL     1     -10.666  12.116  68.597  1.00  0.00    -0.229 N  
HETATM   11  C   UNL     1      -9.923  13.288  68.788  1.00  0.00    -0.041 C  
HETATM   12  H   UNL     1      -9.751  13.637  66.667  1.00  0.00     0.000 HD 
HETATM   13  C   UNL     1      -8.441  12.939  68.468  1.00  0.00    -0.045 C  
HETATM   14  O   UNL     1     -10.422  14.359  69.080  1.00  0.00    -0.239 OA 
HETATM   15  O   UNL     1     -10.432  13.030  66.398  1.00  0.00    -0.269 OA 
HETATM   16  O   UNL     1      -8.841  11.751  67.537  1.00  0.00    -0.153 OA 
HETATM   17  C   UNL     1      -8.165  14.059  70.965  1.00  0.00     4.705 C  
HETATM   18  C   UNL     1      -6.780  12.022  70.534  1.00  0.00     1.157 C  
HETATM   19  C   UNL     1      -8.008  12.797  70.051  1.00  0.00     2.565 C  
ENDROOT
BRANCH   8  20
HETATM   20  C   UNL     1     -10.606  10.671  70.847  1.00  0.00     1.021 C  
BRANCH  20  21
HETATM   21  C   UNL     1     -10.182   9.291  71.400  1.00  0.00    -0.371 A  
HETATM   22  C   UNL     1      -9.959   7.996  73.433  1.00  0.00    -0.160 A  
HETATM   23  C   UNL     1     -10.433   6.873  71.375  1.00  0.00    -0.230 A  
HETATM   24  C   UNL     1     -10.352   8.080  70.690  1.00  0.00    -0.211 A  
HETATM   25  C   UNL     1     -10.284   6.824  72.746  1.00  0.00    -0.210 A  
HETATM   26  C   UNL     1      -9.904   9.218  72.770  1.00  0.00     1.798 A  
ENDBRANCH  20  21
ENDBRANCH   8  20
BRANCH  13  27
HETATM   27  N   UNL     1      -7.681  13.931  67.663  1.00  0.00    -0.169 NA 
HETATM   28  H   UNL     1      -7.009  13.666  66.943  1.00  0.00     0.000 HD 
BRANCH  27  29
HETATM   29  C   UNL     1      -7.952  15.158  67.959  1.00  0.00    -0.132 C  
HETATM   30  H   UNL     1      -7.354  16.761  69.004  1.00  0.00     0.000 HD 
HETATM   31  O   UNL     1      -7.155  15.858  68.786  1.00  0.00    -0.124 OA 
BRANCH  29  32
HETATM   32  C   UNL     1      -9.143  16.014  67.522  1.00  0.00    -0.203 C  
HETATM   33  C   UNL     1      -9.831  16.826  68.617  1.00  0.00    -0.261 C  
HETATM   34  N   UNL     1     -10.760  17.792  67.999  1.00  0.00    -0.361 NA 
HETATM   35  C   UNL     1     -10.107  18.862  67.171  1.00  0.00    -0.358 C  
HETATM   36  C   UNL     1     -11.792  18.251  68.911  1.00  0.00     4.065 C  
HETATM   37  C   UNL     1      -9.987  20.289  67.826  1.00  0.00    -0.529 C  
HETATM   38  C   UNL     1      -8.990  20.197  68.919  1.00  0.00     0.215 A  
HETATM   39  C   UNL     1      -9.006  20.523  70.253  1.00  0.00     1.831 A  
HETATM   40  N   UNL     1      -7.900  19.930  70.831  1.00  0.00     1.316 NA 
HETATM   41  C   UNL     1      -7.161  19.254  69.879  1.00  0.00     0.144 A  
HETATM   42  H   UNL     1      -7.662  19.985  71.822  1.00  0.00     0.000 HD 
HETATM   43  C   UNL     1      -6.061  18.400  69.968  1.00  0.00    -0.125 A  
HETATM   44  C   UNL     1      -5.630  17.791  68.775  1.00  0.00    -0.174 A  
HETATM   45  C   UNL     1      -6.345  17.920  67.578  1.00  0.00    -0.179 A  
HETATM   46  C   UNL     1      -7.551  18.627  67.564  1.00  0.00    -0.239 A  
HETATM   47  C   UNL     1      -8.698  18.383  66.584  1.00  0.00    -0.295 C  
HETATM   48  C   UNL     1      -7.835  19.421  68.689  1.00  0.00    -0.399 A  
HETATM   49  C   UNL     1      -8.867  16.883  66.253  1.00  0.00    -0.314 C  
ENDBRANCH  29  32
ENDBRANCH  27  29
ENDBRANCH  13  27
TORSDOF 5
ENDMDL
MODEL      221
REMARK 921   NORMALIZED FREE ENERGY PREDICTED BY IDOCK:   44.57 KCAL/MOL
REMARK 922        TOTAL FREE ENERGY PREDICTED BY IDOCK:   55.76 KCAL/MOL
REMARK 923 INTER-LIGAND FREE ENERGY PREDICTED BY IDOCK:   49.72 KCAL/MOL
REMARK 924 INTRA-LIGAND FREE ENERGY PREDICTED BY IDOCK:    6.04 KCAL/MOL
REMARK 927      BINDING AFFINITY PREDICTED BY RF-SCORE:    0.00 PKD
ROOT
HETATM    1  C   UNL     1     -11.631   9.073  72.083  1.00  0.00    -0.278 C  
HETATM    2  C   UNL     1     -11.546   8.682  73.554  1.00  0.00     2.498 C  
HETATM    3  C   UNL     1     -11.780  10.035  74.285  1.00  0.00    16.105 C  
HETATM    4  C   UNL     1     -11.615  11.121  73.230  1.00  0.00    10.554 C  
HETATM    5  N   UNL     1     -11.173  10.422  72.047  1.00  0.00     1.624 N  
HETATM    6  C   UNL     1     -11.297  11.108  70.866  1.00  0.00     0.622 C  
HETATM    7  O   UNL     1     -11.026  12.304  70.854  1.00  0.00     2.017 OA 
HETATM    8  C   UNL     1     -11.680  10.236  69.610  1.00  0.00    -0.160 C  
HETATM    9  C   UNL     1     -11.414   8.189  70.791  1.00  0.00    -0.261 C  
HETATM   10  N   UNL     1     -12.327   8.838  69.916  1.00  0.00     0.966 N  
HETATM   11  C   UNL     1     -12.402   7.792  68.987  1.00  0.00     3.124 C  
HETATM   12  H   UNL     1     -11.663   6.349  70.409  1.00  0.00     0.000 HD 
HETATM   13  C   UNL     1     -10.949   7.506  68.512  1.00  0.00     0.113 C  
HETATM   14  O   UNL     1     -13.437   7.216  68.707  1.00  0.00     7.470 OA 
HETATM   15  O   UNL     1     -11.794   6.881  71.186  1.00  0.00    -0.311 OA 
HETATM   16  O   UNL     1     -10.325   8.083  69.822  1.00  0.00    -0.209 OA 
HETATM   17  C   UNL     1     -12.210   7.841  66.091  1.00  0.00     8.957 C  
HETATM   18  C   UNL     1      -9.946   8.885  66.284  1.00  0.00    -0.337 C  
HETATM   19  C   UNL     1     -11.120   8.337  67.100  1.00  0.00     0.417 C  
ENDROOT
BRANCH   8  20
HETATM   20  C   UNL     1     -12.383  11.171  68.609  1.00  0.00     0.231 C  
BRANCH  20  21
HETATM   21  C   UNL     1     -11.476  12.364  68.229  1.00  0.00    -0.360 A  
HETATM   22  C   UNL     1      -9.199  13.180  68.312  1.00  0.00    -0.194 A  
HETATM   23  C   UNL     1     -10.623  13.865  66.516  1.00  0.00    -0.279 A  
HETATM   24  C   UNL     1     -11.684  13.166  67.083  1.00  0.00    -0.430 A  
HETATM   25  C   UNL     1      -9.370  13.843  67.095  1.00  0.00    -0.244 A  
HETATM   26  C   UNL     1     -10.240  12.450  68.878  1.00  0.00    -0.025 A  
ENDBRANCH  20  21
ENDBRANCH   8  20
BRANCH  13  27
HETATM   27  N   UNL     1     -10.554   6.078  68.394  1.00  0.00    -0.235 NA 
HETATM   28  H   UNL     1     -11.025   5.326  68.895  1.00  0.00     0.000 HD 
BRANCH  27  29
HETATM   29  C   UNL     1      -9.557   5.879  67.596  1.00  0.00    -0.111 C  
HETATM   30  H   UNL     1      -8.848   4.723  66.121  1.00  0.00     0.000 HD 
HETATM   31  O   UNL     1      -9.580   4.870  66.707  1.00  0.00    -0.137 OA 
BRANCH  29  32
HETATM   32  C   UNL     1      -8.230   6.634  67.506  1.00  0.00    -0.122 C  
HETATM   33  C   UNL     1      -8.129   7.924  68.318  1.00  0.00    -0.123 C  
HETATM   34  N   UNL     1      -6.723   8.374  68.348  1.00  0.00    -0.063 NA 
HETATM   35  C   UNL     1      -5.779   7.463  69.079  1.00  0.00    -0.019 C  
HETATM   36  C   UNL     1      -6.586   9.787  68.649  1.00  0.00    -0.051 C  
HETATM   37  C   UNL     1      -5.340   7.910  70.523  1.00  0.00    -0.023 C  
HETATM   38  C   UNL     1      -6.521   7.784  71.410  1.00  0.00    -0.038 A  
HETATM   39  C   UNL     1      -7.166   8.643  72.265  1.00  0.00    -0.001 A  
HETATM   40  N   UNL     1      -8.381   8.066  72.582  1.00  0.00    -0.150 NA 
HETATM   41  C   UNL     1      -8.510   6.837  71.963  1.00  0.00    -0.112 A  
HETATM   42  H   UNL     1      -9.085   8.489  73.188  1.00  0.00     0.000 HD 
HETATM   43  C   UNL     1      -9.573   5.941  71.853  1.00  0.00    -0.169 A  
HETATM   44  C   UNL     1      -9.374   4.814  71.035  1.00  0.00    -0.208 A  
HETATM   45  C   UNL     1      -8.220   4.659  70.256  1.00  0.00    -0.075 A  
HETATM   46  C   UNL     1      -7.254   5.670  70.242  1.00  0.00    -0.067 A  
HETATM   47  C   UNL     1      -6.297   5.949  69.083  1.00  0.00    -0.041 C  
HETATM   48  C   UNL     1      -7.352   6.658  71.236  1.00  0.00    -0.083 A  
HETATM   49  C   UNL     1      -6.971   5.730  67.710  1.00  0.00    -0.066 C  
ENDBRANCH  29  32
ENDBRANCH  27  29
ENDBRANCH  13  27
TORSDOF 5
ENDMDL
MODEL      222
REMARK 921   NORMALIZED FREE ENERGY PREDICTED BY IDOCK:   49.75 KCAL/MOL
REMARK 922        TOTAL FREE ENERGY PREDICTED BY IDOCK:   62.44 KCAL/MOL
REMARK 923 INTER-LIGAND FREE ENERGY PREDICTED BY IDOCK:   43.16 KCAL/MOL
REMARK 924 INTRA-LIGAND FREE ENERGY PREDICTED BY IDOCK:   19.29 KCAL/MOL
REMARK 927      BINDING AFFINITY PREDICTED BY RF-SCORE:    0.00 PKD
ROOT
HETATM    1  C   UNL     1      -7.492  12.182  68.115  1.00  0.00    -0.114 C  
HETATM    2  C   UNL     1      -6.151  12.008  68.817  1.00  0.00    -0.059 C  
HETATM    3  C   UNL     1      -6.200  10.527  69.292  1.00  0.00    -0.048 C  
HETATM    4  C   UNL     1      -7.653  10.088  69.165  1.00  0.00    -0.096 C  
HETATM    5  N   UNL     1      -8.368  11.287  68.795  1.00  0.00    -0.146 N  
HETATM    6  C   UNL     1      -9.621  11.097  68.271  1.00  0.00    -0.185 C  
HETATM    7  O   UNL     1     -10.339  10.237  68.769  1.00  0.00    -0.175 OA 
HETATM    8  C   UNL     1     -10.041  12.103  67.132  1.00  0.00    -0.206 C  
HETATM    9  C   UNL     1      -8.126  13.474  67.461  1.00  0.00    -0.186 C  
HETATM   10  N   UNL     1      -8.866  12.858  66.415  1.00  0.00    -0.015 N  
HETATM   11  C   UNL     1      -9.035  14.022  65.654  1.00  0.00     0.911 C  
HETATM   12  H   UNL     1      -7.394  15.017  66.638  1.00  0.00     0.000 HD 
HETATM   13  C   UNL     1      -9.726  15.067  66.576  1.00  0.00    -0.266 C  
HETATM   14  O   UNL     1      -8.627  14.145  64.514  1.00  0.00     4.151 OA 
HETATM   15  O   UNL     1      -7.012  14.240  67.032  1.00  0.00    -0.053 OA 
HETATM   16  O   UNL     1      -9.186  14.390  67.877  1.00  0.00    -0.184 OA 
HETATM   17  C   UNL     1     -11.416  15.117  64.408  1.00  0.00    -0.241 C  
HETATM   18  C   UNL     1     -12.528  15.181  66.647  1.00  0.00     0.822 C  
HETATM   19  C   UNL     1     -11.223  14.821  65.933  1.00  0.00    -0.340 C  
ENDROOT
BRANCH   8  20
HETATM   20  C   UNL     1     -11.097  11.389  66.267  1.00  0.00    -0.281 C  
BRANCH  20  21
HETATM   21  C   UNL     1     -10.516  10.995  64.890  1.00  0.00    -0.371 A  
HETATM   22  C   UNL     1      -9.083   9.400  63.767  1.00  0.00    -0.073 A  
HETATM   23  C   UNL     1     -10.902  10.386  62.567  1.00  0.00     1.903 A  
HETATM   24  C   UNL     1     -11.211  11.174  63.671  1.00  0.00    -0.034 A  
HETATM   25  C   UNL     1      -9.872   9.468  62.618  1.00  0.00     1.103 A  
HETATM   26  C   UNL     1      -9.397  10.157  64.892  1.00  0.00    -0.310 A  
ENDBRANCH  20  21
ENDBRANCH   8  20
BRANCH  13  27
HETATM   27  N   UNL     1      -9.203  16.457  66.520  1.00  0.00    -0.255 NA 
HETATM   28  H   UNL     1      -9.049  16.959  65.647  1.00  0.00     0.000 HD 
BRANCH  27  29
HETATM   29  C   UNL     1      -8.963  16.969  67.682  1.00  0.00    -0.221 C  
HETATM   30  H   UNL     1      -9.786  17.840  69.288  1.00  0.00     0.000 HD 
HETATM   31  O   UNL     1      -9.962  17.464  68.434  1.00  0.00    -0.291 OA 
BRANCH  29  32
HETATM   32  C   UNL     1      -7.621  17.157  68.393  1.00  0.00    -0.231 C  
HETATM   33  C   UNL     1      -7.684  17.635  69.841  1.00  0.00     1.317 C  
HETATM   34  N   UNL     1      -6.351  17.499  70.460  1.00  0.00     0.566 NA 
HETATM   35  C   UNL     1      -5.862  16.087  70.612  1.00  0.00     0.085 C  
HETATM   36  C   UNL     1      -6.175  18.350  71.623  1.00  0.00     1.736 C  
HETATM   37  C   UNL     1      -5.948  15.460  72.054  1.00  0.00     1.003 C  
HETATM   38  C   UNL     1      -7.382  15.247  72.364  1.00  0.00     5.104 A  
HETATM   39  C   UNL     1      -8.197  15.619  73.404  1.00  0.00    13.104 A  
HETATM   40  N   UNL     1      -9.501  15.401  73.000  1.00  0.00     6.651 NA 
HETATM   41  C   UNL     1      -9.528  14.867  71.725  1.00  0.00     4.229 A  
HETATM   42  H   UNL     1     -10.327  15.605  73.563  1.00  0.00     0.000 HD 
HETATM   43  C   UNL     1     -10.568  14.601  70.835  1.00  0.00     0.642 A  
HETATM   44  C   UNL     1     -10.209  14.150  69.551  1.00  0.00     0.223 A  
HETATM   45  C   UNL     1      -8.873  14.098  69.133  1.00  0.00     0.231 A  
HETATM   46  C   UNL     1      -7.862  14.554  69.985  1.00  0.00     0.533 A  
HETATM   47  C   UNL     1      -6.515  15.111  69.525  1.00  0.00    -0.151 C  
HETATM   48  C   UNL     1      -8.212  14.767  71.329  1.00  0.00     3.498 A  
HETATM   49  C   UNL     1      -6.645  15.947  68.233  1.00  0.00    -0.123 C  
ENDBRANCH  29  32
ENDBRANCH  27  29
ENDBRANCH  13  27
TORSDOF 5
ENDMDL
MODEL      223
REMARK 921   NORMALIZED FREE ENERGY PREDICTED BY IDOCK:   52.58 KCAL/MOL
REMARK 922        TOTAL FREE ENERGY PREDICTED BY IDOCK:   66.10 KCAL/MOL
REMARK 923 INTER-LIGAND FREE ENERGY PREDICTED BY IDOCK:   56.11 KCAL/MOL
REMARK 924 INTRA-LIGAND FREE ENERGY PREDICTED BY IDOCK:    9.99 KCAL/MOL
REMARK 927      BINDING AFFINITY PREDICTED BY RF-SCORE:    0.00 PKD
ROOT
HETATM    1  C   UNL     1     -13.336   6.711  70.797  1.00  0.00     0.879 C  
HETATM    2  C   UNL     1     -14.400   6.327  71.819  1.00  0.00     0.332 C  
HETATM    3  C   UNL     1     -14.244   4.781  71.914  1.00  0.00     5.064 C  
HETATM    4  C   UNL     1     -13.400   4.365  70.717  1.00  0.00    14.801 C  
HETATM    5  N   UNL     1     -13.236   5.574  69.944  1.00  0.00     8.191 N  
HETATM    6  C   UNL     1     -12.227   5.557  69.016  1.00  0.00     5.548 C  
HETATM    7  O   UNL     1     -12.050   4.535  68.363  1.00  0.00     8.455 OA 
HETATM    8  C   UNL     1     -11.463   6.922  68.818  1.00  0.00     0.193 C  
HETATM    9  C   UNL     1     -12.999   8.125  70.177  1.00  0.00     1.676 C  
HETATM   10  N   UNL     1     -11.600   7.961  69.987  1.00  0.00     0.047 N  
HETATM   11  C   UNL     1     -11.312   9.326  69.856  1.00  0.00    -0.061 C  
HETATM   12  H   UNL     1     -13.155   9.903  70.816  1.00  0.00     0.000 HD 
HETATM   13  C   UNL     1     -12.192   9.862  68.690  1.00  0.00     1.677 C  
HETATM   14  O   UNL     1     -10.558   9.928  70.597  1.00  0.00    -0.296 OA 
HETATM   15  O   UNL     1     -13.358   9.053  71.188  1.00  0.00    -0.242 OA 
HETATM   16  O   UNL     1     -13.258   8.735  68.875  1.00  0.00     5.732 OA 
HETATM   17  C   UNL     1      -9.709  10.722  67.880  1.00  0.00    -0.181 C  
HETATM   18  C   UNL     1     -11.176   9.802  66.076  1.00  0.00     1.376 C  
HETATM   19  C   UNL     1     -10.965   9.832  67.592  1.00  0.00    -0.226 C  
ENDROOT
BRANCH   8  20
HETATM   20  C   UNL     1     -10.055   6.579  68.296  1.00  0.00    -0.171 C  
BRANCH  20  21
HETATM   21  C   UNL     1      -8.999   7.561  68.852  1.00  0.00    -0.134 A  
HETATM   22  C   UNL     1      -6.748   7.703  69.732  1.00  0.00    -0.039 A  
HETATM   23  C   UNL     1      -7.663   9.570  68.549  1.00  0.00    -0.081 A  
HETATM   24  C   UNL     1      -8.875   8.901  68.418  1.00  0.00    -0.134 A  
HETATM   25  C   UNL     1      -6.583   8.966  69.162  1.00  0.00    -0.047 A  
HETATM   26  C   UNL     1      -7.943   7.005  69.583  1.00  0.00    -0.124 A  
ENDBRANCH  20  21
ENDBRANCH   8  20
BRANCH  13  27
HETATM   27  N   UNL     1     -12.855  11.175  68.903  1.00  0.00     0.059 NA 
HETATM   28  H   UNL     1     -13.864  11.278  69.012  1.00  0.00     0.000 HD 
BRANCH  27  29
HETATM   29  C   UNL     1     -12.035  12.172  68.938  1.00  0.00    -0.242 C  
HETATM   30  H   UNL     1     -10.406  12.981  68.097  1.00  0.00     0.000 HD 
HETATM   31  O   UNL     1     -11.009  12.248  68.072  1.00  0.00    -0.206 OA 
BRANCH  29  32
HETATM   32  C   UNL     1     -12.007  13.363  69.899  1.00  0.00    -0.408 C  
HETATM   33  C   UNL     1     -10.694  14.138  69.977  1.00  0.00     0.330 C  
HETATM   34  N   UNL     1     -10.912  15.396  70.717  1.00  0.00    -0.331 NA 
HETATM   35  C   UNL     1     -11.824  16.381  70.043  1.00  0.00     0.240 C  
HETATM   36  C   UNL     1      -9.689  15.953  71.265  1.00  0.00     2.744 C  
HETATM   37  C   UNL     1     -11.139  17.606  69.329  1.00  0.00     0.904 C  
HETATM   38  C   UNL     1     -10.429  17.088  68.135  1.00  0.00    -0.357 A  
HETATM   39  C   UNL     1      -9.139  17.189  67.675  1.00  0.00    -0.227 A  
HETATM   40  N   UNL     1      -8.988  16.248  66.675  1.00  0.00    -0.227 NA 
HETATM   41  C   UNL     1     -10.171  15.566  66.469  1.00  0.00    -0.283 A  
HETATM   42  H   UNL     1      -8.123  16.080  66.160  1.00  0.00     0.000 HD 
HETATM   43  C   UNL     1     -10.500  14.456  65.690  1.00  0.00    -0.347 A  
HETATM   44  C   UNL     1     -11.809  13.955  65.814  1.00  0.00    -0.393 A  
HETATM   45  C   UNL     1     -12.704  14.453  66.769  1.00  0.00     0.414 A  
HETATM   46  C   UNL     1     -12.282  15.439  67.667  1.00  0.00     0.551 A  
HETATM   47  C   UNL     1     -12.862  15.657  69.064  1.00  0.00     0.928 C  
HETATM   48  C   UNL     1     -11.071  16.088  67.374  1.00  0.00    -0.167 A  
HETATM   49  C   UNL     1     -13.231  14.324  69.752  1.00  0.00     0.896 C  
ENDBRANCH  29  32
ENDBRANCH  27  29
ENDBRANCH  13  27
TORSDOF 5
ENDMDL
MODEL      224
REMARK 921   NORMALIZED FREE ENERGY PREDICTED BY IDOCK:   54.63 KCAL/MOL
REMARK 922        TOTAL FREE ENERGY PREDICTED BY IDOCK:   68.75 KCAL/MOL
REMARK 923 INTER-LIGAND FREE ENERGY PREDICTED BY IDOCK:   34.87 KCAL/MOL
REMARK 924 INTRA-LIGAND FREE ENERGY PREDICTED BY IDOCK:   33.88 KCAL/MOL
REMARK 927      BINDING AFFINITY PREDICTED BY RF-SCORE:    0.00 PKD
ROOT
HETATM    1  C   UNL     1      -9.145  13.795  68.056  1.00  0.00    -0.191 C  
HETATM    2  C   UNL     1      -9.733  14.358  66.766  1.00  0.00    -0.278 C  
HETATM    3  C   UNL     1     -10.247  15.759  67.204  1.00  0.00    -0.279 C  
HETATM    4  C   UNL     1     -10.256  15.751  68.727  1.00  0.00    -0.217 C  
HETATM    5  N   UNL     1      -9.920  14.395  69.090  1.00  0.00    -0.133 N  
HETATM    6  C   UNL     1      -9.511  14.208  70.386  1.00  0.00     2.460 C  
HETATM    7  O   UNL     1     -10.091  14.820  71.276  1.00  0.00     1.097 OA 
HETATM    8  C   UNL     1      -8.388  13.121  70.594  1.00  0.00     6.153 C  
HETATM    9  C   UNL     1      -8.516  12.374  68.340  1.00  0.00    -0.131 C  
HETATM   10  N   UNL     1      -7.553  12.743  69.319  1.00  0.00     0.272 N  
HETATM   11  C   UNL     1      -6.781  11.580  69.208  1.00  0.00    -0.118 C  
HETATM   12  H   UNL     1      -7.594  11.113  67.266  1.00  0.00     0.000 HD 
HETATM   13  C   UNL     1      -7.734  10.380  69.477  1.00  0.00    -0.156 C  
HETATM   14  O   UNL     1      -5.607  11.581  68.886  1.00  0.00    -0.046 OA 
HETATM   15  O   UNL     1      -7.973  11.968  67.094  1.00  0.00    -0.164 OA 
HETATM   16  O   UNL     1      -8.999  11.187  69.044  1.00  0.00    -0.126 OA 
HETATM   17  C   UNL     1      -5.719   9.832  71.267  1.00  0.00    -0.068 C  
HETATM   18  C   UNL     1      -8.044   9.448  72.104  1.00  0.00     1.111 C  
HETATM   19  C   UNL     1      -7.229  10.174  71.031  1.00  0.00     0.701 C  
ENDROOT
BRANCH   8  20
HETATM   20  C   UNL     1      -7.636  13.492  71.886  1.00  0.00     7.544 C  
BRANCH  20  21
HETATM   21  C   UNL     1      -6.640  12.381  72.290  1.00  0.00     5.260 A  
HETATM   22  C   UNL     1      -6.361  10.444  73.715  1.00  0.00     2.070 A  
HETATM   23  C   UNL     1      -5.195  10.541  71.629  1.00  0.00    -0.016 A  
HETATM   24  C   UNL     1      -5.697  11.818  71.400  1.00  0.00     0.389 A  
HETATM   25  C   UNL     1      -5.554   9.830  72.756  1.00  0.00     0.227 A  
HETATM   26  C   UNL     1      -6.898  11.708  73.490  1.00  0.00     7.716 A  
ENDBRANCH  20  21
ENDBRANCH   8  20
BRANCH  13  27
HETATM   27  N   UNL     1      -7.598   9.205  68.577  1.00  0.00    -0.085 NA 
HETATM   28  H   UNL     1      -6.934   9.168  67.805  1.00  0.00     0.000 HD 
BRANCH  27  29
HETATM   29  C   UNL     1      -8.399   8.233  68.867  1.00  0.00    -0.127 C  
HETATM   30  H   UNL     1      -9.645   6.859  68.109  1.00  0.00     0.000 HD 
HETATM   31  O   UNL     1      -9.056   7.573  67.897  1.00  0.00    -0.131 OA 
BRANCH  29  32
HETATM   32  C   UNL     1      -8.788   7.683  70.240  1.00  0.00    -0.145 C  
HETATM   33  C   UNL     1     -10.028   6.792  70.285  1.00  0.00    -0.178 C  
HETATM   34  N   UNL     1     -10.106   6.128  71.601  1.00  0.00    -0.185 NA 
HETATM   35  C   UNL     1      -9.001   5.151  71.886  1.00  0.00    -0.134 C  
HETATM   36  C   UNL     1     -11.444   5.671  71.929  1.00  0.00    -0.094 C  
HETATM   37  C   UNL     1      -9.356   3.623  71.749  1.00  0.00    -0.195 C  
HETATM   38  C   UNL     1      -9.557   3.337  70.308  1.00  0.00    -0.198 A  
HETATM   39  C   UNL     1     -10.571   2.763  69.583  1.00  0.00     2.933 A  
HETATM   40  N   UNL     1     -10.332   3.046  68.252  1.00  0.00     1.119 NA 
HETATM   41  C   UNL     1      -9.162   3.768  68.113  1.00  0.00    -0.163 A  
HETATM   42  H   UNL     1     -10.934   2.761  67.479  1.00  0.00     0.000 HD 
HETATM   43  C   UNL     1      -8.565   4.400  67.022  1.00  0.00    -0.104 A  
HETATM   44  C   UNL     1      -7.405   5.154  67.279  1.00  0.00    -0.082 A  
HETATM   45  C   UNL     1      -6.942   5.379  68.582  1.00  0.00    -0.060 A  
HETATM   46  C   UNL     1      -7.672   4.891  69.670  1.00  0.00    -0.063 A  
HETATM   47  C   UNL     1      -7.671   5.503  71.071  1.00  0.00    -0.103 C  
HETATM   48  C   UNL     1      -8.676   3.948  69.391  1.00  0.00    -0.124 A  
HETATM   49  C   UNL     1      -7.599   7.046  71.028  1.00  0.00    -0.086 C  
ENDBRANCH  29  32
ENDBRANCH  27  29
ENDBRANCH  13  27
TORSDOF 5
ENDMDL
MODEL      225
REMARK 921   NORMALIZED FREE ENERGY PREDICTED BY IDOCK:   85.52 KCAL/MOL
REMARK 922        TOTAL FREE ENERGY PREDICTED BY IDOCK:  108.67 KCAL/MOL
REMARK 923 INTER-LIGAND FREE ENERGY PREDICTED BY IDOCK:   28.16 KCAL/MOL
REMARK 924 INTRA-LIGAND FREE ENERGY PREDICTED BY IDOCK:   80.51 KCAL/MOL
REMARK 927      BINDING AFFINITY PREDICTED BY RF-SCORE:    0.00 PKD
ROOT
HETATM    1  C   UNL     1      -8.235  13.814  70.704  1.00  0.00     4.027 C  
HETATM    2  C   UNL     1      -7.159  14.588  71.457  1.00  0.00     2.046 C  
HETATM    3  C   UNL     1      -7.699  16.047  71.427  1.00  0.00     5.111 C  
HETATM    4  C   UNL     1      -8.807  16.068  70.383  1.00  0.00     1.689 C  
HETATM    5  N   UNL     1      -8.769  14.757  69.779  1.00  0.00     0.210 N  
HETATM    6  C   UNL     1      -9.884  14.394  69.068  1.00  0.00    -0.101 C  
HETATM    7  O   UNL     1     -10.428  15.238  68.364  1.00  0.00    -0.229 OA 
HETATM    8  C   UNL     1     -10.282  12.872  69.158  1.00  0.00     0.258 C  
HETATM    9  C   UNL     1      -8.283  12.286  70.304  1.00  0.00     4.164 C  
HETATM   10  N   UNL     1      -9.687  12.077  70.374  1.00  0.00     3.796 N  
HETATM   11  C   UNL     1      -9.622  10.679  70.437  1.00  0.00     1.204 C  
HETATM   12  H   UNL     1      -7.561  10.710  71.073  1.00  0.00     0.000 HD 
HETATM   13  C   UNL     1      -8.834  10.208  69.181  1.00  0.00    -0.175 C  
HETATM   14  O   UNL     1     -10.059  10.027  71.367  1.00  0.00     0.352 OA 
HETATM   15  O   UNL     1      -7.532  11.629  71.313  1.00  0.00     4.099 OA 
HETATM   16  O   UNL     1      -8.087  11.574  69.043  1.00  0.00    -0.081 OA 
HETATM   17  C   UNL     1     -11.099   8.666  68.958  1.00  0.00     0.191 C  
HETATM   18  C   UNL     1     -10.240   9.641  66.822  1.00  0.00    -0.308 C  
HETATM   19  C   UNL     1     -10.187   9.781  68.345  1.00  0.00    -0.210 C  
ENDROOT
BRANCH   8  20
HETATM   20  C   UNL     1     -11.795  12.785  68.888  1.00  0.00    -0.351 C  
BRANCH  20  21
HETATM   21  C   UNL     1     -12.595  13.617  69.916  1.00  0.00    -0.116 A  
HETATM   22  C   UNL     1     -12.429  14.756  72.047  1.00  0.00    -0.410 A  
HETATM   23  C   UNL     1     -13.963  15.568  70.400  1.00  0.00     0.804 A  
HETATM   24  C   UNL     1     -13.630  14.512  69.559  1.00  0.00     2.489 A  
HETATM   25  C   UNL     1     -13.340  15.725  71.622  1.00  0.00    -0.428 A  
HETATM   26  C   UNL     1     -12.061  13.709  71.206  1.00  0.00    -0.128 A  
ENDBRANCH  20  21
ENDBRANCH   8  20
BRANCH  13  27
HETATM   27  N   UNL     1      -7.822   9.140  69.390  1.00  0.00    -0.092 NA 
HETATM   28  H   UNL     1      -8.027   8.263  69.867  1.00  0.00     0.000 HD 
BRANCH  27  29
HETATM   29  C   UNL     1      -6.657   9.427  68.910  1.00  0.00    -0.047 C  
HETATM   30  H   UNL     1      -4.786   9.976  69.372  1.00  0.00     0.000 HD 
HETATM   31  O   UNL     1      -5.642   9.765  69.725  1.00  0.00    -0.036 OA 
BRANCH  29  32
HETATM   32  C   UNL     1      -6.206   9.488  67.449  1.00  0.00    -0.060 C  
HETATM   33  C   UNL     1      -7.136   8.840  66.426  1.00  0.00    -0.083 C  
HETATM   34  N   UNL     1      -6.709   9.222  65.066  1.00  0.00    -0.076 NA 
HETATM   35  C   UNL     1      -6.848  10.682  64.742  1.00  0.00     0.153 C  
HETATM   36  C   UNL     1      -7.186   8.308  64.043  1.00  0.00    -0.090 C  
HETATM   37  C   UNL     1      -8.071  11.094  63.840  1.00  0.00     0.582 C  
HETATM   38  C   UNL     1      -9.303  10.914  64.646  1.00  0.00    -0.256 A  
HETATM   39  C   UNL     1     -10.479  10.234  64.449  1.00  0.00     0.361 A  
HETATM   40  N   UNL     1     -11.125  10.175  65.669  1.00  0.00     0.647 NA 
HETATM   41  C   UNL     1     -10.391  10.834  66.638  1.00  0.00    -0.241 A  
HETATM   42  H   UNL     1     -12.019   9.711  65.833  1.00  0.00     0.000 HD 
HETATM   43  C   UNL     1     -10.535  10.943  68.021  1.00  0.00    -0.222 A  
HETATM   44  C   UNL     1      -9.514  11.617  68.716  1.00  0.00    -0.068 A  
HETATM   45  C   UNL     1      -8.340  12.041  68.079  1.00  0.00    -0.162 A  
HETATM   46  C   UNL     1      -8.141  11.746  66.727  1.00  0.00    -0.133 A  
HETATM   47  C   UNL     1      -6.776  11.592  66.056  1.00  0.00     0.369 C  
HETATM   48  C   UNL     1      -9.259  11.297  66.003  1.00  0.00    -0.224 A  
HETATM   49  C   UNL     1      -5.749  10.909  66.986  1.00  0.00    -0.059 C  
ENDBRANCH  29  32
ENDBRANCH  27  29
ENDBRANCH  13  27
TORSDOF 5
ENDMDL
MODEL      226
REMARK 921   NORMALIZED FREE ENERGY PREDICTED BY IDOCK:   92.44 KCAL/MOL
REMARK 922        TOTAL FREE ENERGY PREDICTED BY IDOCK:  117.62 KCAL/MOL
REMARK 923 INTER-LIGAND FREE ENERGY PREDICTED BY IDOCK:  103.06 KCAL/MOL
REMARK 924 INTRA-LIGAND FREE ENERGY PREDICTED BY IDOCK:   14.56 KCAL/MOL
REMARK 927      BINDING AFFINITY PREDICTED BY RF-SCORE:    0.00 PKD
ROOT
HETATM    1  C   UNL     1     -13.512   6.551  70.687  1.00  0.00     1.696 C  
HETATM    2  C   UNL     1     -14.273   6.289  71.981  1.00  0.00     0.307 C  
HETATM    3  C   UNL     1     -14.409   4.739  71.994  1.00  0.00     4.688 C  
HETATM    4  C   UNL     1     -14.064   4.271  70.586  1.00  0.00    18.024 C  
HETATM    5  N   UNL     1     -13.903   5.486  69.823  1.00  0.00    11.317 N  
HETATM    6  C   UNL     1     -13.244   5.358  68.628  1.00  0.00    16.424 C  
HETATM    7  O   UNL     1     -13.480   4.376  67.933  1.00  0.00    21.478 OA 
HETATM    8  C   UNL     1     -12.318   6.570  68.228  1.00  0.00     4.243 C  
HETATM    9  C   UNL     1     -13.101   7.923  70.020  1.00  0.00     2.170 C  
HETATM   10  N   UNL     1     -11.887   7.520  69.401  1.00  0.00     0.669 N  
HETATM   11  C   UNL     1     -11.385   8.815  69.213  1.00  0.00     0.393 C  
HETATM   12  H   UNL     1     -12.700   9.643  70.708  1.00  0.00     0.000 HD 
HETATM   13  C   UNL     1     -12.449   9.594  68.388  1.00  0.00     3.972 C  
HETATM   14  O   UNL     1     -10.338   9.206  69.695  1.00  0.00    -0.203 OA 
HETATM   15  O   UNL     1     -12.947   8.818  71.110  1.00  0.00    -0.232 OA 
HETATM   16  O   UNL     1     -13.613   8.673  68.874  1.00  0.00     7.435 OA 
HETATM   17  C   UNL     1     -10.205  10.044  66.864  1.00  0.00    -0.299 C  
HETATM   18  C   UNL     1     -12.300   9.557  65.588  1.00  0.00    10.656 C  
HETATM   19  C   UNL     1     -11.641   9.427  66.963  1.00  0.00     2.203 C  
ENDROOT
BRANCH   8  20
HETATM   20  C   UNL     1     -11.231   6.016  67.288  1.00  0.00    -0.071 C  
BRANCH  20  21
HETATM   21  C   UNL     1     -10.183   5.193  68.071  1.00  0.00    -0.178 A  
HETATM   22  C   UNL     1      -8.489   3.480  67.840  1.00  0.00    -0.108 A  
HETATM   23  C   UNL     1      -8.240   5.152  69.533  1.00  0.00    -0.093 A  
HETATM   24  C   UNL     1      -9.473   5.695  69.186  1.00  0.00    -0.161 A  
HETATM   25  C   UNL     1      -7.720   4.077  68.840  1.00  0.00    -0.054 A  
HETATM   26  C   UNL     1      -9.710   4.028  67.459  1.00  0.00    -0.177 A  
ENDBRANCH  20  21
ENDBRANCH   8  20
BRANCH  13  27
HETATM   27  N   UNL     1     -12.741  10.986  68.822  1.00  0.00    -0.205 NA 
HETATM   28  H   UNL     1     -13.659  11.286  69.150  1.00  0.00     0.000 HD 
BRANCH  27  29
HETATM   29  C   UNL     1     -11.724  11.779  68.745  1.00  0.00    -0.329 C  
HETATM   30  H   UNL     1      -9.856  12.111  69.389  1.00  0.00     0.000 HD 
HETATM   31  O   UNL     1     -10.604  11.528  69.445  1.00  0.00    -0.145 OA 
BRANCH  29  32
HETATM   32  C   UNL     1     -11.576  13.081  67.957  1.00  0.00    -0.383 C  
HETATM   33  C   UNL     1     -10.489  14.042  68.435  1.00  0.00    -0.253 C  
HETATM   34  N   UNL     1     -10.290  15.098  67.422  1.00  0.00    -0.241 NA 
HETATM   35  C   UNL     1      -9.740  14.623  66.108  1.00  0.00    -0.319 C  
HETATM   36  C   UNL     1      -9.670  16.293  67.963  1.00  0.00    -0.230 C  
HETATM   37  C   UNL     1      -8.213  14.895  65.840  1.00  0.00     1.734 C  
HETATM   38  C   UNL     1      -7.436  14.019  66.750  1.00  0.00     0.864 A  
HETATM   39  C   UNL     1      -6.440  14.243  67.668  1.00  0.00    -0.132 A  
HETATM   40  N   UNL     1      -6.322  13.096  68.430  1.00  0.00    -0.076 NA 
HETATM   41  C   UNL     1      -7.208  12.131  67.992  1.00  0.00    -0.099 A  
HETATM   42  H   UNL     1      -5.670  12.978  69.206  1.00  0.00     0.000 HD 
HETATM   43  C   UNL     1      -7.570  10.882  68.496  1.00  0.00    -0.111 A  
HETATM   44  C   UNL     1      -8.612  10.205  67.834  1.00  0.00    -0.118 A  
HETATM   45  C   UNL     1      -9.349  10.806  66.805  1.00  0.00    -0.182 A  
HETATM   46  C   UNL     1      -9.087  12.133  66.450  1.00  0.00    -0.177 A  
HETATM   47  C   UNL     1     -10.105  13.090  65.830  1.00  0.00    -0.294 C  
HETATM   48  C   UNL     1      -7.900  12.701  66.945  1.00  0.00     0.047 A  
HETATM   49  C   UNL     1     -11.522  12.882  66.408  1.00  0.00    -0.389 C  
ENDBRANCH  29  32
ENDBRANCH  27  29
ENDBRANCH  13  27
TORSDOF 5
ENDMDL
MODEL      227
REMARK 921   NORMALIZED FREE ENERGY PREDICTED BY IDOCK:   95.27 KCAL/MOL
REMARK 922        TOTAL FREE ENERGY PREDICTED BY IDOCK:  121.28 KCAL/MOL
REMARK 923 INTER-LIGAND FREE ENERGY PREDICTED BY IDOCK:   94.31 KCAL/MOL
REMARK 924 INTRA-LIGAND FREE ENERGY PREDICTED BY IDOCK:   26.96 KCAL/MOL
REMARK 927      BINDING AFFINITY PREDICTED BY RF-SCORE:    0.00 PKD
ROOT
HETATM    1  C   UNL     1      -8.552  12.604  68.133  1.00  0.00    -0.188 C  
HETATM    2  C   UNL     1      -8.239  11.602  69.238  1.00  0.00     0.360 C  
HETATM    3  C   UNL     1      -7.696  12.509  70.381  1.00  0.00     3.652 C  
HETATM    4  C   UNL     1      -7.396  13.859  69.745  1.00  0.00     0.413 C  
HETATM    5  N   UNL     1      -7.614  13.658  68.332  1.00  0.00    -0.125 N  
HETATM    6  C   UNL     1      -7.762  14.796  67.582  1.00  0.00    -0.182 C  
HETATM    7  O   UNL     1      -7.043  15.758  67.830  1.00  0.00    -0.114 OA 
HETATM    8  C   UNL     1      -8.790  14.697  66.390  1.00  0.00    -0.078 C  
HETATM    9  C   UNL     1      -9.070  12.351  66.661  1.00  0.00    -0.204 C  
HETATM   10  N   UNL     1      -9.840  13.533  66.485  1.00  0.00    -0.284 N  
HETATM   11  C   UNL     1     -10.582  13.060  65.394  1.00  0.00    -0.292 C  
HETATM   12  H   UNL     1     -10.139  11.003  65.865  1.00  0.00     0.000 HD 
HETATM   13  C   UNL     1      -9.557  12.637  64.303  1.00  0.00     0.265 C  
HETATM   14  O   UNL     1     -11.794  12.961  65.399  1.00  0.00    -0.357 OA 
HETATM   15  O   UNL     1      -9.827  11.155  66.750  1.00  0.00    -0.193 OA 
HETATM   16  O   UNL     1      -8.424  12.394  65.351  1.00  0.00     0.930 OA 
HETATM   17  C   UNL     1     -11.176  14.316  62.846  1.00  0.00     3.708 C  
HETATM   18  C   UNL     1      -8.723  14.529  62.408  1.00  0.00    21.922 C  
HETATM   19  C   UNL     1      -9.750  14.013  63.419  1.00  0.00     5.837 C  
ENDROOT
BRANCH   8  20
HETATM   20  C   UNL     1      -9.293  16.124  66.109  1.00  0.00    -0.372 C  
BRANCH  20  21
HETATM   21  C   UNL     1      -9.974  16.732  67.356  1.00  0.00    -0.267 A  
HETATM   22  C   UNL     1     -11.646  16.315  69.057  1.00  0.00    -0.231 A  
HETATM   23  C   UNL     1      -9.765  17.697  69.578  1.00  0.00     0.287 A  
HETATM   24  C   UNL     1      -9.312  17.586  68.268  1.00  0.00    -0.281 A  
HETATM   25  C   UNL     1     -10.901  17.033  69.994  1.00  0.00     0.239 A  
HETATM   26  C   UNL     1     -11.192  16.167  67.749  1.00  0.00    -0.199 A  
ENDBRANCH  20  21
ENDBRANCH   8  20
BRANCH  13  27
HETATM   27  N   UNL     1      -9.825  11.356  63.598  1.00  0.00    -0.314 NA 
HETATM   28  H   UNL     1      -9.086  10.755  63.234  1.00  0.00     0.000 HD 
BRANCH  27  29
HETATM   29  C   UNL     1     -11.081  11.074  63.490  1.00  0.00     0.191 C  
HETATM   30  H   UNL     1     -12.818  11.633  62.660  1.00  0.00     0.000 HD 
HETATM   31  O   UNL     1     -11.894  11.839  62.740  1.00  0.00     0.177 OA 
BRANCH  29  32
HETATM   32  C   UNL     1     -11.876   9.948  64.153  1.00  0.00     7.372 C  
HETATM   33  C   UNL     1     -11.435   8.523  63.822  1.00  0.00    16.593 C  
HETATM   34  N   UNL     1     -12.104   7.579  64.739  1.00  0.00    14.940 NA 
HETATM   35  C   UNL     1     -11.710   7.708  66.182  1.00  0.00     5.364 C  
HETATM   36  C   UNL     1     -12.150   6.223  64.222  1.00  0.00    10.710 C  
HETATM   37  C   UNL     1     -10.709   6.628  66.741  1.00  0.00    -0.329 C  
HETATM   38  C   UNL     1      -9.388   6.875  66.115  1.00  0.00    -0.089 A  
HETATM   39  C   UNL     1      -8.505   6.092  65.413  1.00  0.00    -0.138 A  
HETATM   40  N   UNL     1      -7.592   6.941  64.818  1.00  0.00    -0.100 NA 
HETATM   41  C   UNL     1      -7.861   8.254  65.153  1.00  0.00    -0.120 A  
HETATM   42  H   UNL     1      -6.825   6.640  64.216  1.00  0.00     0.000 HD 
HETATM   43  C   UNL     1      -7.333   9.469  64.715  1.00  0.00    -0.112 A  
HETATM   44  C   UNL     1      -7.940  10.641  65.204  1.00  0.00    -0.036 A  
HETATM   45  C   UNL     1      -9.104  10.602  65.984  1.00  0.00    -0.201 A  
HETATM   46  C   UNL     1      -9.720   9.374  66.247  1.00  0.00    -0.330 A  
HETATM   47  C   UNL     1     -11.210   9.186  66.533  1.00  0.00     1.305 C  
HETATM   48  C   UNL     1      -8.976   8.216  65.963  1.00  0.00    -0.213 A  
HETATM   49  C   UNL     1     -12.085  10.139  65.689  1.00  0.00     5.399 C  
ENDBRANCH  29  32
ENDBRANCH  27  29
ENDBRANCH  13  27
TORSDOF 5
ENDMDL
MODEL      228
REMARK 921   NORMALIZED FREE ENERGY PREDICTED BY IDOCK:   96.56 KCAL/MOL
REMARK 922        TOTAL FREE ENERGY PREDICTED BY IDOCK:  122.95 KCAL/MOL
REMARK 923 INTER-LIGAND FREE ENERGY PREDICTED BY IDOCK:  116.86 KCAL/MOL
REMARK 924 INTRA-LIGAND FREE ENERGY PREDICTED BY IDOCK:    6.09 KCAL/MOL
REMARK 927      BINDING AFFINITY PREDICTED BY RF-SCORE:    0.00 PKD
ROOT
HETATM    1  C   UNL     1      -7.125   4.901  69.959  1.00  0.00    -0.053 C  
HETATM    2  C   UNL     1      -6.090   3.827  70.274  1.00  0.00    -0.019 C  
HETATM    3  C   UNL     1      -6.930   2.518  70.238  1.00  0.00    -0.033 C  
HETATM    4  C   UNL     1      -8.390   2.949  70.277  1.00  0.00    -0.048 C  
HETATM    5  N   UNL     1      -8.347   4.379  70.474  1.00  0.00    -0.073 N  
HETATM    6  C   UNL     1      -9.504   5.057  70.187  1.00  0.00    -0.169 C  
HETATM    7  O   UNL     1     -10.573   4.553  70.514  1.00  0.00     0.051 OA 
HETATM    8  C   UNL     1      -9.314   6.487  69.551  1.00  0.00    -0.147 C  
HETATM    9  C   UNL     1      -6.963   6.473  69.908  1.00  0.00    -0.066 C  
HETATM   10  N   UNL     1      -7.916   6.766  68.894  1.00  0.00    -0.114 N  
HETATM   11  C   UNL     1      -7.430   8.048  68.607  1.00  0.00    -0.098 C  
HETATM   12  H   UNL     1      -5.513   7.625  69.502  1.00  0.00     0.000 HD 
HETATM   13  C   UNL     1      -7.452   8.847  69.942  1.00  0.00    -0.058 C  
HETATM   14  O   UNL     1      -7.017   8.381  67.512  1.00  0.00    -0.072 OA 
HETATM   15  O   UNL     1      -5.611   6.680  69.533  1.00  0.00    -0.014 OA 
HETATM   16  O   UNL     1      -7.364   7.551  70.809  1.00  0.00    -0.066 OA 
HETATM   17  C   UNL     1      -8.844  10.564  68.306  1.00  0.00    -0.139 C  
HETATM   18  C   UNL     1      -9.752  10.302  70.622  1.00  0.00     0.676 C  
HETATM   19  C   UNL     1      -8.844   9.649  69.577  1.00  0.00    -0.197 C  
ENDROOT
BRANCH   8  20
HETATM   20  C   UNL     1     -10.586   6.791  68.738  1.00  0.00    -0.258 C  
BRANCH  20  21
HETATM   21  C   UNL     1     -10.893   5.655  67.736  1.00  0.00    -0.176 A  
HETATM   22  C   UNL     1     -11.436   5.198  65.421  1.00  0.00     1.028 A  
HETATM   23  C   UNL     1     -10.214   3.572  66.680  1.00  0.00     0.849 A  
HETATM   24  C   UNL     1     -10.317   4.366  67.818  1.00  0.00     0.206 A  
HETATM   25  C   UNL     1     -10.728   3.996  65.472  1.00  0.00     0.256 A  
HETATM   26  C   UNL     1     -11.522   6.020  66.541  1.00  0.00     0.652 A  
ENDBRANCH  20  21
ENDBRANCH   8  20
BRANCH  13  27
HETATM   27  N   UNL     1      -6.263   9.689  70.236  1.00  0.00    -0.061 NA 
HETATM   28  H   UNL     1      -5.315   9.425  69.972  1.00  0.00     0.000 HD 
BRANCH  27  29
HETATM   29  C   UNL     1      -6.544  10.786  70.858  1.00  0.00     0.600 C  
HETATM   30  H   UNL     1      -7.643  11.602  72.322  1.00  0.00     0.000 HD 
HETATM   31  O   UNL     1      -7.436  10.796  71.864  1.00  0.00     3.683 OA 
BRANCH  29  32
HETATM   32  C   UNL     1      -6.019  12.200  70.601  1.00  0.00     0.039 C  
HETATM   33  C   UNL     1      -7.015  13.194  70.006  1.00  0.00     0.627 C  
HETATM   34  N   UNL     1      -6.449  14.555  70.080  1.00  0.00    -0.162 NA 
HETATM   35  C   UNL     1      -6.258  15.090  71.470  1.00  0.00     0.624 C  
HETATM   36  C   UNL     1      -7.058  15.475  69.136  1.00  0.00    -0.164 C  
HETATM   37  C   UNL     1      -7.319  16.136  71.979  1.00  0.00     7.257 C  
HETATM   38  C   UNL     1      -8.599  15.415  72.179  1.00  0.00     7.151 A  
HETATM   39  C   UNL     1      -9.882  15.608  71.731  1.00  0.00     3.263 A  
HETATM   40  N   UNL     1     -10.585  14.448  71.992  1.00  0.00     1.904 NA 
HETATM   41  C   UNL     1      -9.777  13.525  72.629  1.00  0.00    13.465 A  
HETATM   42  H   UNL     1     -11.564  14.294  71.750  1.00  0.00     0.000 HD 
HETATM   43  C   UNL     1      -9.961  12.187  72.976  1.00  0.00    22.299 A  
HETATM   44  C   UNL     1      -8.856  11.513  73.526  1.00  0.00    21.455 A  
HETATM   45  C   UNL     1      -7.589  12.106  73.600  1.00  0.00    14.519 A  
HETATM   46  C   UNL     1      -7.391  13.384  73.067  1.00  0.00     7.776 A  
HETATM   47  C   UNL     1      -6.058  13.914  72.537  1.00  0.00     0.758 C  
HETATM   48  C   UNL     1      -8.541  14.125  72.749  1.00  0.00     9.938 A  
HETATM   49  C   UNL     1      -5.247  12.819  71.811  1.00  0.00    -0.029 C  
ENDBRANCH  29  32
ENDBRANCH  27  29
ENDBRANCH  13  27
TORSDOF 5
ENDMDL
MODEL      229
REMARK 921   NORMALIZED FREE ENERGY PREDICTED BY IDOCK:   99.22 KCAL/MOL
REMARK 922        TOTAL FREE ENERGY PREDICTED BY IDOCK:  126.37 KCAL/MOL
REMARK 923 INTER-LIGAND FREE ENERGY PREDICTED BY IDOCK:  118.76 KCAL/MOL
REMARK 924 INTRA-LIGAND FREE ENERGY PREDICTED BY IDOCK:    7.61 KCAL/MOL
REMARK 927      BINDING AFFINITY PREDICTED BY RF-SCORE:    0.00 PKD
ROOT
HETATM    1  C   UNL     1      -8.803  18.231  68.318  1.00  0.00    -0.287 C  
HETATM    2  C   UNL     1      -8.388  18.763  69.685  1.00  0.00     0.653 C  
HETATM    3  C   UNL     1      -9.167  20.107  69.783  1.00  0.00     0.765 C  
HETATM    4  C   UNL     1      -9.655  20.418  68.375  1.00  0.00     0.055 C  
HETATM    5  N   UNL     1      -9.056  19.400  67.544  1.00  0.00    -0.296 N  
HETATM    6  C   UNL     1      -9.615  19.237  66.303  1.00  0.00    -0.362 C  
HETATM    7  O   UNL     1      -9.955  20.236  65.678  1.00  0.00    -0.340 OA 
HETATM    8  C   UNL     1      -9.660  17.755  65.767  1.00  0.00     0.209 C  
HETATM    9  C   UNL     1      -8.322  16.934  67.554  1.00  0.00    -0.189 C  
HETATM   10  N   UNL     1      -9.520  16.628  66.851  1.00  0.00    -0.228 N  
HETATM   11  C   UNL     1      -9.179  15.301  66.559  1.00  0.00    -0.290 C  
HETATM   12  H   UNL     1      -7.695  15.238  68.123  1.00  0.00     0.000 HD 
HETATM   13  C   UNL     1      -7.825  15.341  65.794  1.00  0.00     2.943 C  
HETATM   14  O   UNL     1      -9.832  14.343  66.929  1.00  0.00    -0.248 OA 
HETATM   15  O   UNL     1      -7.984  16.018  68.582  1.00  0.00    -0.153 OA 
HETATM   16  O   UNL     1      -7.423  16.714  66.423  1.00  0.00    -0.272 OA 
HETATM   17  C   UNL     1      -9.335  13.833  64.060  1.00  0.00     3.556 C  
HETATM   18  C   UNL     1      -7.844  15.536  62.996  1.00  0.00    27.159 C  
HETATM   19  C   UNL     1      -8.519  15.146  64.313  1.00  0.00    10.164 C  
ENDROOT
BRANCH   8  20
HETATM   20  C   UNL     1     -10.824  17.673  64.763  1.00  0.00     1.166 C  
BRANCH  20  21
HETATM   21  C   UNL     1     -11.375  19.078  64.431  1.00  0.00     4.709 A  
HETATM   22  C   UNL     1     -11.844  20.603  62.609  1.00  0.00    11.877 A  
HETATM   23  C   UNL     1     -13.186  20.694  64.588  1.00  0.00    12.556 A  
HETATM   24  C   UNL     1     -12.395  19.712  65.176  1.00  0.00     6.776 A  
HETATM   25  C   UNL     1     -12.948  21.113  63.294  1.00  0.00    10.984 A  
HETATM   26  C   UNL     1     -11.061  19.598  63.170  1.00  0.00    14.968 A  
ENDBRANCH  20  21
ENDBRANCH   8  20
BRANCH  13  27
HETATM   27  N   UNL     1      -6.807  14.331  66.185  1.00  0.00     2.886 NA 
HETATM   28  H   UNL     1      -6.411  13.657  65.532  1.00  0.00     0.000 HD 
BRANCH  27  29
HETATM   29  C   UNL     1      -6.471  14.388  67.432  1.00  0.00     0.120 C  
HETATM   30  H   UNL     1      -5.715  15.559  68.871  1.00  0.00     0.000 HD 
HETATM   31  O   UNL     1      -5.962  15.517  67.955  1.00  0.00    -0.126 OA 
BRANCH  29  32
HETATM   32  C   UNL     1      -6.524  13.288  68.494  1.00  0.00    -0.085 C  
HETATM   33  C   UNL     1      -7.755  12.385  68.472  1.00  0.00    -0.120 C  
HETATM   34  N   UNL     1      -7.527  11.226  69.358  1.00  0.00    -0.043 NA 
HETATM   35  C   UNL     1      -6.438  10.292  68.915  1.00  0.00    -0.051 C  
HETATM   36  C   UNL     1      -8.759  10.591  69.790  1.00  0.00     0.166 C  
HETATM   37  C   UNL     1      -6.894   8.943  68.241  1.00  0.00    -0.065 C  
HETATM   38  C   UNL     1      -7.471   9.277  66.917  1.00  0.00    -0.091 A  
HETATM   39  C   UNL     1      -8.666   8.997  66.301  1.00  0.00    -0.135 A  
HETATM   40  N   UNL     1      -8.761   9.827  65.200  1.00  0.00    -0.156 NA 
HETATM   41  C   UNL     1      -7.630  10.613  65.087  1.00  0.00     0.027 A  
HETATM   42  H   UNL     1      -9.554   9.855  64.559  1.00  0.00     0.000 HD 
HETATM   43  C   UNL     1      -7.300  11.681  64.252  1.00  0.00     2.588 A  
HETATM   44  C   UNL     1      -6.075  12.328  64.500  1.00  0.00     6.543 A  
HETATM   45  C   UNL     1      -5.283  12.015  65.612  1.00  0.00     1.760 A  
HETATM   46  C   UNL     1      -5.735  11.070  66.539  1.00  0.00    -0.119 A  
HETATM   47  C   UNL     1      -5.344  11.037  68.017  1.00  0.00    -0.042 C  
HETATM   48  C   UNL     1      -6.824  10.270  66.153  1.00  0.00    -0.115 A  
HETATM   49  C   UNL     1      -5.207  12.456  68.611  1.00  0.00    -0.054 C  
ENDBRANCH  29  32
ENDBRANCH  27  29
ENDBRANCH  13  27
TORSDOF 5
ENDMDL
MODEL      230
REMARK 921   NORMALIZED FREE ENERGY PREDICTED BY IDOCK:  105.82 KCAL/MOL
REMARK 922        TOTAL FREE ENERGY PREDICTED BY IDOCK:  134.91 KCAL/MOL
REMARK 923 INTER-LIGAND FREE ENERGY PREDICTED BY IDOCK:   81.34 KCAL/MOL
REMARK 924 INTRA-LIGAND FREE ENERGY PREDICTED BY IDOCK:   53.57 KCAL/MOL
REMARK 927      BINDING AFFINITY PREDICTED BY RF-SCORE:    0.00 PKD
ROOT
HETATM    1  C   UNL     1     -10.906  10.509  64.489  1.00  0.00     0.478 C  
HETATM    2  C   UNL     1     -11.036   9.326  63.536  1.00  0.00     8.540 C  
HETATM    3  C   UNL     1     -10.122   9.741  62.347  1.00  0.00     1.219 C  
HETATM    4  C   UNL     1      -9.844  11.227  62.523  1.00  0.00     0.074 C  
HETATM    5  N   UNL     1     -10.669  11.627  63.638  1.00  0.00    -0.399 N  
HETATM    6  C   UNL     1     -10.340  12.821  64.228  1.00  0.00    -0.377 C  
HETATM    7  O   UNL     1     -10.009  13.756  63.508  1.00  0.00     1.417 OA 
HETATM    8  C   UNL     1     -10.532  12.883  65.791  1.00  0.00    -0.278 C  
HETATM    9  C   UNL     1     -11.633  10.777  65.867  1.00  0.00     1.104 C  
HETATM   10  N   UNL     1     -10.603  11.499  66.530  1.00  0.00    -0.248 N  
HETATM   11  C   UNL     1     -11.117  11.329  67.822  1.00  0.00    -0.271 C  
HETATM   12  H   UNL     1     -12.324   9.645  67.222  1.00  0.00     0.000 HD 
HETATM   13  C   UNL     1     -12.568  11.892  67.807  1.00  0.00     1.811 C  
HETATM   14  O   UNL     1     -10.512  10.772  68.718  1.00  0.00    -0.178 OA 
HETATM   15  O   UNL     1     -11.887   9.484  66.393  1.00  0.00     2.583 OA 
HETATM   16  O   UNL     1     -12.723  11.663  66.269  1.00  0.00     1.458 OA 
HETATM   17  C   UNL     1     -11.521  13.264  69.947  1.00  0.00    -0.170 C  
HETATM   18  C   UNL     1     -12.989  14.596  68.422  1.00  0.00     1.736 C  
HETATM   19  C   UNL     1     -12.149  13.319  68.514  1.00  0.00    -0.256 C  
ENDROOT
BRANCH   8  20
HETATM   20  C   UNL     1      -9.561  13.954  66.322  1.00  0.00    -0.274 C  
BRANCH  20  21
HETATM   21  C   UNL     1      -9.036  13.583  67.728  1.00  0.00    -0.201 A  
HETATM   22  C   UNL     1      -7.181  12.566  68.906  1.00  0.00    -0.050 A  
HETATM   23  C   UNL     1      -8.450  14.285  69.982  1.00  0.00     1.262 A  
HETATM   24  C   UNL     1      -9.307  14.346  68.887  1.00  0.00    -0.096 A  
HETATM   25  C   UNL     1      -7.363  13.435  69.983  1.00  0.00     1.069 A  
HETATM   26  C   UNL     1      -8.009  12.635  67.789  1.00  0.00    -0.158 A  
ENDBRANCH  20  21
ENDBRANCH   8  20
BRANCH  13  27
HETATM   27  N   UNL     1     -13.603  11.087  68.506  1.00  0.00     4.586 NA 
HETATM   28  H   UNL     1     -14.277  11.489  69.156  1.00  0.00     0.000 HD 
BRANCH  27  29
HETATM   29  C   UNL     1     -13.570   9.829  68.213  1.00  0.00    11.045 C  
HETATM   30  H   UNL     1     -14.066   7.990  68.834  1.00  0.00     0.000 HD 
HETATM   31  O   UNL     1     -14.091   8.914  69.049  1.00  0.00     6.502 OA 
BRANCH  29  32
HETATM   32  C   UNL     1     -12.956   9.141  66.991  1.00  0.00    14.647 C  
HETATM   33  C   UNL     1     -11.508   9.502  66.668  1.00  0.00     1.922 C  
HETATM   34  N   UNL     1     -10.985   8.565  65.655  1.00  0.00     3.146 NA 
HETATM   35  C   UNL     1     -10.864   7.139  66.110  1.00  0.00     1.452 C  
HETATM   36  C   UNL     1      -9.839   9.089  64.934  1.00  0.00     0.836 C  
HETATM   37  C   UNL     1      -9.418   6.632  66.474  1.00  0.00    -0.192 C  
HETATM   38  C   UNL     1      -9.007   7.313  67.725  1.00  0.00    -0.126 A  
HETATM   39  C   UNL     1      -7.912   8.059  68.088  1.00  0.00    -0.128 A  
HETATM   40  N   UNL     1      -8.224   8.686  69.279  1.00  0.00    -0.112 NA 
HETATM   41  C   UNL     1      -9.491   8.329  69.697  1.00  0.00    -0.163 A  
HETATM   42  H   UNL     1      -7.604   9.324  69.780  1.00  0.00     0.000 HD 
HETATM   43  C   UNL     1     -10.306   8.780  70.736  1.00  0.00    -0.264 A  
HETATM   44  C   UNL     1     -11.610   8.256  70.797  1.00  0.00    -0.250 A  
HETATM   45  C   UNL     1     -12.122   7.427  69.790  1.00  0.00     0.615 A  
HETATM   46  C   UNL     1     -11.344   7.147  68.662  1.00  0.00     0.214 A  
HETATM   47  C   UNL     1     -11.900   6.798  67.281  1.00  0.00     1.599 C  
HETATM   48  C   UNL     1      -9.979   7.472  68.734  1.00  0.00    -0.175 A  
HETATM   49  C   UNL     1     -13.182   7.596  66.955  1.00  0.00    16.388 C  
ENDBRANCH  29  32
ENDBRANCH  27  29
ENDBRANCH  13  27
TORSDOF 5
ENDMDL
