MODEL        1
REMARK 921   NORMALIZED FREE ENERGY PREDICTED BY IDOCK:   -6.38 KCAL/MOL
REMARK 922        TOTAL FREE ENERGY PREDICTED BY IDOCK:   -8.39 KCAL/MOL
REMARK 923 INTER-LIGAND FREE ENERGY PREDICTED BY IDOCK:   -7.88 KCAL/MOL
REMARK 924 INTRA-LIGAND FREE ENERGY PREDICTED BY IDOCK:   -0.51 KCAL/MOL
REMARK 927      BINDING AFFINITY PREDICTED BY RF-SCORE:    0.00 PKD
ROOT
HETATM    1  C   UNL     1     -12.035  11.364  69.673  1.00  0.00    -0.348 C  
HETATM    2  N   UNL     1     -12.137  12.757  70.087  1.00  0.00    -0.337 N  
HETATM    3 CL   UNL     1     -14.394  15.201  71.212  1.00  0.00    -0.546 Cl 
HETATM    4  C   UNL     1     -12.710  13.093  71.322  1.00  0.00    -0.306 C  
HETATM    5 CL   UNL     1     -12.550  14.808  73.438  1.00  0.00    -0.567 Cl 
HETATM    6  C   UNL     1     -12.794  14.587  71.687  1.00  0.00    -0.338 C  
HETATM    7  O   UNL     1     -13.140  12.215  72.077  1.00  0.00    -0.448 OA 
ENDROOT
BRANCH   2   8
HETATM    8  C   UNL     1     -11.640  13.720  69.188  1.00  0.00    -0.317 A  
HETATM    9  C   UNL     1     -12.312  13.956  67.986  1.00  0.00     0.004 A  
HETATM   10  C   UNL     1     -11.728  14.779  67.024  1.00  0.00    -0.330 A  
HETATM   11  C   UNL     1     -10.488  15.373  67.277  1.00  0.00    -0.282 A  
HETATM   12  C   UNL     1     -10.416  14.340  69.452  1.00  0.00    -0.049 A  
HETATM   13  C   UNL     1      -9.830  15.160  68.486  1.00  0.00    -0.220 A  
BRANCH  11  14
HETATM   14  O   UNL     1      -9.926  16.089  66.198  1.00  0.00    -0.282 OA 
BRANCH  14  15
HETATM   15  C   UNL     1     -10.529  17.216  65.630  1.00  0.00    -0.197 C  
HETATM   16  O   UNL     1     -11.286  17.207  64.667  1.00  0.00    -1.003 OA 
BRANCH  15  17
HETATM   17  C   UNL     1     -10.120  18.401  66.346  1.00  0.00    -0.403 A  
HETATM   18  C   UNL     1     -10.774  19.131  67.325  1.00  0.00    -0.585 A  
HETATM   19  C   UNL     1      -9.922  20.205  67.675  1.00  0.00    -0.560 A  
HETATM   20  C   UNL     1      -8.796  20.067  66.899  1.00  0.00    -0.347 A  
HETATM   21  O   UNL     1      -8.903  18.979  66.093  1.00  0.00    -0.417 OA 
ENDBRANCH  15  17
ENDBRANCH  14  15
ENDBRANCH  11  14
ENDBRANCH   2   8
TORSDOF 4
ENDMDL
MODEL        2
REMARK 921   NORMALIZED FREE ENERGY PREDICTED BY IDOCK:   -6.33 KCAL/MOL
REMARK 922        TOTAL FREE ENERGY PREDICTED BY IDOCK:   -8.32 KCAL/MOL
REMARK 923 INTER-LIGAND FREE ENERGY PREDICTED BY IDOCK:   -7.84 KCAL/MOL
REMARK 924 INTRA-LIGAND FREE ENERGY PREDICTED BY IDOCK:   -0.48 KCAL/MOL
REMARK 927      BINDING AFFINITY PREDICTED BY RF-SCORE:    0.00 PKD
ROOT
HETATM    1  C   UNL     1     -12.111  12.873  63.332  1.00  0.00    -0.530 C  
HETATM    2  N   UNL     1     -11.176  12.491  64.382  1.00  0.00    -0.319 N  
HETATM    3 CL   UNL     1     -10.125   9.795  66.371  1.00  0.00    -0.312 Cl 
HETATM    4  C   UNL     1     -10.315  11.399  64.208  1.00  0.00    -0.328 C  
HETATM    5 CL   UNL     1      -7.807  10.457  64.727  1.00  0.00    -0.125 Cl 
HETATM    6  C   UNL     1      -9.362  11.048  65.365  1.00  0.00    -0.216 C  
HETATM    7  O   UNL     1     -10.337  10.740  63.162  1.00  0.00    -0.255 OA 
ENDROOT
BRANCH   2   8
HETATM    8  C   UNL     1     -11.196  13.269  65.557  1.00  0.00    -0.287 A  
HETATM    9  C   UNL     1     -11.908  12.819  66.672  1.00  0.00    -0.462 A  
HETATM   10  C   UNL     1     -12.070  13.664  67.769  1.00  0.00    -0.325 A  
HETATM   11  C   UNL     1     -11.506  14.943  67.751  1.00  0.00    -0.338 A  
HETATM   12  C   UNL     1     -10.606  14.535  65.553  1.00  0.00    -0.364 A  
HETATM   13  C   UNL     1     -10.773  15.383  66.650  1.00  0.00    -0.309 A  
BRANCH  11  14
HETATM   14  O   UNL     1     -11.826  15.764  68.853  1.00  0.00    -0.393 OA 
BRANCH  14  15
HETATM   15  C   UNL     1     -11.192  15.660  70.095  1.00  0.00    -0.336 C  
HETATM   16  O   UNL     1      -9.983  15.572  70.269  1.00  0.00    -0.226 OA 
BRANCH  15  17
HETATM   17  C   UNL     1     -12.179  15.663  71.149  1.00  0.00    -0.413 A  
HETATM   18  C   UNL     1     -12.048  15.917  72.503  1.00  0.00    -0.611 A  
HETATM   19  C   UNL     1     -13.334  15.776  73.076  1.00  0.00    -0.679 A  
HETATM   20  C   UNL     1     -14.178  15.451  72.040  1.00  0.00    -0.552 A  
HETATM   21  O   UNL     1     -13.492  15.382  70.870  1.00  0.00    -0.460 OA 
ENDBRANCH  15  17
ENDBRANCH  14  15
ENDBRANCH  11  14
ENDBRANCH   2   8
TORSDOF 4
ENDMDL
MODEL        3
REMARK 921   NORMALIZED FREE ENERGY PREDICTED BY IDOCK:   -6.28 KCAL/MOL
REMARK 922        TOTAL FREE ENERGY PREDICTED BY IDOCK:   -8.25 KCAL/MOL
REMARK 923 INTER-LIGAND FREE ENERGY PREDICTED BY IDOCK:   -7.67 KCAL/MOL
REMARK 924 INTRA-LIGAND FREE ENERGY PREDICTED BY IDOCK:   -0.59 KCAL/MOL
REMARK 927      BINDING AFFINITY PREDICTED BY RF-SCORE:    0.00 PKD
ROOT
HETATM    1  C   UNL     1     -12.054  14.234  64.245  1.00  0.00    -0.441 C  
HETATM    2  N   UNL     1     -11.303  14.858  65.327  1.00  0.00    -0.354 N  
HETATM    3 CL   UNL     1      -8.367  16.641  66.053  1.00  0.00    -0.291 Cl 
HETATM    4  C   UNL     1     -10.902  16.197  65.237  1.00  0.00    -0.336 C  
HETATM    5 CL   UNL     1     -10.535  18.495  66.662  1.00  0.00    -0.430 Cl 
HETATM    6  C   UNL     1     -10.103  16.785  66.415  1.00  0.00    -0.317 C  
HETATM    7  O   UNL     1     -11.175  16.871  64.237  1.00  0.00    -1.204 OA 
ENDROOT
BRANCH   2   8
HETATM    8  C   UNL     1     -11.010  14.045  66.440  1.00  0.00    -0.308 A  
HETATM    9  C   UNL     1      -9.813  13.326  66.475  1.00  0.00    -0.281 A  
HETATM   10  C   UNL     1      -9.603  12.394  67.491  1.00  0.00    -0.185 A  
HETATM   11  C   UNL     1     -10.580  12.200  68.470  1.00  0.00    -0.233 A  
HETATM   12  C   UNL     1     -11.973  13.873  67.438  1.00  0.00    -0.436 A  
HETATM   13  C   UNL     1     -11.764  12.936  68.451  1.00  0.00    -0.382 A  
BRANCH  11  14
HETATM   14  O   UNL     1     -10.328  11.153  69.382  1.00  0.00    -0.173 OA 
BRANCH  14  15
HETATM   15  C   UNL     1     -10.886   9.877  69.256  1.00  0.00    -0.227 C  
HETATM   16  O   UNL     1     -10.702   9.111  68.318  1.00  0.00    -0.199 OA 
BRANCH  15  17
HETATM   17  C   UNL     1     -11.722   9.596  70.400  1.00  0.00    -0.202 A  
HETATM   18  C   UNL     1     -12.507  10.438  71.168  1.00  0.00    -0.509 A  
HETATM   19  C   UNL     1     -13.109   9.640  72.170  1.00  0.00    -0.520 A  
HETATM   20  C   UNL     1     -12.664   8.358  71.954  1.00  0.00    -0.355 A  
HETATM   21  O   UNL     1     -11.826   8.318  70.885  1.00  0.00    -0.284 OA 
ENDBRANCH  15  17
ENDBRANCH  14  15
ENDBRANCH  11  14
ENDBRANCH   2   8
TORSDOF 4
ENDMDL
MODEL        4
REMARK 921   NORMALIZED FREE ENERGY PREDICTED BY IDOCK:   -6.25 KCAL/MOL
REMARK 922        TOTAL FREE ENERGY PREDICTED BY IDOCK:   -8.22 KCAL/MOL
REMARK 923 INTER-LIGAND FREE ENERGY PREDICTED BY IDOCK:   -7.77 KCAL/MOL
REMARK 924 INTRA-LIGAND FREE ENERGY PREDICTED BY IDOCK:   -0.45 KCAL/MOL
REMARK 927      BINDING AFFINITY PREDICTED BY RF-SCORE:    0.00 PKD
ROOT
HETATM    1  C   UNL     1      -9.690  15.489  69.797  1.00  0.00    -0.241 C  
HETATM    2  N   UNL     1     -11.024  14.910  69.880  1.00  0.00    -0.251 N  
HETATM    3 CL   UNL     1     -13.076  12.836  71.835  1.00  0.00    -0.498 Cl 
HETATM    4  C   UNL     1     -11.804  15.078  71.033  1.00  0.00    -0.323 C  
HETATM    5 CL   UNL     1     -14.349  15.460  71.943  1.00  0.00    -0.642 Cl 
HETATM    6  C   UNL     1     -13.200  14.429  71.052  1.00  0.00    -0.333 C  
HETATM    7  O   UNL     1     -11.373  15.718  71.998  1.00  0.00    -0.371 OA 
ENDROOT
BRANCH   2   8
HETATM    8  C   UNL     1     -11.467  14.184  68.757  1.00  0.00    -0.299 A  
HETATM    9  C   UNL     1     -11.356  12.791  68.747  1.00  0.00    -0.332 A  
HETATM   10  C   UNL     1     -11.632  12.090  67.573  1.00  0.00    -0.401 A  
HETATM   11  C   UNL     1     -12.033  12.782  66.428  1.00  0.00    -0.375 A  
HETATM   12  C   UNL     1     -11.899  14.871  67.620  1.00  0.00    -0.268 A  
HETATM   13  C   UNL     1     -12.170  14.169  66.445  1.00  0.00    -0.473 A  
BRANCH  11  14
HETATM   14  O   UNL     1     -12.173  11.999  65.262  1.00  0.00    -0.437 OA 
BRANCH  14  15
HETATM   15  C   UNL     1     -11.613  12.353  64.030  1.00  0.00    -0.413 C  
HETATM   16  O   UNL     1     -12.032  13.232  63.287  1.00  0.00    -0.511 OA 
BRANCH  15  17
HETATM   17  C   UNL     1     -10.466  11.520  63.758  1.00  0.00    -0.405 A  
HETATM   18  C   UNL     1     -10.001  10.389  64.408  1.00  0.00    -0.388 A  
HETATM   19  C   UNL     1      -8.832   9.975  63.728  1.00  0.00    -0.250 A  
HETATM   20  C   UNL     1      -8.652  10.869  62.699  1.00  0.00    -0.240 A  
HETATM   21  O   UNL     1      -9.635  11.806  62.706  1.00  0.00    -0.318 OA 
ENDBRANCH  15  17
ENDBRANCH  14  15
ENDBRANCH  11  14
ENDBRANCH   2   8
TORSDOF 4
ENDMDL
MODEL        5
REMARK 921   NORMALIZED FREE ENERGY PREDICTED BY IDOCK:   -6.22 KCAL/MOL
REMARK 922        TOTAL FREE ENERGY PREDICTED BY IDOCK:   -8.19 KCAL/MOL
REMARK 923 INTER-LIGAND FREE ENERGY PREDICTED BY IDOCK:   -7.65 KCAL/MOL
REMARK 924 INTRA-LIGAND FREE ENERGY PREDICTED BY IDOCK:   -0.54 KCAL/MOL
REMARK 927      BINDING AFFINITY PREDICTED BY RF-SCORE:    0.00 PKD
ROOT
HETATM    1  C   UNL     1      -9.767  19.948  67.755  1.00  0.00    -0.392 C  
HETATM    2  N   UNL     1      -9.039  18.708  67.989  1.00  0.00    -0.297 N  
HETATM    3 CL   UNL     1      -6.166  16.914  67.065  1.00  0.00    -0.210 Cl 
HETATM    4  C   UNL     1      -7.686  18.734  68.355  1.00  0.00    -0.315 C  
HETATM    5 CL   UNL     1      -5.790  17.517  69.895  1.00  0.00    -0.251 Cl 
HETATM    6  C   UNL     1      -6.980  17.383  68.575  1.00  0.00    -0.215 C  
HETATM    7  O   UNL     1      -7.088  19.808  68.482  1.00  0.00    -0.301 OA 
ENDROOT
BRANCH   2   8
HETATM    8  C   UNL     1      -9.763  17.511  67.824  1.00  0.00    -0.274 A  
HETATM    9  C   UNL     1      -9.795  16.890  66.573  1.00  0.00    -0.307 A  
HETATM   10  C   UNL     1     -10.649  15.806  66.368  1.00  0.00    -0.307 A  
HETATM   11  C   UNL     1     -11.448  15.342  67.415  1.00  0.00    -0.241 A  
HETATM   12  C   UNL     1     -10.539  17.026  68.879  1.00  0.00    -0.328 A  
HETATM   13  C   UNL     1     -11.396  15.944  68.671  1.00  0.00    -0.376 A  
BRANCH  11  14
HETATM   14  O   UNL     1     -12.362  14.321  67.076  1.00  0.00    -0.386 OA 
BRANCH  14  15
HETATM   15  C   UNL     1     -11.998  12.977  66.955  1.00  0.00    -0.352 C  
HETATM   16  O   UNL     1     -11.825  12.201  67.886  1.00  0.00    -0.422 OA 
BRANCH  15  17
HETATM   17  C   UNL     1     -11.847  12.637  65.559  1.00  0.00    -0.431 A  
HETATM   18  C   UNL     1     -10.709  12.380  64.814  1.00  0.00    -0.332 A  
HETATM   19  C   UNL     1     -11.134  12.109  63.492  1.00  0.00    -0.525 A  
HETATM   20  C   UNL     1     -12.505  12.209  63.505  1.00  0.00    -0.555 A  
HETATM   21  O   UNL     1     -12.948  12.526  64.750  1.00  0.00    -0.827 OA 
ENDBRANCH  15  17
ENDBRANCH  14  15
ENDBRANCH  11  14
ENDBRANCH   2   8
TORSDOF 4
ENDMDL
MODEL        6
REMARK 921   NORMALIZED FREE ENERGY PREDICTED BY IDOCK:   -6.13 KCAL/MOL
REMARK 922        TOTAL FREE ENERGY PREDICTED BY IDOCK:   -8.07 KCAL/MOL
REMARK 923 INTER-LIGAND FREE ENERGY PREDICTED BY IDOCK:   -7.59 KCAL/MOL
REMARK 924 INTRA-LIGAND FREE ENERGY PREDICTED BY IDOCK:   -0.49 KCAL/MOL
REMARK 927      BINDING AFFINITY PREDICTED BY RF-SCORE:    0.00 PKD
ROOT
HETATM    1  C   UNL     1     -10.873  19.430  67.328  1.00  0.00    -0.448 C  
HETATM    2  N   UNL     1      -9.975  18.291  67.459  1.00  0.00    -0.321 N  
HETATM    3 CL   UNL     1      -6.841  17.047  66.478  1.00  0.00    -0.275 Cl 
HETATM    4  C   UNL     1      -8.653  18.470  67.886  1.00  0.00    -0.287 C  
HETATM    5 CL   UNL     1      -6.641  17.375  69.370  1.00  0.00    -0.239 Cl 
HETATM    6  C   UNL     1      -7.759  17.220  67.992  1.00  0.00    -0.202 C  
HETATM    7  O   UNL     1      -8.225  19.599  68.155  1.00  0.00    -0.307 OA 
ENDROOT
BRANCH   2   8
HETATM    8  C   UNL     1     -10.508  17.028  67.134  1.00  0.00    -0.291 A  
HETATM    9  C   UNL     1     -11.053  16.227  68.141  1.00  0.00    -0.329 A  
HETATM   10  C   UNL     1     -11.420  14.914  67.849  1.00  0.00    -0.357 A  
HETATM   11  C   UNL     1     -11.258  14.418  66.552  1.00  0.00    -0.340 A  
HETATM   12  C   UNL     1     -10.376  16.540  65.831  1.00  0.00    -0.365 A  
HETATM   13  C   UNL     1     -10.739  15.224  65.541  1.00  0.00    -0.385 A  
BRANCH  11  14
HETATM   14  O   UNL     1     -11.545  13.046  66.386  1.00  0.00    -0.327 OA 
BRANCH  14  15
HETATM   15  C   UNL     1     -12.045  12.507  65.196  1.00  0.00    -0.446 C  
HETATM   16  O   UNL     1     -13.192  12.634  64.786  1.00  0.00    -0.846 OA 
BRANCH  15  17
HETATM   17  C   UNL     1     -11.005  11.768  64.521  1.00  0.00    -0.324 A  
HETATM   18  C   UNL     1     -10.284  10.657  64.925  1.00  0.00    -0.395 A  
HETATM   19  C   UNL     1      -9.382  10.348  63.880  1.00  0.00    -0.322 A  
HETATM   20  C   UNL     1      -9.606  11.281  62.895  1.00  0.00    -0.352 A  
HETATM   21  O   UNL     1     -10.586  12.144  63.271  1.00  0.00    -0.428 OA 
ENDBRANCH  15  17
ENDBRANCH  14  15
ENDBRANCH  11  14
ENDBRANCH   2   8
TORSDOF 4
ENDMDL
MODEL        7
REMARK 921   NORMALIZED FREE ENERGY PREDICTED BY IDOCK:   -6.08 KCAL/MOL
REMARK 922        TOTAL FREE ENERGY PREDICTED BY IDOCK:   -8.01 KCAL/MOL
REMARK 923 INTER-LIGAND FREE ENERGY PREDICTED BY IDOCK:   -7.57 KCAL/MOL
REMARK 924 INTRA-LIGAND FREE ENERGY PREDICTED BY IDOCK:   -0.44 KCAL/MOL
REMARK 927      BINDING AFFINITY PREDICTED BY RF-SCORE:    0.00 PKD
ROOT
HETATM    1  C   UNL     1      -7.366  15.976  69.213  1.00  0.00    -0.231 C  
HETATM    2  N   UNL     1      -8.196  16.884  68.433  1.00  0.00    -0.223 N  
HETATM    3 CL   UNL     1     -10.218  19.746  68.660  1.00  0.00    -0.551 Cl 
HETATM    4  C   UNL     1      -7.968  18.266  68.468  1.00  0.00    -0.308 C  
HETATM    5 CL   UNL     1      -7.978  20.547  66.970  1.00  0.00    -0.357 Cl 
HETATM    6  C   UNL     1      -8.892  19.165  67.626  1.00  0.00    -0.295 C  
HETATM    7  O   UNL     1      -7.061  18.738  69.164  1.00  0.00    -0.293 OA 
ENDROOT
BRANCH   2   8
HETATM    8  C   UNL     1      -9.221  16.298  67.664  1.00  0.00    -0.206 A  
HETATM    9  C   UNL     1     -10.436  15.966  68.268  1.00  0.00    -0.257 A  
HETATM   10  C   UNL     1     -11.380  15.233  67.551  1.00  0.00    -0.300 A  
HETATM   11  C   UNL     1     -11.112  14.853  66.234  1.00  0.00    -0.340 A  
HETATM   12  C   UNL     1      -8.967  15.945  66.336  1.00  0.00    -0.361 A  
HETATM   13  C   UNL     1      -9.911  15.207  65.621  1.00  0.00    -0.387 A  
BRANCH  11  14
HETATM   14  O   UNL     1     -12.076  14.013  65.635  1.00  0.00    -0.375 OA 
BRANCH  14  15
HETATM   15  C   UNL     1     -11.984  13.563  64.314  1.00  0.00    -0.432 C  
HETATM   16  O   UNL     1     -12.537  14.076  63.349  1.00  0.00    -0.845 OA 
BRANCH  15  17
HETATM   17  C   UNL     1     -11.142  12.391  64.256  1.00  0.00    -0.349 A  
HETATM   18  C   UNL     1     -10.854  11.442  65.222  1.00  0.00    -0.297 A  
HETATM   19  C   UNL     1      -9.964  10.512  64.634  1.00  0.00    -0.415 A  
HETATM   20  C   UNL     1      -9.765  10.941  63.343  1.00  0.00    -0.352 A  
HETATM   21  O   UNL     1     -10.473  12.074  63.102  1.00  0.00    -0.393 OA 
ENDBRANCH  15  17
ENDBRANCH  14  15
ENDBRANCH  11  14
ENDBRANCH   2   8
TORSDOF 4
ENDMDL
MODEL        8
REMARK 921   NORMALIZED FREE ENERGY PREDICTED BY IDOCK:   -5.98 KCAL/MOL
REMARK 922        TOTAL FREE ENERGY PREDICTED BY IDOCK:   -7.88 KCAL/MOL
REMARK 923 INTER-LIGAND FREE ENERGY PREDICTED BY IDOCK:   -7.44 KCAL/MOL
REMARK 924 INTRA-LIGAND FREE ENERGY PREDICTED BY IDOCK:   -0.44 KCAL/MOL
REMARK 927      BINDING AFFINITY PREDICTED BY RF-SCORE:    0.00 PKD
ROOT
HETATM    1  C   UNL     1     -10.765  19.230  67.491  1.00  0.00    -0.463 C  
HETATM    2  N   UNL     1      -9.829  18.114  67.545  1.00  0.00    -0.303 N  
HETATM    3 CL   UNL     1      -6.624  17.078  66.554  1.00  0.00    -0.263 Cl 
HETATM    4  C   UNL     1      -8.527  18.299  68.029  1.00  0.00    -0.262 C  
HETATM    5 CL   UNL     1      -6.520  17.139  69.469  1.00  0.00    -0.233 Cl 
HETATM    6  C   UNL     1      -7.591  17.076  68.047  1.00  0.00    -0.181 C  
HETATM    7  O   UNL     1      -8.150  19.411  68.415  1.00  0.00    -0.320 OA 
ENDROOT
BRANCH   2   8
HETATM    8  C   UNL     1     -10.305  16.870  67.087  1.00  0.00    -0.304 A  
HETATM    9  C   UNL     1     -10.269  16.577  65.721  1.00  0.00    -0.350 A  
HETATM   10  C   UNL     1     -10.895  15.423  65.251  1.00  0.00    -0.423 A  
HETATM   11  C   UNL     1     -11.536  14.564  66.149  1.00  0.00    -0.357 A  
HETATM   12  C   UNL     1     -10.918  15.994  67.986  1.00  0.00    -0.341 A  
HETATM   13  C   UNL     1     -11.549  14.842  67.514  1.00  0.00    -0.355 A  
BRANCH  11  14
HETATM   14  O   UNL     1     -12.241  13.490  65.564  1.00  0.00    -0.395 OA 
BRANCH  14  15
HETATM   15  C   UNL     1     -12.020  13.052  64.255  1.00  0.00    -0.402 C  
HETATM   16  O   UNL     1     -12.546  13.518  63.252  1.00  0.00    -0.773 OA 
BRANCH  15  17
HETATM   17  C   UNL     1     -11.080  11.956  64.259  1.00  0.00    -0.356 A  
HETATM   18  C   UNL     1     -10.251  11.478  63.259  1.00  0.00    -0.432 A  
HETATM   19  C   UNL     1      -9.544  10.378  63.800  1.00  0.00    -0.366 A  
HETATM   20  C   UNL     1      -9.976  10.249  65.098  1.00  0.00    -0.325 A  
HETATM   21  O   UNL     1     -10.903  11.198  65.389  1.00  0.00    -0.234 OA 
ENDBRANCH  15  17
ENDBRANCH  14  15
ENDBRANCH  11  14
ENDBRANCH   2   8
TORSDOF 4
ENDMDL
MODEL        9
REMARK 921   NORMALIZED FREE ENERGY PREDICTED BY IDOCK:   -5.89 KCAL/MOL
REMARK 922        TOTAL FREE ENERGY PREDICTED BY IDOCK:   -7.77 KCAL/MOL
REMARK 923 INTER-LIGAND FREE ENERGY PREDICTED BY IDOCK:   -7.59 KCAL/MOL
REMARK 924 INTRA-LIGAND FREE ENERGY PREDICTED BY IDOCK:   -0.18 KCAL/MOL
REMARK 927      BINDING AFFINITY PREDICTED BY RF-SCORE:    0.00 PKD
ROOT
HETATM    1  C   UNL     1     -12.127  14.244  64.262  1.00  0.00    -0.441 C  
HETATM    2  N   UNL     1     -11.367  14.887  65.325  1.00  0.00    -0.354 N  
HETATM    3 CL   UNL     1      -8.416  16.670  65.993  1.00  0.00    -0.291 Cl 
HETATM    4  C   UNL     1     -10.959  16.222  65.202  1.00  0.00    -0.274 C  
HETATM    5 CL   UNL     1     -10.571  18.550  66.573  1.00  0.00    -0.413 Cl 
HETATM    6  C   UNL     1     -10.149  16.832  66.362  1.00  0.00    -0.317 C  
HETATM    7  O   UNL     1     -11.234  16.875  64.189  1.00  0.00    -1.176 OA 
ENDROOT
BRANCH   2   8
HETATM    8  C   UNL     1     -11.072  14.099  66.454  1.00  0.00    -0.320 A  
HETATM    9  C   UNL     1     -10.075  13.122  66.375  1.00  0.00    -0.281 A  
HETATM   10  C   UNL     1      -9.904  12.230  67.433  1.00  0.00    -0.199 A  
HETATM   11  C   UNL     1     -10.714  12.332  68.567  1.00  0.00    -0.237 A  
HETATM   12  C   UNL     1     -11.860  14.218  67.602  1.00  0.00    -0.420 A  
HETATM   13  C   UNL     1     -11.690  13.323  68.658  1.00  0.00    -0.376 A  
BRANCH  11  14
HETATM   14  O   UNL     1     -10.545  11.312  69.529  1.00  0.00    -0.162 OA 
BRANCH  14  15
HETATM   15  C   UNL     1     -11.598  10.524  70.002  1.00  0.00    -0.313 C  
HETATM   16  O   UNL     1     -12.764  10.603  69.636  1.00  0.00    -0.212 OA 
BRANCH  15  17
HETATM   17  C   UNL     1     -11.107   9.602  70.999  1.00  0.00    -0.368 A  
HETATM   18  C   UNL     1      -9.815   9.200  71.293  1.00  0.00    -0.363 A  
HETATM   19  C   UNL     1      -9.904   8.272  72.357  1.00  0.00    -0.375 A  
HETATM   20  C   UNL     1     -11.242   8.165  72.658  1.00  0.00    -0.378 A  
HETATM   21  O   UNL     1     -11.978   8.965  71.844  1.00  0.00    -0.325 OA 
ENDBRANCH  15  17
ENDBRANCH  14  15
ENDBRANCH  11  14
ENDBRANCH   2   8
TORSDOF 4
ENDMDL
MODEL       10
REMARK 921   NORMALIZED FREE ENERGY PREDICTED BY IDOCK:   -5.84 KCAL/MOL
REMARK 922        TOTAL FREE ENERGY PREDICTED BY IDOCK:   -7.72 KCAL/MOL
REMARK 923 INTER-LIGAND FREE ENERGY PREDICTED BY IDOCK:   -7.32 KCAL/MOL
REMARK 924 INTRA-LIGAND FREE ENERGY PREDICTED BY IDOCK:   -0.40 KCAL/MOL
REMARK 927      BINDING AFFINITY PREDICTED BY RF-SCORE:    0.00 PKD
ROOT
HETATM    1  C   UNL     1     -10.751  19.491  66.021  1.00  0.00    -0.430 C  
HETATM    2  N   UNL     1      -9.789  18.692  66.767  1.00  0.00    -0.322 N  
HETATM    3 CL   UNL     1      -6.376  17.907  67.021  1.00  0.00    -0.181 Cl 
HETATM    4  C   UNL     1      -8.668  19.293  67.357  1.00  0.00    -0.293 C  
HETATM    5 CL   UNL     1      -7.022  19.244  69.533  1.00  0.00    -0.295 Cl 
HETATM    6  C   UNL     1      -7.689  18.384  68.122  1.00  0.00    -0.290 C  
HETATM    7  O   UNL     1      -8.476  20.510  67.250  1.00  0.00    -0.343 OA 
ENDROOT
BRANCH   2   8
HETATM    8  C   UNL     1     -10.049  17.310  66.854  1.00  0.00    -0.304 A  
HETATM    9  C   UNL     1     -10.439  16.755  68.075  1.00  0.00    -0.333 A  
HETATM   10  C   UNL     1     -10.527  15.369  68.202  1.00  0.00    -0.247 A  
HETATM   11  C   UNL     1     -10.243  14.551  67.105  1.00  0.00    -0.260 A  
HETATM   12  C   UNL     1      -9.796  16.492  65.750  1.00  0.00    -0.275 A  
HETATM   13  C   UNL     1      -9.880  15.105  65.878  1.00  0.00    -0.372 A  
BRANCH  11  14
HETATM   14  O   UNL     1     -10.244  13.164  67.365  1.00  0.00    -0.229 OA 
BRANCH  14  15
HETATM   15  C   UNL     1     -11.345  12.339  67.116  1.00  0.00    -0.335 C  
HETATM   16  O   UNL     1     -12.037  11.802  67.972  1.00  0.00    -0.572 OA 
BRANCH  15  17
HETATM   17  C   UNL     1     -11.544  12.207  65.692  1.00  0.00    -0.351 A  
HETATM   18  C   UNL     1     -12.606  12.593  64.893  1.00  0.00    -0.525 A  
HETATM   19  C   UNL     1     -12.284  12.213  63.568  1.00  0.00    -0.670 A  
HETATM   20  C   UNL     1     -11.043  11.625  63.632  1.00  0.00    -0.425 A  
HETATM   21  O   UNL     1     -10.584  11.616  64.910  1.00  0.00    -0.272 OA 
ENDBRANCH  15  17
ENDBRANCH  14  15
ENDBRANCH  11  14
ENDBRANCH   2   8
TORSDOF 4
ENDMDL
MODEL       11
REMARK 921   NORMALIZED FREE ENERGY PREDICTED BY IDOCK:   -5.84 KCAL/MOL
REMARK 922        TOTAL FREE ENERGY PREDICTED BY IDOCK:   -7.71 KCAL/MOL
REMARK 923 INTER-LIGAND FREE ENERGY PREDICTED BY IDOCK:   -7.18 KCAL/MOL
REMARK 924 INTRA-LIGAND FREE ENERGY PREDICTED BY IDOCK:   -0.53 KCAL/MOL
REMARK 927      BINDING AFFINITY PREDICTED BY RF-SCORE:    0.00 PKD
ROOT
HETATM    1  C   UNL     1     -11.910  11.996  69.945  1.00  0.00    -0.331 C  
HETATM    2  N   UNL     1     -11.146  11.522  68.799  1.00  0.00    -0.215 N  
HETATM    3 CL   UNL     1      -8.283   9.709  67.880  1.00  0.00    -0.106 Cl 
HETATM    4  C   UNL     1     -10.825  10.164  68.668  1.00  0.00    -0.235 C  
HETATM    5 CL   UNL     1     -10.521   8.128  66.878  1.00  0.00    -0.404 Cl 
HETATM    6  C   UNL     1     -10.005   9.739  67.436  1.00  0.00    -0.191 C  
HETATM    7  O   UNL     1     -11.182   9.347  69.524  1.00  0.00    -0.164 OA 
ENDROOT
BRANCH   2   8
HETATM    8  C   UNL     1     -10.757  12.494  67.856  1.00  0.00    -0.217 A  
HETATM    9  C   UNL     1      -9.512  13.117  67.979  1.00  0.00    -0.220 A  
HETATM   10  C   UNL     1      -9.201  14.196  67.152  1.00  0.00    -0.237 A  
HETATM   11  C   UNL     1     -10.125  14.631  66.199  1.00  0.00    -0.300 A  
HETATM   12  C   UNL     1     -11.667  12.910  66.881  1.00  0.00    -0.445 A  
HETATM   13  C   UNL     1     -11.356  13.993  66.057  1.00  0.00    -0.328 A  
BRANCH  11  14
HETATM   14  O   UNL     1      -9.767  15.801  65.495  1.00  0.00    -0.322 OA 
BRANCH  14  15
HETATM   15  C   UNL     1     -10.665  16.840  65.230  1.00  0.00    -0.169 C  
HETATM   16  O   UNL     1     -11.470  16.865  64.308  1.00  0.00    -1.142 OA 
BRANCH  15  17
HETATM   17  C   UNL     1     -10.495  17.890  66.206  1.00  0.00    -0.320 A  
HETATM   18  C   UNL     1     -10.589  17.858  67.587  1.00  0.00    -0.398 A  
HETATM   19  C   UNL     1     -10.340  19.172  68.048  1.00  0.00    -0.483 A  
HETATM   20  C   UNL     1     -10.101  19.930  66.926  1.00  0.00    -0.450 A  
HETATM   21  O   UNL     1     -10.191  19.166  65.807  1.00  0.00    -0.498 OA 
ENDBRANCH  15  17
ENDBRANCH  14  15
ENDBRANCH  11  14
ENDBRANCH   2   8
TORSDOF 4
ENDMDL
MODEL       12
REMARK 921   NORMALIZED FREE ENERGY PREDICTED BY IDOCK:   -5.80 KCAL/MOL
REMARK 922        TOTAL FREE ENERGY PREDICTED BY IDOCK:   -7.66 KCAL/MOL
REMARK 923 INTER-LIGAND FREE ENERGY PREDICTED BY IDOCK:   -7.33 KCAL/MOL
REMARK 924 INTRA-LIGAND FREE ENERGY PREDICTED BY IDOCK:   -0.33 KCAL/MOL
REMARK 927      BINDING AFFINITY PREDICTED BY RF-SCORE:    0.00 PKD
ROOT
HETATM    1  C   UNL     1     -10.123  10.040  65.059  1.00  0.00    -0.157 C  
HETATM    2  N   UNL     1     -10.276  10.720  66.337  1.00  0.00    -0.233 N  
HETATM    3 CL   UNL     1     -12.230  10.828  69.253  1.00  0.00    -0.292 Cl 
HETATM    4  C   UNL     1     -10.326   9.989  67.532  1.00  0.00    -0.232 C  
HETATM    5 CL   UNL     1      -9.585   9.995  70.159  1.00  0.00    -0.228 Cl 
HETATM    6  C   UNL     1     -10.499  10.777  68.845  1.00  0.00    -0.205 C  
HETATM    7  O   UNL     1     -10.244   8.756  67.521  1.00  0.00    -0.211 OA 
ENDROOT
BRANCH   2   8
HETATM    8  C   UNL     1     -10.372  12.125  66.296  1.00  0.00    -0.221 A  
HETATM    9  C   UNL     1      -9.274  12.905  66.669  1.00  0.00    -0.222 A  
HETATM   10  C   UNL     1      -9.424  14.285  66.794  1.00  0.00    -0.287 A  
HETATM   11  C   UNL     1     -10.661  14.877  66.529  1.00  0.00    -0.309 A  
HETATM   12  C   UNL     1     -11.600  12.722  66.001  1.00  0.00    -0.432 A  
HETATM   13  C   UNL     1     -11.750  14.104  66.130  1.00  0.00    -0.402 A  
BRANCH  11  14
HETATM   14  O   UNL     1     -10.744  16.260  66.798  1.00  0.00    -0.293 OA 
BRANCH  14  15
HETATM   15  C   UNL     1     -10.660  17.240  65.805  1.00  0.00    -0.194 C  
HETATM   16  O   UNL     1     -11.038  17.112  64.647  1.00  0.00    -1.036 OA 
BRANCH  15  17
HETATM   17  C   UNL     1     -10.049  18.432  66.346  1.00  0.00    -0.403 A  
HETATM   18  C   UNL     1     -10.551  19.383  67.218  1.00  0.00    -0.599 A  
HETATM   19  C   UNL     1      -9.532  20.346  67.409  1.00  0.00    -0.561 A  
HETATM   20  C   UNL     1      -8.465  19.926  66.650  1.00  0.00    -0.335 A  
HETATM   21  O   UNL     1      -8.765  18.770  66.004  1.00  0.00    -0.481 OA 
ENDBRANCH  15  17
ENDBRANCH  14  15
ENDBRANCH  11  14
ENDBRANCH   2   8
TORSDOF 4
ENDMDL
MODEL       13
REMARK 921   NORMALIZED FREE ENERGY PREDICTED BY IDOCK:   -5.77 KCAL/MOL
REMARK 922        TOTAL FREE ENERGY PREDICTED BY IDOCK:   -7.62 KCAL/MOL
REMARK 923 INTER-LIGAND FREE ENERGY PREDICTED BY IDOCK:   -7.17 KCAL/MOL
REMARK 924 INTRA-LIGAND FREE ENERGY PREDICTED BY IDOCK:   -0.45 KCAL/MOL
REMARK 927      BINDING AFFINITY PREDICTED BY RF-SCORE:    0.00 PKD
ROOT
HETATM    1  C   UNL     1     -10.157  10.031  66.308  1.00  0.00    -0.243 C  
HETATM    2  N   UNL     1     -10.471  10.570  67.624  1.00  0.00    -0.217 N  
HETATM    3 CL   UNL     1     -12.764  10.367  70.276  1.00  0.00    -0.292 Cl 
HETATM    4  C   UNL     1     -10.657   9.714  68.719  1.00  0.00    -0.216 C  
HETATM    5 CL   UNL     1     -10.239   9.435  71.401  1.00  0.00    -0.362 Cl 
HETATM    6  C   UNL     1     -10.996  10.356  70.077  1.00  0.00    -0.308 C  
HETATM    7  O   UNL     1     -10.561   8.489  68.585  1.00  0.00    -0.198 OA 
ENDROOT
BRANCH   2   8
HETATM    8  C   UNL     1     -10.576  11.971  67.723  1.00  0.00    -0.207 A  
HETATM    9  C   UNL     1     -11.776  12.600  67.380  1.00  0.00    -0.432 A  
HETATM   10  C   UNL     1     -11.826  13.991  67.312  1.00  0.00    -0.445 A  
HETATM   11  C   UNL     1     -10.685  14.743  67.604  1.00  0.00    -0.270 A  
HETATM   12  C   UNL     1      -9.446  12.725  68.045  1.00  0.00    -0.213 A  
HETATM   13  C   UNL     1      -9.495  14.118  67.972  1.00  0.00    -0.213 A  
BRANCH  11  14
HETATM   14  O   UNL     1     -10.802  16.134  67.391  1.00  0.00    -0.322 OA 
BRANCH  14  15
HETATM   15  C   UNL     1     -10.441  16.758  66.192  1.00  0.00    -0.277 C  
HETATM   16  O   UNL     1     -10.445  16.229  65.088  1.00  0.00    -0.591 OA 
BRANCH  15  17
HETATM   17  C   UNL     1     -10.052  18.124  66.452  1.00  0.00    -0.389 A  
HETATM   18  C   UNL     1     -10.643  19.091  67.246  1.00  0.00    -0.554 A  
HETATM   19  C   UNL     1      -9.851  20.259  67.132  1.00  0.00    -0.606 A  
HETATM   20  C   UNL     1      -8.820  19.937  66.283  1.00  0.00    -0.345 A  
HETATM   21  O   UNL     1      -8.929  18.649  65.866  1.00  0.00    -0.470 OA 
ENDBRANCH  15  17
ENDBRANCH  14  15
ENDBRANCH  11  14
ENDBRANCH   2   8
TORSDOF 4
ENDMDL
MODEL       14
REMARK 921   NORMALIZED FREE ENERGY PREDICTED BY IDOCK:   -5.67 KCAL/MOL
REMARK 922        TOTAL FREE ENERGY PREDICTED BY IDOCK:   -7.51 KCAL/MOL
REMARK 923 INTER-LIGAND FREE ENERGY PREDICTED BY IDOCK:   -6.95 KCAL/MOL
REMARK 924 INTRA-LIGAND FREE ENERGY PREDICTED BY IDOCK:   -0.56 KCAL/MOL
REMARK 927      BINDING AFFINITY PREDICTED BY RF-SCORE:    0.00 PKD
ROOT
HETATM    1  C   UNL     1      -7.876   9.003  71.225  1.00  0.00    -0.085 C  
HETATM    2  N   UNL     1      -9.182   8.409  70.979  1.00  0.00    -0.157 N  
HETATM    3 CL   UNL     1     -10.780   5.533  69.751  1.00  0.00    -0.395 Cl 
HETATM    4  C   UNL     1      -9.500   7.146  71.497  1.00  0.00    -0.157 C  
HETATM    5 CL   UNL     1     -11.504   5.640  72.575  1.00  0.00    -0.350 Cl 
HETATM    6  C   UNL     1     -10.897   6.577  71.187  1.00  0.00    -0.249 C  
HETATM    7  O   UNL     1      -8.676   6.515  72.169  1.00  0.00    -0.131 OA 
ENDROOT
BRANCH   2   8
HETATM    8  C   UNL     1     -10.082   9.164  70.201  1.00  0.00    -0.202 A  
HETATM    9  C   UNL     1     -10.029   9.082  68.807  1.00  0.00    -0.194 A  
HETATM   10  C   UNL     1     -10.798   9.955  68.040  1.00  0.00    -0.294 A  
HETATM   11  C   UNL     1     -11.626  10.889  68.668  1.00  0.00    -0.303 A  
HETATM   12  C   UNL     1     -10.934  10.077  70.828  1.00  0.00    -0.375 A  
HETATM   13  C   UNL     1     -11.700  10.954  70.059  1.00  0.00    -0.427 A  
BRANCH  11  14
HETATM   14  O   UNL     1     -12.271  11.805  67.809  1.00  0.00    -0.536 OA 
BRANCH  14  15
HETATM   15  C   UNL     1     -11.594  12.816  67.120  1.00  0.00    -0.364 C  
HETATM   16  O   UNL     1     -11.006  13.757  67.638  1.00  0.00    -0.257 OA 
BRANCH  15  17
HETATM   17  C   UNL     1     -11.696  12.589  65.698  1.00  0.00    -0.423 A  
HETATM   18  C   UNL     1     -10.716  12.324  64.757  1.00  0.00    -0.338 A  
HETATM   19  C   UNL     1     -11.368  12.196  63.508  1.00  0.00    -0.535 A  
HETATM   20  C   UNL     1     -12.707  12.382  63.756  1.00  0.00    -0.364 A  
HETATM   21  O   UNL     1     -12.918  12.619  65.077  1.00  0.00    -0.812 OA 
ENDBRANCH  15  17
ENDBRANCH  14  15
ENDBRANCH  11  14
ENDBRANCH   2   8
TORSDOF 4
ENDMDL
MODEL       15
REMARK 921   NORMALIZED FREE ENERGY PREDICTED BY IDOCK:   -5.67 KCAL/MOL
REMARK 922        TOTAL FREE ENERGY PREDICTED BY IDOCK:   -7.50 KCAL/MOL
REMARK 923 INTER-LIGAND FREE ENERGY PREDICTED BY IDOCK:   -6.95 KCAL/MOL
REMARK 924 INTRA-LIGAND FREE ENERGY PREDICTED BY IDOCK:   -0.55 KCAL/MOL
REMARK 927      BINDING AFFINITY PREDICTED BY RF-SCORE:    0.00 PKD
ROOT
HETATM    1  C   UNL     1      -8.052   9.962  69.992  1.00  0.00    -0.177 C  
HETATM    2  N   UNL     1      -9.115   9.811  69.008  1.00  0.00    -0.149 N  
HETATM    3 CL   UNL     1      -9.740   9.151  65.616  1.00  0.00    -0.313 Cl 
HETATM    4  C   UNL     1      -9.194   8.659  68.214  1.00  0.00    -0.137 C  
HETATM    5 CL   UNL     1     -10.917   6.895  67.044  1.00  0.00    -0.457 Cl 
HETATM    6  C   UNL     1     -10.340   8.575  67.189  1.00  0.00    -0.307 C  
HETATM    7  O   UNL     1      -8.362   7.753  68.333  1.00  0.00    -0.123 OA 
ENDROOT
BRANCH   2   8
HETATM    8  C   UNL     1     -10.034  10.874  68.905  1.00  0.00    -0.196 A  
HETATM    9  C   UNL     1      -9.737  11.969  68.089  1.00  0.00    -0.199 A  
HETATM   10  C   UNL     1     -10.561  13.093  68.123  1.00  0.00    -0.257 A  
HETATM   11  C   UNL     1     -11.684  13.108  68.955  1.00  0.00    -0.321 A  
HETATM   12  C   UNL     1     -11.174  10.879  69.713  1.00  0.00    -0.351 A  
HETATM   13  C   UNL     1     -11.996  12.006  69.750  1.00  0.00    -0.370 A  
BRANCH  11  14
HETATM   14  O   UNL     1     -12.385  14.332  69.008  1.00  0.00    -0.274 OA 
BRANCH  14  15
HETATM   15  C   UNL     1     -11.879  15.477  69.630  1.00  0.00    -0.366 C  
HETATM   16  O   UNL     1     -11.056  16.243  69.145  1.00  0.00    -0.300 OA 
BRANCH  15  17
HETATM   17  C   UNL     1     -12.469  15.621  70.940  1.00  0.00    -0.445 A  
HETATM   18  C   UNL     1     -13.725  15.270  71.404  1.00  0.00    -0.602 A  
HETATM   19  C   UNL     1     -13.780  15.644  72.768  1.00  0.00    -0.662 A  
HETATM   20  C   UNL     1     -12.555  16.195  73.061  1.00  0.00    -0.467 A  
HETATM   21  O   UNL     1     -11.753  16.185  71.965  1.00  0.00    -0.477 OA 
ENDBRANCH  15  17
ENDBRANCH  14  15
ENDBRANCH  11  14
ENDBRANCH   2   8
TORSDOF 4
ENDMDL
MODEL       16
REMARK 921   NORMALIZED FREE ENERGY PREDICTED BY IDOCK:   -5.65 KCAL/MOL
REMARK 922        TOTAL FREE ENERGY PREDICTED BY IDOCK:   -7.49 KCAL/MOL
REMARK 923 INTER-LIGAND FREE ENERGY PREDICTED BY IDOCK:   -6.97 KCAL/MOL
REMARK 924 INTRA-LIGAND FREE ENERGY PREDICTED BY IDOCK:   -0.52 KCAL/MOL
REMARK 927      BINDING AFFINITY PREDICTED BY RF-SCORE:    0.00 PKD
ROOT
HETATM    1  C   UNL     1     -10.431  19.532  65.985  1.00  0.00    -0.516 C  
HETATM    2  N   UNL     1      -9.702  18.504  66.715  1.00  0.00    -0.318 N  
HETATM    3 CL   UNL     1      -6.740  16.618  66.719  1.00  0.00    -0.252 Cl 
HETATM    4  C   UNL     1      -8.380  18.724  67.127  1.00  0.00    -0.271 C  
HETATM    5 CL   UNL     1      -6.582  18.259  69.127  1.00  0.00    -0.262 Cl 
HETATM    6  C   UNL     1      -7.670  17.587  67.886  1.00  0.00    -0.213 C  
HETATM    7  O   UNL     1      -7.810  19.791  66.875  1.00  0.00    -0.264 OA 
ENDROOT
BRANCH   2   8
HETATM    8  C   UNL     1     -10.393  17.303  66.971  1.00  0.00    -0.318 A  
HETATM    9  C   UNL     1     -10.958  17.086  68.231  1.00  0.00    -0.269 A  
HETATM   10  C   UNL     1     -11.488  15.833  68.537  1.00  0.00    -0.381 A  
HETATM   11  C   UNL     1     -11.466  14.815  67.579  1.00  0.00    -0.354 A  
HETATM   12  C   UNL     1     -10.400  16.295  66.005  1.00  0.00    -0.363 A  
HETATM   13  C   UNL     1     -10.926  15.040  66.314  1.00  0.00    -0.338 A  
BRANCH  11  14
HETATM   14  O   UNL     1     -11.915  13.553  68.023  1.00  0.00    -0.355 OA 
BRANCH  14  15
HETATM   15  C   UNL     1     -11.202  12.762  68.929  1.00  0.00    -0.283 C  
HETATM   16  O   UNL     1     -10.083  12.300  68.740  1.00  0.00    -0.175 OA 
BRANCH  15  17
HETATM   17  C   UNL     1     -11.986  12.561  70.124  1.00  0.00    -0.301 A  
HETATM   18  C   UNL     1     -12.546  13.478  70.997  1.00  0.00    -0.438 A  
HETATM   19  C   UNL     1     -13.204  12.737  72.007  1.00  0.00    -0.538 A  
HETATM   20  C   UNL     1     -13.016  11.412  71.691  1.00  0.00    -0.418 A  
HETATM   21  O   UNL     1     -12.283  11.293  70.554  1.00  0.00    -0.337 OA 
ENDBRANCH  15  17
ENDBRANCH  14  15
ENDBRANCH  11  14
ENDBRANCH   2   8
TORSDOF 4
ENDMDL
MODEL       17
REMARK 921   NORMALIZED FREE ENERGY PREDICTED BY IDOCK:   -5.65 KCAL/MOL
REMARK 922        TOTAL FREE ENERGY PREDICTED BY IDOCK:   -7.47 KCAL/MOL
REMARK 923 INTER-LIGAND FREE ENERGY PREDICTED BY IDOCK:   -6.87 KCAL/MOL
REMARK 924 INTRA-LIGAND FREE ENERGY PREDICTED BY IDOCK:   -0.60 KCAL/MOL
REMARK 927      BINDING AFFINITY PREDICTED BY RF-SCORE:    0.00 PKD
ROOT
HETATM    1  C   UNL     1     -10.534   9.002  67.248  1.00  0.00    -0.273 C  
HETATM    2  N   UNL     1     -10.282   9.496  68.595  1.00  0.00    -0.188 N  
HETATM    3 CL   UNL     1     -10.902   8.856  71.991  1.00  0.00    -0.428 Cl 
HETATM    4  C   UNL     1      -9.724   8.658  69.570  1.00  0.00    -0.179 C  
HETATM    5 CL   UNL     1      -8.013   8.573  71.694  1.00  0.00    -0.170 Cl 
HETATM    6  C   UNL     1      -9.496   9.248  70.974  1.00  0.00    -0.243 C  
HETATM    7  O   UNL     1      -9.439   7.485  69.304  1.00  0.00    -0.155 OA 
ENDROOT
BRANCH   2   8
HETATM    8  C   UNL     1     -10.631  10.838  68.849  1.00  0.00    -0.216 A  
HETATM    9  C   UNL     1     -11.871  11.133  69.422  1.00  0.00    -0.415 A  
HETATM   10  C   UNL     1     -12.284  12.461  69.513  1.00  0.00    -0.145 A  
HETATM   11  C   UNL     1     -11.452  13.483  69.049  1.00  0.00    -0.303 A  
HETATM   12  C   UNL     1      -9.786  11.862  68.414  1.00  0.00    -0.201 A  
HETATM   13  C   UNL     1     -10.203  13.191  68.502  1.00  0.00    -0.218 A  
BRANCH  11  14
HETATM   14  O   UNL     1     -12.008  14.780  69.074  1.00  0.00    -0.305 OA 
BRANCH  14  15
HETATM   15  C   UNL     1     -11.573  15.783  69.946  1.00  0.00    -0.351 C  
HETATM   16  O   UNL     1     -10.716  16.621  69.692  1.00  0.00    -0.326 OA 
BRANCH  15  17
HETATM   17  C   UNL     1     -12.280  15.679  71.200  1.00  0.00    -0.413 A  
HETATM   18  C   UNL     1     -11.803  15.566  72.495  1.00  0.00    -0.572 A  
HETATM   19  C   UNL     1     -12.932  15.489  73.345  1.00  0.00    -0.673 A  
HETATM   20  C   UNL     1     -14.032  15.567  72.525  1.00  0.00    -0.555 A  
HETATM   21  O   UNL     1     -13.651  15.683  71.226  1.00  0.00    -0.546 OA 
ENDBRANCH  15  17
ENDBRANCH  14  15
ENDBRANCH  11  14
ENDBRANCH   2   8
TORSDOF 4
ENDMDL
MODEL       18
REMARK 921   NORMALIZED FREE ENERGY PREDICTED BY IDOCK:   -5.65 KCAL/MOL
REMARK 922        TOTAL FREE ENERGY PREDICTED BY IDOCK:   -7.47 KCAL/MOL
REMARK 923 INTER-LIGAND FREE ENERGY PREDICTED BY IDOCK:   -7.03 KCAL/MOL
REMARK 924 INTRA-LIGAND FREE ENERGY PREDICTED BY IDOCK:   -0.45 KCAL/MOL
REMARK 927      BINDING AFFINITY PREDICTED BY RF-SCORE:    0.00 PKD
ROOT
HETATM    1  C   UNL     1     -11.641  11.843  63.394  1.00  0.00    -0.382 C  
HETATM    2  N   UNL     1     -10.799  12.009  64.571  1.00  0.00    -0.297 N  
HETATM    3 CL   UNL     1      -9.707  10.409  67.500  1.00  0.00    -0.189 Cl 
HETATM    4  C   UNL     1      -9.813  11.062  64.882  1.00  0.00    -0.274 C  
HETATM    5 CL   UNL     1      -7.297  10.740  65.888  1.00  0.00    -0.129 Cl 
HETATM    6  C   UNL     1      -8.969  11.299  66.148  1.00  0.00    -0.202 C  
HETATM    7  O   UNL     1      -9.645  10.069  64.165  1.00  0.00    -0.292 OA 
ENDROOT
BRANCH   2   8
HETATM    8  C   UNL     1     -11.035  13.153  65.359  1.00  0.00    -0.279 A  
HETATM    9  C   UNL     1     -10.377  14.348  65.058  1.00  0.00    -0.449 A  
HETATM   10  C   UNL     1     -10.478  15.426  65.937  1.00  0.00    -0.354 A  
HETATM   11  C   UNL     1     -11.248  15.308  67.097  1.00  0.00    -0.291 A  
HETATM   12  C   UNL     1     -11.830  13.047  66.503  1.00  0.00    -0.464 A  
HETATM   13  C   UNL     1     -11.926  14.125  67.384  1.00  0.00    -0.439 A  
BRANCH  11  14
HETATM   14  O   UNL     1     -11.190  16.409  67.979  1.00  0.00    -0.325 OA 
BRANCH  14  15
HETATM   15  C   UNL     1      -9.990  16.970  68.426  1.00  0.00    -0.289 C  
HETATM   16  O   UNL     1      -9.204  16.440  69.202  1.00  0.00    -0.257 OA 
BRANCH  15  17
HETATM   17  C   UNL     1      -9.814  18.277  67.838  1.00  0.00    -0.317 A  
HETATM   18  C   UNL     1     -10.726  19.113  67.217  1.00  0.00    -0.585 A  
HETATM   19  C   UNL     1     -10.018  20.272  66.818  1.00  0.00    -0.587 A  
HETATM   20  C   UNL     1      -8.719  20.082  67.224  1.00  0.00    -0.343 A  
HETATM   21  O   UNL     1      -8.583  18.880  67.844  1.00  0.00    -0.283 OA 
ENDBRANCH  15  17
ENDBRANCH  14  15
ENDBRANCH  11  14
ENDBRANCH   2   8
TORSDOF 4
ENDMDL
MODEL       19
REMARK 921   NORMALIZED FREE ENERGY PREDICTED BY IDOCK:   -5.61 KCAL/MOL
REMARK 922        TOTAL FREE ENERGY PREDICTED BY IDOCK:   -7.44 KCAL/MOL
REMARK 923 INTER-LIGAND FREE ENERGY PREDICTED BY IDOCK:   -7.07 KCAL/MOL
REMARK 924 INTRA-LIGAND FREE ENERGY PREDICTED BY IDOCK:   -0.37 KCAL/MOL
REMARK 927      BINDING AFFINITY PREDICTED BY RF-SCORE:    0.00 PKD
ROOT
HETATM    1  C   UNL     1      -5.924  16.226  68.583  1.00  0.00    -0.109 C  
HETATM    2  N   UNL     1      -7.177  16.815  68.130  1.00  0.00    -0.159 N  
HETATM    3 CL   UNL     1      -9.539  19.310  68.855  1.00  0.00    -0.467 Cl 
HETATM    4  C   UNL     1      -7.274  18.194  67.899  1.00  0.00    -0.223 C  
HETATM    5 CL   UNL     1      -8.393  20.092  66.288  1.00  0.00    -0.346 Cl 
HETATM    6  C   UNL     1      -8.634  18.747  67.432  1.00  0.00    -0.273 C  
HETATM    7  O   UNL     1      -6.300  18.934  68.078  1.00  0.00    -0.205 OA 
ENDROOT
BRANCH   2   8
HETATM    8  C   UNL     1      -8.259  15.932  67.948  1.00  0.00    -0.145 A  
HETATM    9  C   UNL     1      -8.603  15.516  66.659  1.00  0.00    -0.325 A  
HETATM   10  C   UNL     1      -9.773  14.784  66.464  1.00  0.00    -0.295 A  
HETATM   11  C   UNL     1     -10.580  14.459  67.557  1.00  0.00    -0.265 A  
HETATM   12  C   UNL     1      -9.050  15.578  69.043  1.00  0.00    -0.236 A  
HETATM   13  C   UNL     1     -10.224  14.850  68.847  1.00  0.00    -0.238 A  
BRANCH  11  14
HETATM   14  O   UNL     1     -11.801  13.822  67.244  1.00  0.00    -0.360 OA 
BRANCH  14  15
HETATM   15  C   UNL     1     -11.900  12.459  66.950  1.00  0.00    -0.307 C  
HETATM   16  O   UNL     1     -11.996  11.560  67.776  1.00  0.00    -0.623 OA 
BRANCH  15  17
HETATM   17  C   UNL     1     -11.863  12.265  65.519  1.00  0.00    -0.359 A  
HETATM   18  C   UNL     1     -10.827  11.866  64.692  1.00  0.00    -0.363 A  
HETATM   19  C   UNL     1     -11.336  11.850  63.372  1.00  0.00    -0.465 A  
HETATM   20  C   UNL     1     -12.653  12.233  63.468  1.00  0.00    -0.476 A  
HETATM   21  O   UNL     1     -12.984  12.484  64.761  1.00  0.00    -0.827 OA 
ENDBRANCH  15  17
ENDBRANCH  14  15
ENDBRANCH  11  14
ENDBRANCH   2   8
TORSDOF 4
ENDMDL
MODEL       20
REMARK 921   NORMALIZED FREE ENERGY PREDICTED BY IDOCK:   -5.60 KCAL/MOL
REMARK 922        TOTAL FREE ENERGY PREDICTED BY IDOCK:   -7.42 KCAL/MOL
REMARK 923 INTER-LIGAND FREE ENERGY PREDICTED BY IDOCK:   -6.89 KCAL/MOL
REMARK 924 INTRA-LIGAND FREE ENERGY PREDICTED BY IDOCK:   -0.52 KCAL/MOL
REMARK 927      BINDING AFFINITY PREDICTED BY RF-SCORE:    0.00 PKD
ROOT
HETATM    1  C   UNL     1     -12.398  14.855  64.545  1.00  0.00    -0.315 C  
HETATM    2  N   UNL     1     -11.687  14.196  65.633  1.00  0.00    -0.347 N  
HETATM    3 CL   UNL     1     -12.124  12.121  68.432  1.00  0.00    -0.241 Cl 
HETATM    4  C   UNL     1     -11.823  12.816  65.840  1.00  0.00    -0.437 C  
HETATM    5 CL   UNL     1     -10.494  10.553  66.588  1.00  0.00    -0.300 Cl 
HETATM    6  C   UNL     1     -11.049  12.191  67.016  1.00  0.00    -0.294 C  
HETATM    7  O   UNL     1     -12.550  12.137  65.107  1.00  0.00    -0.505 OA 
ENDROOT
BRANCH   2   8
HETATM    8  C   UNL     1     -10.878  15.015  66.444  1.00  0.00    -0.326 A  
HETATM    9  C   UNL     1     -11.404  15.560  67.618  1.00  0.00    -0.260 A  
HETATM   10  C   UNL     1     -10.663  16.505  68.327  1.00  0.00    -0.345 A  
HETATM   11  C   UNL     1      -9.399  16.884  67.869  1.00  0.00    -0.238 A  
HETATM   12  C   UNL     1      -9.601  15.372  66.005  1.00  0.00    -0.382 A  
HETATM   13  C   UNL     1      -8.862  16.321  66.713  1.00  0.00    -0.263 A  
BRANCH  11  14
HETATM   14  O   UNL     1      -8.781  17.931  68.587  1.00  0.00    -0.301 OA 
BRANCH  14  15
HETATM   15  C   UNL     1      -9.076  19.281  68.376  1.00  0.00    -0.359 C  
HETATM   16  O   UNL     1     -10.061  19.868  68.806  1.00  0.00    -0.442 OA 
BRANCH  15  17
HETATM   17  C   UNL     1      -8.045  19.885  67.565  1.00  0.00    -0.306 A  
HETATM   18  C   UNL     1      -6.929  20.619  67.929  1.00  0.00    -0.312 A  
HETATM   19  C   UNL     1      -6.263  20.976  66.733  1.00  0.00    -0.360 A  
HETATM   20  C   UNL     1      -7.003  20.435  65.709  1.00  0.00    -0.230 A  
HETATM   21  O   UNL     1      -8.082  19.772  66.199  1.00  0.00    -0.331 OA 
ENDBRANCH  15  17
ENDBRANCH  14  15
ENDBRANCH  11  14
ENDBRANCH   2   8
TORSDOF 4
ENDMDL
MODEL       21
REMARK 921   NORMALIZED FREE ENERGY PREDICTED BY IDOCK:   -5.59 KCAL/MOL
REMARK 922        TOTAL FREE ENERGY PREDICTED BY IDOCK:   -7.41 KCAL/MOL
REMARK 923 INTER-LIGAND FREE ENERGY PREDICTED BY IDOCK:   -7.70 KCAL/MOL
REMARK 924 INTRA-LIGAND FREE ENERGY PREDICTED BY IDOCK:    0.29 KCAL/MOL
REMARK 927      BINDING AFFINITY PREDICTED BY RF-SCORE:    0.00 PKD
ROOT
HETATM    1  C   UNL     1     -14.175   8.215  71.670  1.00  0.00    -0.446 C  
HETATM    2  N   UNL     1     -12.770   8.511  71.426  1.00  0.00    -0.300 N  
HETATM    3 CL   UNL     1      -9.559   8.279  72.829  1.00  0.00    -0.346 Cl 
HETATM    4  C   UNL     1     -11.799   7.506  71.536  1.00  0.00    -0.295 C  
HETATM    5 CL   UNL     1      -9.471   6.555  70.476  1.00  0.00    -0.170 Cl 
HETATM    6  C   UNL     1     -10.333   7.896  71.274  1.00  0.00    -0.191 C  
HETATM    7  O   UNL     1     -12.119   6.352  71.845  1.00  0.00    -0.336 OA 
ENDROOT
BRANCH   2   8
HETATM    8  C   UNL     1     -12.456   9.842  71.085  1.00  0.00    -0.350 A  
HETATM    9  C   UNL     1     -13.033  10.894  71.801  1.00  0.00    -0.557 A  
HETATM   10  C   UNL     1     -12.859  12.203  71.354  1.00  0.00    -0.378 A  
HETATM   11  C   UNL     1     -12.097  12.453  70.209  1.00  0.00    -0.297 A  
HETATM   12  C   UNL     1     -11.669  10.095  69.958  1.00  0.00    -0.294 A  
HETATM   13  C   UNL     1     -11.499  11.406  69.510  1.00  0.00    -0.381 A  
BRANCH  11  14
HETATM   14  O   UNL     1     -12.080  13.794  69.771  1.00  0.00    -0.315 OA 
BRANCH  14  15
HETATM   15  C   UNL     1     -11.377  14.807  70.432  1.00  0.00    -0.217 C  
HETATM   16  O   UNL     1     -10.307  15.280  70.072  1.00  0.00    -0.273 OA 
BRANCH  15  17
HETATM   17  C   UNL     1     -12.101  15.209  71.616  1.00  0.00    -0.359 A  
HETATM   18  C   UNL     1     -11.662  15.408  72.913  1.00  0.00    -0.508 A  
HETATM   19  C   UNL     1     -12.791  15.788  73.677  1.00  0.00    -0.716 A  
HETATM   20  C   UNL     1     -13.852  15.806  72.803  1.00  0.00    -0.523 A  
HETATM   21  O   UNL     1     -13.447  15.460  71.554  1.00  0.00    -0.453 OA 
ENDBRANCH  15  17
ENDBRANCH  14  15
ENDBRANCH  11  14
ENDBRANCH   2   8
TORSDOF 4
ENDMDL
MODEL       22
REMARK 921   NORMALIZED FREE ENERGY PREDICTED BY IDOCK:   -5.58 KCAL/MOL
REMARK 922        TOTAL FREE ENERGY PREDICTED BY IDOCK:   -7.39 KCAL/MOL
REMARK 923 INTER-LIGAND FREE ENERGY PREDICTED BY IDOCK:   -6.88 KCAL/MOL
REMARK 924 INTRA-LIGAND FREE ENERGY PREDICTED BY IDOCK:   -0.51 KCAL/MOL
REMARK 927      BINDING AFFINITY PREDICTED BY RF-SCORE:    0.00 PKD
ROOT
HETATM    1  C   UNL     1      -8.805  13.455  67.129  1.00  0.00    -0.222 C  
HETATM    2  N   UNL     1     -10.148  12.973  66.833  1.00  0.00    -0.239 N  
HETATM    3 CL   UNL     1     -13.280  13.954  65.587  1.00  0.00    -0.253 Cl 
HETATM    4  C   UNL     1     -10.704  13.148  65.559  1.00  0.00    -0.283 C  
HETATM    5 CL   UNL     1     -12.293  11.994  63.664  1.00  0.00    -0.641 Cl 
HETATM    6  C   UNL     1     -12.132  12.621  65.324  1.00  0.00    -0.467 C  
HETATM    7  O   UNL     1     -10.066  13.716  64.665  1.00  0.00    -0.357 OA 
ENDROOT
BRANCH   2   8
HETATM    8  C   UNL     1     -10.836  12.339  67.887  1.00  0.00    -0.218 A  
HETATM    9  C   UNL     1     -11.436  13.112  68.884  1.00  0.00    -0.343 A  
HETATM   10  C   UNL     1     -11.965  12.485  70.012  1.00  0.00    -0.372 A  
HETATM   11  C   UNL     1     -11.905  11.094  70.127  1.00  0.00    -0.365 A  
HETATM   12  C   UNL     1     -10.805  10.946  67.989  1.00  0.00    -0.293 A  
HETATM   13  C   UNL     1     -11.330  10.320  69.120  1.00  0.00    -0.244 A  
BRANCH  11  14
HETATM   14  O   UNL     1     -12.357  10.565  71.355  1.00  0.00    -0.365 OA 
BRANCH  14  15
HETATM   15  C   UNL     1     -13.085   9.375  71.455  1.00  0.00    -0.347 C  
HETATM   16  O   UNL     1     -14.283   9.254  71.229  1.00  0.00    -0.193 OA 
BRANCH  15  17
HETATM   17  C   UNL     1     -12.212   8.304  71.874  1.00  0.00    -0.337 A  
HETATM   18  C   UNL     1     -10.918   8.338  72.365  1.00  0.00    -0.438 A  
HETATM   19  C   UNL     1     -10.535   6.998  72.609  1.00  0.00    -0.254 A  
HETATM   20  C   UNL     1     -11.615   6.223  72.261  1.00  0.00    -0.309 A  
HETATM   21  O   UNL     1     -12.637   7.001  71.817  1.00  0.00    -0.344 OA 
ENDBRANCH  15  17
ENDBRANCH  14  15
ENDBRANCH  11  14
ENDBRANCH   2   8
TORSDOF 4
ENDMDL
MODEL       23
REMARK 921   NORMALIZED FREE ENERGY PREDICTED BY IDOCK:   -5.56 KCAL/MOL
REMARK 922        TOTAL FREE ENERGY PREDICTED BY IDOCK:   -7.37 KCAL/MOL
REMARK 923 INTER-LIGAND FREE ENERGY PREDICTED BY IDOCK:   -7.15 KCAL/MOL
REMARK 924 INTRA-LIGAND FREE ENERGY PREDICTED BY IDOCK:   -0.22 KCAL/MOL
REMARK 927      BINDING AFFINITY PREDICTED BY RF-SCORE:    0.00 PKD
ROOT
HETATM    1  C   UNL     1     -11.358   6.248  69.563  1.00  0.00    -0.404 C  
HETATM    2  N   UNL     1     -10.741   6.986  70.657  1.00  0.00    -0.225 N  
HETATM    3 CL   UNL     1     -10.080   6.881  74.104  1.00  0.00    -0.375 Cl 
HETATM    4  C   UNL     1      -9.773   6.380  71.469  1.00  0.00    -0.168 C  
HETATM    5 CL   UNL     1      -7.452   6.813  72.838  1.00  0.00    -0.083 Cl 
HETATM    6  C   UNL     1      -9.172   7.219  72.612  1.00  0.00    -0.140 C  
HETATM    7  O   UNL     1      -9.428   5.209  71.272  1.00  0.00    -0.144 OA 
ENDROOT
BRANCH   2   8
HETATM    8  C   UNL     1     -11.173   8.314  70.844  1.00  0.00    -0.265 A  
HETATM    9  C   UNL     1     -12.276   8.573  71.662  1.00  0.00    -0.371 A  
HETATM   10  C   UNL     1     -12.807   9.862  71.709  1.00  0.00    -0.540 A  
HETATM   11  C   UNL     1     -12.223  10.883  70.954  1.00  0.00    -0.381 A  
HETATM   12  C   UNL     1     -10.571   9.342  70.115  1.00  0.00    -0.279 A  
HETATM   13  C   UNL     1     -11.106  10.631  70.159  1.00  0.00    -0.341 A  
BRANCH  11  14
HETATM   14  O   UNL     1     -12.903  12.120  70.975  1.00  0.00    -0.279 OA 
BRANCH  14  15
HETATM   15  C   UNL     1     -12.329  13.316  70.534  1.00  0.00    -0.316 C  
HETATM   16  O   UNL     1     -11.808  13.492  69.440  1.00  0.00    -0.296 OA 
BRANCH  15  17
HETATM   17  C   UNL     1     -12.435  14.318  71.568  1.00  0.00    -0.356 A  
HETATM   18  C   UNL     1     -13.310  14.418  72.636  1.00  0.00    -0.599 A  
HETATM   19  C   UNL     1     -12.977  15.605  73.331  1.00  0.00    -0.676 A  
HETATM   20  C   UNL     1     -11.916  16.158  72.654  1.00  0.00    -0.551 A  
HETATM   21  O   UNL     1     -11.579  15.389  71.587  1.00  0.00    -0.356 OA 
ENDBRANCH  15  17
ENDBRANCH  14  15
ENDBRANCH  11  14
ENDBRANCH   2   8
TORSDOF 4
ENDMDL
MODEL       24
REMARK 921   NORMALIZED FREE ENERGY PREDICTED BY IDOCK:   -5.55 KCAL/MOL
REMARK 922        TOTAL FREE ENERGY PREDICTED BY IDOCK:   -7.36 KCAL/MOL
REMARK 923 INTER-LIGAND FREE ENERGY PREDICTED BY IDOCK:   -7.37 KCAL/MOL
REMARK 924 INTRA-LIGAND FREE ENERGY PREDICTED BY IDOCK:    0.00 KCAL/MOL
REMARK 927      BINDING AFFINITY PREDICTED BY RF-SCORE:    0.00 PKD
ROOT
HETATM    1  C   UNL     1     -13.108  11.092  71.731  1.00  0.00    -0.449 C  
HETATM    2  N   UNL     1     -12.116  10.741  70.725  1.00  0.00    -0.344 N  
HETATM    3 CL   UNL     1      -8.809   9.640  70.294  1.00  0.00    -0.268 Cl 
HETATM    4  C   UNL     1     -11.464   9.501  70.769  1.00  0.00    -0.310 C  
HETATM    5 CL   UNL     1     -10.458   7.477  69.239  1.00  0.00    -0.213 Cl 
HETATM    6  C   UNL     1     -10.420   9.204  69.676  1.00  0.00    -0.223 C  
HETATM    7  O   UNL     1     -11.716   8.687  71.664  1.00  0.00    -0.274 OA 
ENDROOT
BRANCH   2   8
HETATM    8  C   UNL     1     -11.858  11.705  69.730  1.00  0.00    -0.357 A  
HETATM    9  C   UNL     1     -11.747  13.052  70.086  1.00  0.00    -0.244 A  
HETATM   10  C   UNL     1     -11.665  14.020  69.086  1.00  0.00    -0.375 A  
HETATM   11  C   UNL     1     -11.677  13.636  67.743  1.00  0.00    -0.362 A  
HETATM   12  C   UNL     1     -11.838  11.320  68.388  1.00  0.00    -0.331 A  
HETATM   13  C   UNL     1     -11.761  12.290  67.387  1.00  0.00    -0.405 A  
BRANCH  11  14
HETATM   14  O   UNL     1     -11.711  14.693  66.808  1.00  0.00    -0.373 OA 
BRANCH  14  15
HETATM   15  C   UNL     1     -10.560  15.262  66.254  1.00  0.00    -0.309 C  
HETATM   16  O   UNL     1      -9.703  14.658  65.622  1.00  0.00    -0.328 OA 
BRANCH  15  17
HETATM   17  C   UNL     1     -10.527  16.676  66.546  1.00  0.00    -0.262 A  
HETATM   18  C   UNL     1     -10.468  17.343  67.758  1.00  0.00    -0.376 A  
HETATM   19  C   UNL     1     -10.468  18.727  67.467  1.00  0.00    -0.495 A  
HETATM   20  C   UNL     1     -10.519  18.828  66.097  1.00  0.00    -0.446 A  
HETATM   21  O   UNL     1     -10.553  17.595  65.529  1.00  0.00    -0.622 OA 
ENDBRANCH  15  17
ENDBRANCH  14  15
ENDBRANCH  11  14
ENDBRANCH   2   8
TORSDOF 4
ENDMDL
MODEL       25
REMARK 921   NORMALIZED FREE ENERGY PREDICTED BY IDOCK:   -5.53 KCAL/MOL
REMARK 922        TOTAL FREE ENERGY PREDICTED BY IDOCK:   -7.34 KCAL/MOL
REMARK 923 INTER-LIGAND FREE ENERGY PREDICTED BY IDOCK:   -6.72 KCAL/MOL
REMARK 924 INTRA-LIGAND FREE ENERGY PREDICTED BY IDOCK:   -0.62 KCAL/MOL
REMARK 927      BINDING AFFINITY PREDICTED BY RF-SCORE:    0.00 PKD
ROOT
HETATM    1  C   UNL     1     -10.642   8.094  67.410  1.00  0.00    -0.255 C  
HETATM    2  N   UNL     1     -10.559   8.921  68.606  1.00  0.00    -0.186 N  
HETATM    3 CL   UNL     1     -12.069   9.530  71.718  1.00  0.00    -0.457 Cl 
HETATM    4  C   UNL     1     -10.498   8.333  69.877  1.00  0.00    -0.223 C  
HETATM    5 CL   UNL     1      -9.396   8.553  72.364  1.00  0.00    -0.356 Cl 
HETATM    6  C   UNL     1     -10.422   9.271  71.096  1.00  0.00    -0.331 C  
HETATM    7  O   UNL     1     -10.516   7.103  70.004  1.00  0.00    -0.210 OA 
ENDROOT
BRANCH   2   8
HETATM    8  C   UNL     1     -10.549  10.316  68.409  1.00  0.00    -0.216 A  
HETATM    9  C   UNL     1     -11.758  11.014  68.343  1.00  0.00    -0.329 A  
HETATM   10  C   UNL     1     -11.754  12.359  67.977  1.00  0.00    -0.414 A  
HETATM   11  C   UNL     1     -10.544  13.000  67.698  1.00  0.00    -0.224 A  
HETATM   12  C   UNL     1      -9.338  10.967  68.160  1.00  0.00    -0.165 A  
HETATM   13  C   UNL     1      -9.335  12.312  67.789  1.00  0.00    -0.194 A  
BRANCH  11  14
HETATM   14  O   UNL     1     -10.654  14.324  67.221  1.00  0.00    -0.274 OA 
BRANCH  14  15
HETATM   15  C   UNL     1     -10.255  14.712  65.938  1.00  0.00    -0.326 C  
HETATM   16  O   UNL     1      -9.489  15.632  65.680  1.00  0.00    -0.320 OA 
BRANCH  15  17
HETATM   17  C   UNL     1     -10.889  13.866  64.954  1.00  0.00    -0.405 A  
HETATM   18  C   UNL     1     -12.198  13.837  64.503  1.00  0.00    -0.441 A  
HETATM   19  C   UNL     1     -12.279  12.804  63.540  1.00  0.00    -0.613 A  
HETATM   20  C   UNL     1     -11.017  12.265  63.452  1.00  0.00    -0.405 A  
HETATM   21  O   UNL     1     -10.167  12.900  64.301  1.00  0.00    -0.378 OA 
ENDBRANCH  15  17
ENDBRANCH  14  15
ENDBRANCH  11  14
ENDBRANCH   2   8
TORSDOF 4
ENDMDL
MODEL       26
REMARK 921   NORMALIZED FREE ENERGY PREDICTED BY IDOCK:   -5.49 KCAL/MOL
REMARK 922        TOTAL FREE ENERGY PREDICTED BY IDOCK:   -7.28 KCAL/MOL
REMARK 923 INTER-LIGAND FREE ENERGY PREDICTED BY IDOCK:   -6.76 KCAL/MOL
REMARK 924 INTRA-LIGAND FREE ENERGY PREDICTED BY IDOCK:   -0.52 KCAL/MOL
REMARK 927      BINDING AFFINITY PREDICTED BY RF-SCORE:    0.00 PKD
ROOT
HETATM    1  C   UNL     1      -8.130  18.916  68.570  1.00  0.00    -0.348 C  
HETATM    2  N   UNL     1      -8.087  17.461  68.533  1.00  0.00    -0.263 N  
HETATM    3 CL   UNL     1      -6.098  14.726  67.588  1.00  0.00    -0.135 Cl 
HETATM    4  C   UNL     1      -7.013  16.764  69.104  1.00  0.00    -0.231 C  
HETATM    5 CL   UNL     1      -6.324  14.517  70.490  1.00  0.00    -0.174 Cl 
HETATM    6  C   UNL     1      -7.032  15.227  69.017  1.00  0.00    -0.136 C  
HETATM    7  O   UNL     1      -6.083  17.373  69.645  1.00  0.00    -0.239 OA 
ENDROOT
BRANCH   2   8
HETATM    8  C   UNL     1      -9.166  16.815  67.898  1.00  0.00    -0.225 A  
HETATM    9  C   UNL     1     -10.192  16.263  68.670  1.00  0.00    -0.254 A  
HETATM   10  C   UNL     1     -11.166  15.478  68.054  1.00  0.00    -0.332 A  
HETATM   11  C   UNL     1     -11.118  15.264  66.674  1.00  0.00    -0.276 A  
HETATM   12  C   UNL     1      -9.137  16.626  66.514  1.00  0.00    -0.303 A  
HETATM   13  C   UNL     1     -10.110  15.836  65.900  1.00  0.00    -0.381 A  
BRANCH  11  14
HETATM   14  O   UNL     1     -12.075  14.360  66.165  1.00  0.00    -0.399 OA 
BRANCH  14  15
HETATM   15  C   UNL     1     -12.135  13.986  64.819  1.00  0.00    -0.437 C  
HETATM   16  O   UNL     1     -12.699  14.615  63.932  1.00  0.00    -0.788 OA 
BRANCH  15  17
HETATM   17  C   UNL     1     -11.436  12.737  64.628  1.00  0.00    -0.324 A  
HETATM   18  C   UNL     1     -10.928  11.841  65.552  1.00  0.00    -0.344 A  
HETATM   19  C   UNL     1     -10.331  10.788  64.820  1.00  0.00    -0.380 A  
HETATM   20  C   UNL     1     -10.513  11.096  63.492  1.00  0.00    -0.358 A  
HETATM   21  O   UNL     1     -11.181  12.272  63.363  1.00  0.00    -0.438 OA 
ENDBRANCH  15  17
ENDBRANCH  14  15
ENDBRANCH  11  14
ENDBRANCH   2   8
TORSDOF 4
ENDMDL
MODEL       27
REMARK 921   NORMALIZED FREE ENERGY PREDICTED BY IDOCK:   -5.48 KCAL/MOL
REMARK 922        TOTAL FREE ENERGY PREDICTED BY IDOCK:   -7.26 KCAL/MOL
REMARK 923 INTER-LIGAND FREE ENERGY PREDICTED BY IDOCK:   -6.98 KCAL/MOL
REMARK 924 INTRA-LIGAND FREE ENERGY PREDICTED BY IDOCK:   -0.29 KCAL/MOL
REMARK 927      BINDING AFFINITY PREDICTED BY RF-SCORE:    0.00 PKD
ROOT
HETATM    1  C   UNL     1      -8.749  10.001  65.701  1.00  0.00    -0.155 C  
HETATM    2  N   UNL     1      -9.844  10.961  65.731  1.00  0.00    -0.225 N  
HETATM    3 CL   UNL     1     -10.958  14.003  64.377  1.00  0.00    -0.340 Cl 
HETATM    4  C   UNL     1     -10.482  11.351  64.545  1.00  0.00    -0.322 C  
HETATM    5 CL   UNL     1     -12.889  12.022  63.449  1.00  0.00    -0.587 Cl 
HETATM    6  C   UNL     1     -11.625  12.377  64.653  1.00  0.00    -0.343 C  
HETATM    7  O   UNL     1     -10.124  10.890  63.455  1.00  0.00    -0.324 OA 
ENDROOT
BRANCH   2   8
HETATM    8  C   UNL     1     -10.209  11.462  66.996  1.00  0.00    -0.213 A  
HETATM    9  C   UNL     1     -11.264  10.871  67.696  1.00  0.00    -0.379 A  
HETATM   10  C   UNL     1     -11.735  11.472  68.862  1.00  0.00    -0.403 A  
HETATM   11  C   UNL     1     -11.139  12.647  69.329  1.00  0.00    -0.132 A  
HETATM   12  C   UNL     1      -9.594  12.619  67.481  1.00  0.00    -0.184 A  
HETATM   13  C   UNL     1     -10.069  13.223  68.645  1.00  0.00    -0.151 A  
BRANCH  11  14
HETATM   14  O   UNL     1     -11.763  13.242  70.446  1.00  0.00    -0.228 OA 
BRANCH  14  15
HETATM   15  C   UNL     1     -12.162  14.582  70.476  1.00  0.00    -0.332 C  
HETATM   16  O   UNL     1     -12.363  15.285  69.494  1.00  0.00    -0.266 OA 
BRANCH  15  17
HETATM   17  C   UNL     1     -12.295  15.020  71.846  1.00  0.00    -0.342 A  
HETATM   18  C   UNL     1     -12.667  14.322  72.981  1.00  0.00    -0.391 A  
HETATM   19  C   UNL     1     -12.640  15.240  74.058  1.00  0.00    -0.695 A  
HETATM   20  C   UNL     1     -12.247  16.443  73.522  1.00  0.00    -0.462 A  
HETATM   21  O   UNL     1     -12.033  16.323  72.186  1.00  0.00    -0.504 OA 
ENDBRANCH  15  17
ENDBRANCH  14  15
ENDBRANCH  11  14
ENDBRANCH   2   8
TORSDOF 4
ENDMDL
MODEL       28
REMARK 921   NORMALIZED FREE ENERGY PREDICTED BY IDOCK:   -5.47 KCAL/MOL
REMARK 922        TOTAL FREE ENERGY PREDICTED BY IDOCK:   -7.26 KCAL/MOL
REMARK 923 INTER-LIGAND FREE ENERGY PREDICTED BY IDOCK:   -6.72 KCAL/MOL
REMARK 924 INTRA-LIGAND FREE ENERGY PREDICTED BY IDOCK:   -0.53 KCAL/MOL
REMARK 927      BINDING AFFINITY PREDICTED BY RF-SCORE:    0.00 PKD
ROOT
HETATM    1  C   UNL     1     -12.158  13.898  68.532  1.00  0.00    -0.296 C  
HETATM    2  N   UNL     1     -11.242  13.665  67.423  1.00  0.00    -0.292 N  
HETATM    3 CL   UNL     1      -8.543  11.682  66.370  1.00  0.00    -0.173 Cl 
HETATM    4  C   UNL     1     -11.101  12.384  66.872  1.00  0.00    -0.287 C  
HETATM    5 CL   UNL     1     -10.719  11.009  64.546  1.00  0.00    -0.387 Cl 
HETATM    6  C   UNL     1     -10.107  12.213  65.708  1.00  0.00    -0.247 C  
HETATM    7  O   UNL     1     -11.748  11.431  67.319  1.00  0.00    -0.577 OA 
ENDROOT
BRANCH   2   8
HETATM    8  C   UNL     1     -10.523  14.782  66.955  1.00  0.00    -0.277 A  
HETATM    9  C   UNL     1      -9.399  15.225  67.657  1.00  0.00    -0.199 A  
HETATM   10  C   UNL     1      -8.793  16.427  67.293  1.00  0.00    -0.203 A  
HETATM   11  C   UNL     1      -9.302  17.166  66.223  1.00  0.00    -0.234 A  
HETATM   12  C   UNL     1     -11.011  15.507  65.864  1.00  0.00    -0.264 A  
HETATM   13  C   UNL     1     -10.406  16.712  65.504  1.00  0.00    -0.268 A  
BRANCH  11  14
HETATM   14  O   UNL     1      -8.695  18.423  66.009  1.00  0.00    -0.499 OA 
BRANCH  14  15
HETATM   15  C   UNL     1      -8.997  19.558  66.769  1.00  0.00    -0.335 C  
HETATM   16  O   UNL     1     -10.095  20.098  66.833  1.00  0.00    -0.426 OA 
BRANCH  15  17
HETATM   17  C   UNL     1      -7.815  20.006  67.466  1.00  0.00    -0.301 A  
HETATM   18  C   UNL     1      -6.864  20.948  67.111  1.00  0.00    -0.417 A  
HETATM   19  C   UNL     1      -5.913  20.988  68.157  1.00  0.00    -0.394 A  
HETATM   20  C   UNL     1      -6.338  20.076  69.094  1.00  0.00    -0.325 A  
HETATM   21  O   UNL     1      -7.488  19.477  68.688  1.00  0.00    -0.323 OA 
ENDBRANCH  15  17
ENDBRANCH  14  15
ENDBRANCH  11  14
ENDBRANCH   2   8
TORSDOF 4
ENDMDL
MODEL       29
REMARK 921   NORMALIZED FREE ENERGY PREDICTED BY IDOCK:   -5.47 KCAL/MOL
REMARK 922        TOTAL FREE ENERGY PREDICTED BY IDOCK:   -7.25 KCAL/MOL
REMARK 923 INTER-LIGAND FREE ENERGY PREDICTED BY IDOCK:   -6.65 KCAL/MOL
REMARK 924 INTRA-LIGAND FREE ENERGY PREDICTED BY IDOCK:   -0.61 KCAL/MOL
REMARK 927      BINDING AFFINITY PREDICTED BY RF-SCORE:    0.00 PKD
ROOT
HETATM    1  C   UNL     1     -11.915  14.116  64.340  1.00  0.00    -0.457 C  
HETATM    2  N   UNL     1     -11.130  14.737  65.399  1.00  0.00    -0.340 N  
HETATM    3 CL   UNL     1      -8.190  16.550  66.031  1.00  0.00    -0.264 Cl 
HETATM    4  C   UNL     1     -10.749  16.083  65.308  1.00  0.00    -0.399 C  
HETATM    5 CL   UNL     1     -10.356  18.369  66.745  1.00  0.00    -0.397 Cl 
HETATM    6  C   UNL     1      -9.912  16.667  66.461  1.00  0.00    -0.285 C  
HETATM    7  O   UNL     1     -11.070  16.764  64.328  1.00  0.00    -1.106 OA 
ENDROOT
BRANCH   2   8
HETATM    8  C   UNL     1     -10.784  13.916  66.490  1.00  0.00    -0.277 A  
HETATM    9  C   UNL     1      -9.546  13.269  66.504  1.00  0.00    -0.267 A  
HETATM   10  C   UNL     1      -9.276  12.326  67.494  1.00  0.00    -0.181 A  
HETATM   11  C   UNL     1     -10.236  12.050  68.472  1.00  0.00    -0.212 A  
HETATM   12  C   UNL     1     -11.730  13.662  67.487  1.00  0.00    -0.406 A  
HETATM   13  C   UNL     1     -11.461  12.715  68.475  1.00  0.00    -0.349 A  
BRANCH  11  14
HETATM   14  O   UNL     1      -9.917  10.997  69.357  1.00  0.00    -0.131 OA 
BRANCH  14  15
HETATM   15  C   UNL     1     -10.676   9.828  69.461  1.00  0.00    -0.233 C  
HETATM   16  O   UNL     1     -11.635   9.668  70.206  1.00  0.00    -0.252 OA 
BRANCH  15  17
HETATM   17  C   UNL     1     -10.157   8.827  68.559  1.00  0.00    -0.189 A  
HETATM   18  C   UNL     1     -10.472   8.556  67.238  1.00  0.00    -0.366 A  
HETATM   19  C   UNL     1      -9.668   7.462  66.839  1.00  0.00    -0.265 A  
HETATM   20  C   UNL     1      -8.904   7.132  67.933  1.00  0.00    -0.124 A  
HETATM   21  O   UNL     1      -9.189   7.951  68.978  1.00  0.00    -0.148 OA 
ENDBRANCH  15  17
ENDBRANCH  14  15
ENDBRANCH  11  14
ENDBRANCH   2   8
TORSDOF 4
ENDMDL
MODEL       30
REMARK 921   NORMALIZED FREE ENERGY PREDICTED BY IDOCK:   -5.45 KCAL/MOL
REMARK 922        TOTAL FREE ENERGY PREDICTED BY IDOCK:   -7.23 KCAL/MOL
REMARK 923 INTER-LIGAND FREE ENERGY PREDICTED BY IDOCK:   -6.66 KCAL/MOL
REMARK 924 INTRA-LIGAND FREE ENERGY PREDICTED BY IDOCK:   -0.57 KCAL/MOL
REMARK 927      BINDING AFFINITY PREDICTED BY RF-SCORE:    0.00 PKD
ROOT
HETATM    1  C   UNL     1     -10.637  19.788  66.676  1.00  0.00    -0.462 C  
HETATM    2  N   UNL     1      -9.651  18.805  67.104  1.00  0.00    -0.294 N  
HETATM    3 CL   UNL     1      -6.509  17.445  66.322  1.00  0.00    -0.274 Cl 
HETATM    4  C   UNL     1      -8.318  19.181  67.323  1.00  0.00    -0.277 C  
HETATM    5 CL   UNL     1      -6.133  18.756  68.902  1.00  0.00    -0.228 Cl 
HETATM    6  C   UNL     1      -7.330  18.086  67.765  1.00  0.00    -0.213 C  
HETATM    7  O   UNL     1      -7.957  20.352  67.154  1.00  0.00    -0.325 OA 
ENDROOT
BRANCH   2   8
HETATM    8  C   UNL     1     -10.110  17.485  67.275  1.00  0.00    -0.327 A  
HETATM    9  C   UNL     1     -10.104  16.604  66.190  1.00  0.00    -0.361 A  
HETATM   10  C   UNL     1     -10.716  15.358  66.315  1.00  0.00    -0.312 A  
HETATM   11  C   UNL     1     -11.313  14.994  67.525  1.00  0.00    -0.333 A  
HETATM   12  C   UNL     1     -10.680  17.107  68.494  1.00  0.00    -0.326 A  
HETATM   13  C   UNL     1     -11.296  15.861  68.617  1.00  0.00    -0.376 A  
BRANCH  11  14
HETATM   14  O   UNL     1     -12.008  13.766  67.515  1.00  0.00    -0.372 OA 
BRANCH  14  15
HETATM   15  C   UNL     1     -11.398  12.538  67.790  1.00  0.00    -0.296 C  
HETATM   16  O   UNL     1     -10.544  11.999  67.098  1.00  0.00    -0.216 OA 
BRANCH  15  17
HETATM   17  C   UNL     1     -11.933  11.992  69.015  1.00  0.00    -0.264 A  
HETATM   18  C   UNL     1     -12.149  12.587  70.246  1.00  0.00    -0.373 A  
HETATM   19  C   UNL     1     -12.684  11.592  71.098  1.00  0.00    -0.458 A  
HETATM   20  C   UNL     1     -12.771  10.449  70.339  1.00  0.00    -0.218 A  
HETATM   21  O   UNL     1     -12.322  10.678  69.078  1.00  0.00    -0.355 OA 
ENDBRANCH  15  17
ENDBRANCH  14  15
ENDBRANCH  11  14
ENDBRANCH   2   8
TORSDOF 4
ENDMDL
MODEL       31
REMARK 921   NORMALIZED FREE ENERGY PREDICTED BY IDOCK:   -5.44 KCAL/MOL
REMARK 922        TOTAL FREE ENERGY PREDICTED BY IDOCK:   -7.22 KCAL/MOL
REMARK 923 INTER-LIGAND FREE ENERGY PREDICTED BY IDOCK:   -6.74 KCAL/MOL
REMARK 924 INTRA-LIGAND FREE ENERGY PREDICTED BY IDOCK:   -0.48 KCAL/MOL
REMARK 927      BINDING AFFINITY PREDICTED BY RF-SCORE:    0.00 PKD
ROOT
HETATM    1  C   UNL     1     -11.980  13.268  68.655  1.00  0.00    -0.310 C  
HETATM    2  N   UNL     1     -11.110  13.153  67.493  1.00  0.00    -0.262 N  
HETATM    3 CL   UNL     1      -8.526  11.232  66.090  1.00  0.00    -0.164 Cl 
HETATM    4  C   UNL     1     -11.037  11.952  66.773  1.00  0.00    -0.308 C  
HETATM    5 CL   UNL     1     -10.784  10.885  64.274  1.00  0.00    -0.359 Cl 
HETATM    6  C   UNL     1     -10.088  11.901  65.562  1.00  0.00    -0.245 C  
HETATM    7  O   UNL     1     -11.707  10.971  67.115  1.00  0.00    -0.456 OA 
ENDROOT
BRANCH   2   8
HETATM    8  C   UNL     1     -10.362  14.296  67.149  1.00  0.00    -0.262 A  
HETATM    9  C   UNL     1     -10.869  15.197  66.210  1.00  0.00    -0.333 A  
HETATM   10  C   UNL     1     -10.058  16.231  65.744  1.00  0.00    -0.373 A  
HETATM   11  C   UNL     1      -8.755  16.367  66.231  1.00  0.00    -0.334 A  
HETATM   12  C   UNL     1      -9.071  14.452  67.659  1.00  0.00    -0.194 A  
HETATM   13  C   UNL     1      -8.257  15.484  67.188  1.00  0.00    -0.246 A  
BRANCH  11  14
HETATM   14  O   UNL     1      -7.976  17.367  65.612  1.00  0.00    -0.477 OA 
BRANCH  14  15
HETATM   15  C   UNL     1      -7.525  18.510  66.280  1.00  0.00    -0.257 C  
HETATM   16  O   UNL     1      -6.382  18.947  66.246  1.00  0.00    -0.174 OA 
BRANCH  15  17
HETATM   17  C   UNL     1      -8.612  19.097  67.028  1.00  0.00    -0.290 A  
HETATM   18  C   UNL     1      -9.643  19.923  66.615  1.00  0.00    -0.527 A  
HETATM   19  C   UNL     1     -10.423  20.212  67.760  1.00  0.00    -0.397 A  
HETATM   20  C   UNL     1      -9.830  19.541  68.804  1.00  0.00    -0.451 A  
HETATM   21  O   UNL     1      -8.735  18.863  68.373  1.00  0.00    -0.322 OA 
ENDBRANCH  15  17
ENDBRANCH  14  15
ENDBRANCH  11  14
ENDBRANCH   2   8
TORSDOF 4
ENDMDL
MODEL       32
REMARK 921   NORMALIZED FREE ENERGY PREDICTED BY IDOCK:   -5.41 KCAL/MOL
REMARK 922        TOTAL FREE ENERGY PREDICTED BY IDOCK:   -7.19 KCAL/MOL
REMARK 923 INTER-LIGAND FREE ENERGY PREDICTED BY IDOCK:   -7.09 KCAL/MOL
REMARK 924 INTRA-LIGAND FREE ENERGY PREDICTED BY IDOCK:   -0.10 KCAL/MOL
REMARK 927      BINDING AFFINITY PREDICTED BY RF-SCORE:    0.00 PKD
ROOT
HETATM    1  C   UNL     1     -13.989   7.586  71.621  1.00  0.00    -0.412 C  
HETATM    2  N   UNL     1     -12.565   7.889  71.593  1.00  0.00    -0.314 N  
HETATM    3 CL   UNL     1      -9.656   7.936  73.560  1.00  0.00    -0.333 Cl 
HETATM    4  C   UNL     1     -11.624   6.936  72.005  1.00  0.00    -0.285 C  
HETATM    5 CL   UNL     1      -9.137   5.927  71.509  1.00  0.00    -0.147 Cl 
HETATM    6  C   UNL     1     -10.137   7.332  71.957  1.00  0.00    -0.184 C  
HETATM    7  O   UNL     1     -11.987   5.823  72.402  1.00  0.00    -0.275 OA 
ENDROOT
BRANCH   2   8
HETATM    8  C   UNL     1     -12.203   9.173  71.139  1.00  0.00    -0.285 A  
HETATM    9  C   UNL     1     -12.855  10.297  71.653  1.00  0.00    -0.568 A  
HETATM   10  C   UNL     1     -12.620  11.547  71.081  1.00  0.00    -0.463 A  
HETATM   11  C   UNL     1     -11.724  11.667  70.016  1.00  0.00    -0.321 A  
HETATM   12  C   UNL     1     -11.284   9.300  70.095  1.00  0.00    -0.237 A  
HETATM   13  C   UNL     1     -11.053  10.551  69.520  1.00  0.00    -0.320 A  
BRANCH  11  14
HETATM   14  O   UNL     1     -11.645  12.949  69.430  1.00  0.00    -0.285 OA 
BRANCH  14  15
HETATM   15  C   UNL     1     -10.778  13.257  68.377  1.00  0.00    -0.257 C  
HETATM   16  O   UNL     1      -9.598  13.563  68.495  1.00  0.00    -0.214 OA 
BRANCH  15  17
HETATM   17  C   UNL     1     -11.486  13.169  67.121  1.00  0.00    -0.334 A  
HETATM   18  C   UNL     1     -11.528  12.153  66.182  1.00  0.00    -0.429 A  
HETATM   19  C   UNL     1     -12.371  12.594  65.135  1.00  0.00    -0.547 A  
HETATM   20  C   UNL     1     -12.801  13.849  65.495  1.00  0.00    -0.431 A  
HETATM   21  O   UNL     1     -12.275  14.207  66.695  1.00  0.00    -0.448 OA 
ENDBRANCH  15  17
ENDBRANCH  14  15
ENDBRANCH  11  14
ENDBRANCH   2   8
TORSDOF 4
ENDMDL
MODEL       33
REMARK 921   NORMALIZED FREE ENERGY PREDICTED BY IDOCK:   -5.39 KCAL/MOL
REMARK 922        TOTAL FREE ENERGY PREDICTED BY IDOCK:   -7.16 KCAL/MOL
REMARK 923 INTER-LIGAND FREE ENERGY PREDICTED BY IDOCK:   -6.76 KCAL/MOL
REMARK 924 INTRA-LIGAND FREE ENERGY PREDICTED BY IDOCK:   -0.40 KCAL/MOL
REMARK 927      BINDING AFFINITY PREDICTED BY RF-SCORE:    0.00 PKD
ROOT
HETATM    1  C   UNL     1      -8.052  10.113  64.373  1.00  0.00    -0.163 C  
HETATM    2  N   UNL     1      -9.248  10.797  64.847  1.00  0.00    -0.205 N  
HETATM    3 CL   UNL     1     -10.888  13.902  64.884  1.00  0.00    -0.386 Cl 
HETATM    4  C   UNL     1     -10.066  11.504  63.955  1.00  0.00    -0.345 C  
HETATM    5 CL   UNL     1     -12.651  12.145  63.361  1.00  0.00    -0.661 Cl 
HETATM    6  C   UNL     1     -11.308  12.209  64.530  1.00  0.00    -0.334 C  
HETATM    7  O   UNL     1      -9.785  11.562  62.753  1.00  0.00    -0.340 OA 
ENDROOT
BRANCH   2   8
HETATM    8  C   UNL     1      -9.521  10.707  66.226  1.00  0.00    -0.177 A  
HETATM    9  C   UNL     1     -10.250   9.621  66.717  1.00  0.00    -0.308 A  
HETATM   10  C   UNL     1     -10.666   9.620  68.048  1.00  0.00    -0.284 A  
HETATM   11  C   UNL     1     -10.337  10.693  68.881  1.00  0.00    -0.207 A  
HETATM   12  C   UNL     1      -9.166  11.764  67.068  1.00  0.00    -0.187 A  
HETATM   13  C   UNL     1      -9.587  11.764  68.399  1.00  0.00    -0.191 A  
BRANCH  11  14
HETATM   14  O   UNL     1     -10.905  10.657  70.173  1.00  0.00    -0.261 OA 
BRANCH  14  15
HETATM   15  C   UNL     1     -10.753   9.575  71.045  1.00  0.00    -0.340 C  
HETATM   16  O   UNL     1      -9.685   9.139  71.456  1.00  0.00    -0.298 OA 
BRANCH  15  17
HETATM   17  C   UNL     1     -12.049   9.038  71.386  1.00  0.00    -0.327 A  
HETATM   18  C   UNL     1     -13.176   9.662  71.894  1.00  0.00    -0.538 A  
HETATM   19  C   UNL     1     -14.165   8.662  72.050  1.00  0.00    -0.524 A  
HETATM   20  C   UNL     1     -13.591   7.488  71.623  1.00  0.00    -0.368 A  
HETATM   21  O   UNL     1     -12.313   7.703  71.218  1.00  0.00    -0.314 OA 
ENDBRANCH  15  17
ENDBRANCH  14  15
ENDBRANCH  11  14
ENDBRANCH   2   8
TORSDOF 4
ENDMDL
MODEL       34
REMARK 921   NORMALIZED FREE ENERGY PREDICTED BY IDOCK:   -5.39 KCAL/MOL
REMARK 922        TOTAL FREE ENERGY PREDICTED BY IDOCK:   -7.16 KCAL/MOL
REMARK 923 INTER-LIGAND FREE ENERGY PREDICTED BY IDOCK:   -6.71 KCAL/MOL
REMARK 924 INTRA-LIGAND FREE ENERGY PREDICTED BY IDOCK:   -0.45 KCAL/MOL
REMARK 927      BINDING AFFINITY PREDICTED BY RF-SCORE:    0.00 PKD
ROOT
HETATM    1  C   UNL     1      -9.630  15.163  67.732  1.00  0.00    -0.203 C  
HETATM    2  N   UNL     1     -10.135  13.929  67.145  1.00  0.00    -0.249 N  
HETATM    3 CL   UNL     1     -12.652  12.621  65.074  1.00  0.00    -0.567 Cl 
HETATM    4  C   UNL     1     -10.336  13.828  65.761  1.00  0.00    -0.307 C  
HETATM    5 CL   UNL     1     -10.167  12.144  63.621  1.00  0.00    -0.447 Cl 
HETATM    6  C   UNL     1     -10.882  12.496  65.214  1.00  0.00    -0.286 C  
HETATM    7  O   UNL     1     -10.092  14.785  65.017  1.00  0.00    -0.371 OA 
ENDROOT
BRANCH   2   8
HETATM    8  C   UNL     1     -10.406  12.872  68.036  1.00  0.00    -0.227 A  
HETATM    9  C   UNL     1      -9.452  11.869  68.228  1.00  0.00    -0.197 A  
HETATM   10  C   UNL     1      -9.786  10.739  68.973  1.00  0.00    -0.208 A  
HETATM   11  C   UNL     1     -11.062  10.626  69.532  1.00  0.00    -0.274 A  
HETATM   12  C   UNL     1     -11.670  12.773  68.622  1.00  0.00    -0.360 A  
HETATM   13  C   UNL     1     -12.006  11.638  69.362  1.00  0.00    -0.381 A  
BRANCH  11  14
HETATM   14  O   UNL     1     -11.343   9.396  70.163  1.00  0.00    -0.243 OA 
BRANCH  14  15
HETATM   15  C   UNL     1     -11.705   9.291  71.510  1.00  0.00    -0.380 C  
HETATM   16  O   UNL     1     -12.736   9.730  72.004  1.00  0.00    -0.388 OA 
BRANCH  15  17
HETATM   17  C   UNL     1     -10.673   8.593  72.239  1.00  0.00    -0.313 A  
HETATM   18  C   UNL     1      -9.294   8.668  72.140  1.00  0.00    -0.343 A  
HETATM   19  C   UNL     1      -8.763   7.759  73.086  1.00  0.00    -0.250 A  
HETATM   20  C   UNL     1      -9.844   7.187  73.713  1.00  0.00    -0.313 A  
HETATM   21  O   UNL     1     -11.004   7.684  73.211  1.00  0.00    -0.400 OA 
ENDBRANCH  15  17
ENDBRANCH  14  15
ENDBRANCH  11  14
ENDBRANCH   2   8
TORSDOF 4
ENDMDL
MODEL       35
REMARK 921   NORMALIZED FREE ENERGY PREDICTED BY IDOCK:   -5.36 KCAL/MOL
REMARK 922        TOTAL FREE ENERGY PREDICTED BY IDOCK:   -7.12 KCAL/MOL
REMARK 923 INTER-LIGAND FREE ENERGY PREDICTED BY IDOCK:   -6.67 KCAL/MOL
REMARK 924 INTRA-LIGAND FREE ENERGY PREDICTED BY IDOCK:   -0.45 KCAL/MOL
REMARK 927      BINDING AFFINITY PREDICTED BY RF-SCORE:    0.00 PKD
ROOT
HETATM    1  C   UNL     1     -12.516  12.575  64.805  1.00  0.00    -0.457 C  
HETATM    2  N   UNL     1     -11.319  12.802  65.604  1.00  0.00    -0.307 N  
HETATM    3 CL   UNL     1      -9.578  11.690  68.444  1.00  0.00    -0.194 Cl 
HETATM    4  C   UNL     1     -10.440  11.747  65.885  1.00  0.00    -0.255 C  
HETATM    5 CL   UNL     1      -7.811  11.086  66.202  1.00  0.00    -0.148 Cl 
HETATM    6  C   UNL     1      -9.201  12.060  66.745  1.00  0.00    -0.201 C  
HETATM    7  O   UNL     1     -10.667  10.607  65.464  1.00  0.00    -0.165 OA 
ENDROOT
BRANCH   2   8
HETATM    8  C   UNL     1     -11.110  14.116  66.067  1.00  0.00    -0.314 A  
HETATM    9  C   UNL     1     -10.354  15.007  65.301  1.00  0.00    -0.424 A  
HETATM   10  C   UNL     1     -10.003  16.245  65.837  1.00  0.00    -0.366 A  
HETATM   11  C   UNL     1     -10.424  16.590  67.124  1.00  0.00    -0.300 A  
HETATM   12  C   UNL     1     -11.556  14.475  67.341  1.00  0.00    -0.406 A  
HETATM   13  C   UNL     1     -11.200  15.713  67.879  1.00  0.00    -0.328 A  
BRANCH  11  14
HETATM   14  O   UNL     1      -9.918  17.811  67.621  1.00  0.00    -0.298 OA 
BRANCH  14  15
HETATM   15  C   UNL     1      -9.994  19.015  66.915  1.00  0.00    -0.351 C  
HETATM   16  O   UNL     1     -11.028  19.557  66.545  1.00  0.00    -0.392 OA 
BRANCH  15  17
HETATM   17  C   UNL     1      -8.664  19.526  66.678  1.00  0.00    -0.342 A  
HETATM   18  C   UNL     1      -7.980  20.566  67.283  1.00  0.00    -0.361 A  
HETATM   19  C   UNL     1      -6.712  20.643  66.660  1.00  0.00    -0.328 A  
HETATM   20  C   UNL     1      -6.690  19.643  65.717  1.00  0.00    -0.261 A  
HETATM   21  O   UNL     1      -7.865  18.959  65.720  1.00  0.00    -0.471 OA 
ENDBRANCH  15  17
ENDBRANCH  14  15
ENDBRANCH  11  14
ENDBRANCH   2   8
TORSDOF 4
ENDMDL
MODEL       36
REMARK 921   NORMALIZED FREE ENERGY PREDICTED BY IDOCK:   -5.35 KCAL/MOL
REMARK 922        TOTAL FREE ENERGY PREDICTED BY IDOCK:   -7.12 KCAL/MOL
REMARK 923 INTER-LIGAND FREE ENERGY PREDICTED BY IDOCK:   -6.65 KCAL/MOL
REMARK 924 INTRA-LIGAND FREE ENERGY PREDICTED BY IDOCK:   -0.47 KCAL/MOL
REMARK 927      BINDING AFFINITY PREDICTED BY RF-SCORE:    0.00 PKD
ROOT
HETATM    1  C   UNL     1      -8.135   9.941  64.677  1.00  0.00    -0.152 C  
HETATM    2  N   UNL     1      -9.322  10.663  65.114  1.00  0.00    -0.197 N  
HETATM    3 CL   UNL     1     -10.892  13.803  65.042  1.00  0.00    -0.350 Cl 
HETATM    4  C   UNL     1     -10.110  11.363  64.190  1.00  0.00    -0.309 C  
HETATM    5 CL   UNL     1     -12.672  12.045  63.540  1.00  0.00    -0.648 Cl 
HETATM    6  C   UNL     1     -11.345  12.112  64.727  1.00  0.00    -0.325 C  
HETATM    7  O   UNL     1      -9.810  11.383  62.991  1.00  0.00    -0.353 OA 
ENDROOT
BRANCH   2   8
HETATM    8  C   UNL     1      -9.617  10.617  66.491  1.00  0.00    -0.180 A  
HETATM    9  C   UNL     1     -10.476   9.630  66.981  1.00  0.00    -0.302 A  
HETATM   10  C   UNL     1     -10.903   9.689  68.307  1.00  0.00    -0.230 A  
HETATM   11  C   UNL     1     -10.455  10.721  69.136  1.00  0.00    -0.218 A  
HETATM   12  C   UNL     1      -9.146  11.630  67.330  1.00  0.00    -0.167 A  
HETATM   13  C   UNL     1      -9.577  11.691  68.655  1.00  0.00    -0.139 A  
BRANCH  11  14
HETATM   14  O   UNL     1     -11.036  10.762  70.422  1.00  0.00    -0.266 OA 
BRANCH  14  15
HETATM   15  C   UNL     1     -12.401  10.973  70.639  1.00  0.00    -0.386 C  
HETATM   16  O   UNL     1     -13.284  10.142  70.469  1.00  0.00    -0.275 OA 
BRANCH  15  17
HETATM   17  C   UNL     1     -12.619  12.328  71.090  1.00  0.00    -0.253 A  
HETATM   18  C   UNL     1     -12.185  13.532  70.563  1.00  0.00    -0.433 A  
HETATM   19  C   UNL     1     -12.679  14.554  71.407  1.00  0.00    -0.407 A  
HETATM   20  C   UNL     1     -13.392  13.919  72.396  1.00  0.00    -0.529 A  
HETATM   21  O   UNL     1     -13.365  12.573  72.214  1.00  0.00    -0.525 OA 
ENDBRANCH  15  17
ENDBRANCH  14  15
ENDBRANCH  11  14
ENDBRANCH   2   8
TORSDOF 4
ENDMDL
MODEL       37
REMARK 921   NORMALIZED FREE ENERGY PREDICTED BY IDOCK:   -5.34 KCAL/MOL
REMARK 922        TOTAL FREE ENERGY PREDICTED BY IDOCK:   -7.10 KCAL/MOL
REMARK 923 INTER-LIGAND FREE ENERGY PREDICTED BY IDOCK:   -6.65 KCAL/MOL
REMARK 924 INTRA-LIGAND FREE ENERGY PREDICTED BY IDOCK:   -0.45 KCAL/MOL
REMARK 927      BINDING AFFINITY PREDICTED BY RF-SCORE:    0.00 PKD
ROOT
HETATM    1  C   UNL     1     -12.266  10.717  69.647  1.00  0.00    -0.254 C  
HETATM    2  N   UNL     1     -11.308  10.924  68.570  1.00  0.00    -0.276 N  
HETATM    3 CL   UNL     1      -7.975  10.357  67.618  1.00  0.00    -0.106 Cl 
HETATM    4  C   UNL     1     -10.593   9.844  68.033  1.00  0.00    -0.242 C  
HETATM    5 CL   UNL     1      -9.565   8.800  65.731  1.00  0.00    -0.255 Cl 
HETATM    6  C   UNL     1      -9.590  10.142  66.903  1.00  0.00    -0.177 C  
HETATM    7  O   UNL     1     -10.762   8.699  68.467  1.00  0.00    -0.158 OA 
ENDROOT
BRANCH   2   8
HETATM    8  C   UNL     1     -11.146  12.248  68.116  1.00  0.00    -0.240 A  
HETATM    9  C   UNL     1     -10.177  13.067  68.702  1.00  0.00    -0.173 A  
HETATM   10  C   UNL     1     -10.134  14.421  68.375  1.00  0.00    -0.244 A  
HETATM   11  C   UNL     1     -11.046  14.943  67.453  1.00  0.00    -0.325 A  
HETATM   12  C   UNL     1     -12.036  12.765  67.171  1.00  0.00    -0.351 A  
HETATM   13  C   UNL     1     -11.996  14.122  66.847  1.00  0.00    -0.479 A  
BRANCH  11  14
HETATM   14  O   UNL     1     -11.000  16.343  67.279  1.00  0.00    -0.249 OA 
BRANCH  14  15
HETATM   15  C   UNL     1     -10.380  16.959  66.187  1.00  0.00    -0.320 C  
HETATM   16  O   UNL     1     -10.158  16.429  65.105  1.00  0.00    -0.529 OA 
BRANCH  15  17
HETATM   17  C   UNL     1     -10.031  18.318  66.527  1.00  0.00    -0.373 A  
HETATM   18  C   UNL     1     -10.693  19.247  67.312  1.00  0.00    -0.594 A  
HETATM   19  C   UNL     1      -9.912  20.426  67.303  1.00  0.00    -0.564 A  
HETATM   20  C   UNL     1      -8.815  20.150  66.520  1.00  0.00    -0.282 A  
HETATM   21  O   UNL     1      -8.875  18.878  66.047  1.00  0.00    -0.464 OA 
ENDBRANCH  15  17
ENDBRANCH  14  15
ENDBRANCH  11  14
ENDBRANCH   2   8
TORSDOF 4
ENDMDL
MODEL       38
REMARK 921   NORMALIZED FREE ENERGY PREDICTED BY IDOCK:   -5.34 KCAL/MOL
REMARK 922        TOTAL FREE ENERGY PREDICTED BY IDOCK:   -7.10 KCAL/MOL
REMARK 923 INTER-LIGAND FREE ENERGY PREDICTED BY IDOCK:   -6.82 KCAL/MOL
REMARK 924 INTRA-LIGAND FREE ENERGY PREDICTED BY IDOCK:   -0.28 KCAL/MOL
REMARK 927      BINDING AFFINITY PREDICTED BY RF-SCORE:    0.00 PKD
ROOT
HETATM    1  C   UNL     1     -10.769   5.752  68.776  1.00  0.00    -0.247 C  
HETATM    2  N   UNL     1     -10.640   5.977  70.209  1.00  0.00    -0.249 N  
HETATM    3 CL   UNL     1     -11.531   4.690  73.353  1.00  0.00    -0.399 Cl 
HETATM    4  C   UNL     1     -10.151   4.965  71.048  1.00  0.00    -0.218 C  
HETATM    5 CL   UNL     1      -8.623   4.470  73.254  1.00  0.00    -0.101 Cl 
HETATM    6  C   UNL     1     -10.052   5.272  72.554  1.00  0.00    -0.181 C  
HETATM    7  O   UNL     1      -9.826   3.866  70.586  1.00  0.00    -0.189 OA 
ENDROOT
BRANCH   2   8
HETATM    8  C   UNL     1     -11.030   7.243  70.687  1.00  0.00    -0.256 A  
HETATM    9  C   UNL     1     -12.351   7.451  71.095  1.00  0.00    -0.349 A  
HETATM   10  C   UNL     1     -12.778   8.742  71.402  1.00  0.00    -0.324 A  
HETATM   11  C   UNL     1     -11.882   9.810  71.316  1.00  0.00    -0.399 A  
HETATM   12  C   UNL     1     -10.128   8.308  70.632  1.00  0.00    -0.212 A  
HETATM   13  C   UNL     1     -10.558   9.600  70.935  1.00  0.00    -0.386 A  
BRANCH  11  14
HETATM   14  O   UNL     1     -12.439  11.090  71.530  1.00  0.00    -0.342 OA 
BRANCH  14  15
HETATM   15  C   UNL     1     -12.323  12.138  70.612  1.00  0.00    -0.295 C  
HETATM   16  O   UNL     1     -11.895  12.036  69.469  1.00  0.00    -0.304 OA 
BRANCH  15  17
HETATM   17  C   UNL     1     -12.778  13.368  71.216  1.00  0.00    -0.338 A  
HETATM   18  C   UNL     1     -13.596  13.582  72.313  1.00  0.00    -0.690 A  
HETATM   19  C   UNL     1     -13.725  14.983  72.463  1.00  0.00    -0.572 A  
HETATM   20  C   UNL     1     -12.975  15.545  71.457  1.00  0.00    -0.472 A  
HETATM   21  O   UNL     1     -12.396  14.578  70.698  1.00  0.00    -0.295 OA 
ENDBRANCH  15  17
ENDBRANCH  14  15
ENDBRANCH  11  14
ENDBRANCH   2   8
TORSDOF 4
ENDMDL
MODEL       39
REMARK 921   NORMALIZED FREE ENERGY PREDICTED BY IDOCK:   -5.31 KCAL/MOL
REMARK 922        TOTAL FREE ENERGY PREDICTED BY IDOCK:   -7.07 KCAL/MOL
REMARK 923 INTER-LIGAND FREE ENERGY PREDICTED BY IDOCK:   -6.39 KCAL/MOL
REMARK 924 INTRA-LIGAND FREE ENERGY PREDICTED BY IDOCK:   -0.67 KCAL/MOL
REMARK 927      BINDING AFFINITY PREDICTED BY RF-SCORE:    0.00 PKD
ROOT
HETATM    1  C   UNL     1     -10.104   9.382  71.048  1.00  0.00    -0.283 C  
HETATM    2  N   UNL     1     -10.228   9.269  69.601  1.00  0.00    -0.198 N  
HETATM    3 CL   UNL     1      -8.681   7.953  66.736  1.00  0.00    -0.132 Cl 
HETATM    4  C   UNL     1     -10.186   8.015  68.977  1.00  0.00    -0.210 C  
HETATM    5 CL   UNL     1     -11.218   6.525  66.937  1.00  0.00    -0.378 Cl 
HETATM    6  C   UNL     1     -10.313   7.974  67.443  1.00  0.00    -0.284 C  
HETATM    7  O   UNL     1     -10.039   6.984  69.644  1.00  0.00    -0.180 OA 
ENDROOT
BRANCH   2   8
HETATM    8  C   UNL     1     -10.385  10.473  68.886  1.00  0.00    -0.208 A  
HETATM    9  C   UNL     1      -9.257  11.205  68.507  1.00  0.00    -0.183 A  
HETATM   10  C   UNL     1      -9.417  12.475  67.955  1.00  0.00    -0.196 A  
HETATM   11  C   UNL     1     -10.701  12.996  67.770  1.00  0.00    -0.229 A  
HETATM   12  C   UNL     1     -11.668  10.983  68.671  1.00  0.00    -0.367 A  
HETATM   13  C   UNL     1     -11.828  12.256  68.123  1.00  0.00    -0.372 A  
BRANCH  11  14
HETATM   14  O   UNL     1     -10.755  14.332  67.317  1.00  0.00    -0.273 OA 
BRANCH  14  15
HETATM   15  C   UNL     1     -10.280  14.737  66.066  1.00  0.00    -0.304 C  
HETATM   16  O   UNL     1      -9.489  15.650  65.868  1.00  0.00    -0.330 OA 
BRANCH  15  17
HETATM   17  C   UNL     1     -10.871  13.918  65.033  1.00  0.00    -0.382 A  
HETATM   18  C   UNL     1     -12.121  13.980  64.442  1.00  0.00    -0.486 A  
HETATM   19  C   UNL     1     -12.180  12.932  63.493  1.00  0.00    -0.595 A  
HETATM   20  C   UNL     1     -10.963  12.295  63.553  1.00  0.00    -0.459 A  
HETATM   21  O   UNL     1     -10.162  12.883  64.479  1.00  0.00    -0.345 OA 
ENDBRANCH  15  17
ENDBRANCH  14  15
ENDBRANCH  11  14
ENDBRANCH   2   8
TORSDOF 4
ENDMDL
MODEL       40
REMARK 921   NORMALIZED FREE ENERGY PREDICTED BY IDOCK:   -5.30 KCAL/MOL
REMARK 922        TOTAL FREE ENERGY PREDICTED BY IDOCK:   -7.05 KCAL/MOL
REMARK 923 INTER-LIGAND FREE ENERGY PREDICTED BY IDOCK:   -6.60 KCAL/MOL
REMARK 924 INTRA-LIGAND FREE ENERGY PREDICTED BY IDOCK:   -0.46 KCAL/MOL
REMARK 927      BINDING AFFINITY PREDICTED BY RF-SCORE:    0.00 PKD
ROOT
HETATM    1  C   UNL     1     -12.336  12.807  65.214  1.00  0.00    -0.488 C  
HETATM    2  N   UNL     1     -11.345  12.999  66.265  1.00  0.00    -0.305 N  
HETATM    3 CL   UNL     1      -7.915  12.762  66.977  1.00  0.00    -0.100 Cl 
HETATM    4  C   UNL     1     -10.223  13.810  66.046  1.00  0.00    -0.308 C  
HETATM    5 CL   UNL     1      -8.532  15.604  67.215  1.00  0.00    -0.197 Cl 
HETATM    6  C   UNL     1      -9.213  13.958  67.200  1.00  0.00    -0.239 C  
HETATM    7  O   UNL     1     -10.053  14.372  64.958  1.00  0.00    -0.390 OA 
ENDROOT
BRANCH   2   8
HETATM    8  C   UNL     1     -11.581  12.332  67.483  1.00  0.00    -0.353 A  
HETATM    9  C   UNL     1     -11.999  13.059  68.600  1.00  0.00    -0.298 A  
HETATM   10  C   UNL     1     -12.064  12.430  69.843  1.00  0.00    -0.317 A  
HETATM   11  C   UNL     1     -11.729  11.078  69.956  1.00  0.00    -0.355 A  
HETATM   12  C   UNL     1     -11.276  10.973  67.593  1.00  0.00    -0.373 A  
HETATM   13  C   UNL     1     -11.337  10.345  68.837  1.00  0.00    -0.278 A  
BRANCH  11  14
HETATM   14  O   UNL     1     -11.710  10.565  71.271  1.00  0.00    -0.306 OA 
BRANCH  14  15
HETATM   15  C   UNL     1     -12.488   9.477  71.679  1.00  0.00    -0.391 C  
HETATM   16  O   UNL     1     -13.711   9.460  71.734  1.00  0.00    -0.380 OA 
BRANCH  15  17
HETATM   17  C   UNL     1     -11.631   8.371  72.037  1.00  0.00    -0.351 A  
HETATM   18  C   UNL     1     -10.301   8.352  72.421  1.00  0.00    -0.399 A  
HETATM   19  C   UNL     1      -9.956   6.999  72.646  1.00  0.00    -0.196 A  
HETATM   20  C   UNL     1     -11.094   6.269  72.394  1.00  0.00    -0.270 A  
HETATM   21  O   UNL     1     -12.113   7.088  72.026  1.00  0.00    -0.302 OA 
ENDBRANCH  15  17
ENDBRANCH  14  15
ENDBRANCH  11  14
ENDBRANCH   2   8
TORSDOF 4
ENDMDL
MODEL       41
REMARK 921   NORMALIZED FREE ENERGY PREDICTED BY IDOCK:   -5.29 KCAL/MOL
REMARK 922        TOTAL FREE ENERGY PREDICTED BY IDOCK:   -7.04 KCAL/MOL
REMARK 923 INTER-LIGAND FREE ENERGY PREDICTED BY IDOCK:   -6.47 KCAL/MOL
REMARK 924 INTRA-LIGAND FREE ENERGY PREDICTED BY IDOCK:   -0.57 KCAL/MOL
REMARK 927      BINDING AFFINITY PREDICTED BY RF-SCORE:    0.00 PKD
ROOT
HETATM    1  C   UNL     1      -8.704   9.075  70.900  1.00  0.00    -0.229 C  
HETATM    2  N   UNL     1      -9.415   9.093  69.629  1.00  0.00    -0.165 N  
HETATM    3 CL   UNL     1      -9.097   8.339  66.215  1.00  0.00    -0.217 Cl 
HETATM    4  C   UNL     1      -9.513   7.931  68.851  1.00  0.00    -0.150 C  
HETATM    5 CL   UNL     1     -11.153   6.514  67.193  1.00  0.00    -0.472 Cl 
HETATM    6  C   UNL     1     -10.272   8.029  67.514  1.00  0.00    -0.245 C  
HETATM    7  O   UNL     1      -8.995   6.874  69.228  1.00  0.00    -0.138 OA 
ENDROOT
BRANCH   2   8
HETATM    8  C   UNL     1      -9.981  10.323  69.241  1.00  0.00    -0.227 A  
HETATM    9  C   UNL     1     -11.349  10.542  69.417  1.00  0.00    -0.331 A  
HETATM   10  C   UNL     1     -11.936  11.685  68.877  1.00  0.00    -0.355 A  
HETATM   11  C   UNL     1     -11.151  12.608  68.182  1.00  0.00    -0.249 A  
HETATM   12  C   UNL     1      -9.191  11.263  68.572  1.00  0.00    -0.181 A  
HETATM   13  C   UNL     1      -9.781  12.404  68.028  1.00  0.00    -0.210 A  
BRANCH  11  14
HETATM   14  O   UNL     1     -11.856  13.668  67.571  1.00  0.00    -0.350 OA 
BRANCH  14  15
HETATM   15  C   UNL     1     -11.405  14.326  66.423  1.00  0.00    -0.343 C  
HETATM   16  O   UNL     1     -10.959  15.466  66.387  1.00  0.00    -0.322 OA 
BRANCH  15  17
HETATM   17  C   UNL     1     -11.550  13.460  65.276  1.00  0.00    -0.308 A  
HETATM   18  C   UNL     1     -12.658  12.784  64.795  1.00  0.00    -0.518 A  
HETATM   19  C   UNL     1     -12.240  12.072  63.646  1.00  0.00    -0.642 A  
HETATM   20  C   UNL     1     -10.905  12.359  63.486  1.00  0.00    -0.438 A  
HETATM   21  O   UNL     1     -10.477  13.198  64.464  1.00  0.00    -0.377 OA 
ENDBRANCH  15  17
ENDBRANCH  14  15
ENDBRANCH  11  14
ENDBRANCH   2   8
TORSDOF 4
ENDMDL
MODEL       42
REMARK 921   NORMALIZED FREE ENERGY PREDICTED BY IDOCK:   -5.29 KCAL/MOL
REMARK 922        TOTAL FREE ENERGY PREDICTED BY IDOCK:   -7.03 KCAL/MOL
REMARK 923 INTER-LIGAND FREE ENERGY PREDICTED BY IDOCK:   -6.96 KCAL/MOL
REMARK 924 INTRA-LIGAND FREE ENERGY PREDICTED BY IDOCK:   -0.08 KCAL/MOL
REMARK 927      BINDING AFFINITY PREDICTED BY RF-SCORE:    0.00 PKD
ROOT
HETATM    1  C   UNL     1     -11.208   5.082  72.801  1.00  0.00    -0.222 C  
HETATM    2  N   UNL     1     -11.111   5.907  71.605  1.00  0.00    -0.270 N  
HETATM    3 CL   UNL     1      -8.862   7.123  69.197  1.00  0.00    -0.136 Cl 
HETATM    4  C   UNL     1     -10.534   5.400  70.433  1.00  0.00    -0.275 C  
HETATM    5 CL   UNL     1     -10.694   5.407  67.708  1.00  0.00    -0.178 Cl 
HETATM    6  C   UNL     1     -10.457   6.335  69.211  1.00  0.00    -0.244 C  
HETATM    7  O   UNL     1     -10.095   4.245  70.395  1.00  0.00    -0.194 OA 
ENDROOT
BRANCH   2   8
HETATM    8  C   UNL     1     -11.619   7.218  71.701  1.00  0.00    -0.274 A  
HETATM    9  C   UNL     1     -12.995   7.436  71.593  1.00  0.00    -0.409 A  
HETATM   10  C   UNL     1     -13.478   8.742  71.515  1.00  0.00    -0.358 A  
HETATM   11  C   UNL     1     -12.587   9.817  71.563  1.00  0.00    -0.398 A  
HETATM   12  C   UNL     1     -10.733   8.295  71.781  1.00  0.00    -0.332 A  
HETATM   13  C   UNL     1     -11.216   9.601  71.698  1.00  0.00    -0.287 A  
BRANCH  11  14
HETATM   14  O   UNL     1     -13.159  11.091  71.357  1.00  0.00    -0.395 OA 
BRANCH  14  15
HETATM   15  C   UNL     1     -12.504  12.124  70.680  1.00  0.00    -0.242 C  
HETATM   16  O   UNL     1     -11.698  11.977  69.769  1.00  0.00    -0.308 OA 
BRANCH  15  17
HETATM   17  C   UNL     1     -12.913  13.399  71.222  1.00  0.00    -0.287 A  
HETATM   18  C   UNL     1     -13.512  13.711  72.430  1.00  0.00    -0.685 A  
HETATM   19  C   UNL     1     -13.704  15.113  72.445  1.00  0.00    -0.600 A  
HETATM   20  C   UNL     1     -13.206  15.578  71.250  1.00  0.00    -0.515 A  
HETATM   21  O   UNL     1     -12.724  14.551  70.503  1.00  0.00    -0.344 OA 
ENDBRANCH  15  17
ENDBRANCH  14  15
ENDBRANCH  11  14
ENDBRANCH   2   8
TORSDOF 4
ENDMDL
MODEL       43
REMARK 921   NORMALIZED FREE ENERGY PREDICTED BY IDOCK:   -5.29 KCAL/MOL
REMARK 922        TOTAL FREE ENERGY PREDICTED BY IDOCK:   -7.03 KCAL/MOL
REMARK 923 INTER-LIGAND FREE ENERGY PREDICTED BY IDOCK:   -6.88 KCAL/MOL
REMARK 924 INTRA-LIGAND FREE ENERGY PREDICTED BY IDOCK:   -0.15 KCAL/MOL
REMARK 927      BINDING AFFINITY PREDICTED BY RF-SCORE:    0.00 PKD
ROOT
HETATM    1  C   UNL     1     -14.097   8.152  71.554  1.00  0.00    -0.383 C  
HETATM    2  N   UNL     1     -12.737   8.627  71.332  1.00  0.00    -0.302 N  
HETATM    3 CL   UNL     1      -9.485   8.572  72.654  1.00  0.00    -0.335 Cl 
HETATM    4  C   UNL     1     -11.664   7.726  71.303  1.00  0.00    -0.288 C  
HETATM    5 CL   UNL     1      -9.276   7.172  70.102  1.00  0.00    -0.155 Cl 
HETATM    6  C   UNL     1     -10.254   8.302  71.073  1.00  0.00    -0.191 C  
HETATM    7  O   UNL     1     -11.852   6.516  71.468  1.00  0.00    -0.314 OA 
ENDROOT
BRANCH   2   8
HETATM    8  C   UNL     1     -12.575  10.015  71.157  1.00  0.00    -0.381 A  
HETATM    9  C   UNL     1     -13.151  10.900  72.073  1.00  0.00    -0.462 A  
HETATM   10  C   UNL     1     -13.137  12.268  71.805  1.00  0.00    -0.449 A  
HETATM   11  C   UNL     1     -12.535  12.743  70.638  1.00  0.00    -0.246 A  
HETATM   12  C   UNL     1     -11.946  10.494  70.005  1.00  0.00    -0.367 A  
HETATM   13  C   UNL     1     -11.937  11.864  69.736  1.00  0.00    -0.377 A  
BRANCH  11  14
HETATM   14  O   UNL     1     -12.678  14.127  70.399  1.00  0.00    -0.342 OA 
BRANCH  14  15
HETATM   15  C   UNL     1     -11.689  15.064  70.713  1.00  0.00    -0.320 C  
HETATM   16  O   UNL     1     -11.335  15.371  71.844  1.00  0.00    -0.419 OA 
BRANCH  15  17
HETATM   17  C   UNL     1     -11.147  15.626  69.498  1.00  0.00    -0.298 A  
HETATM   18  C   UNL     1     -11.215  15.175  68.190  1.00  0.00    -0.326 A  
HETATM   19  C   UNL     1     -10.503  16.105  67.396  1.00  0.00    -0.310 A  
HETATM   20  C   UNL     1     -10.047  17.072  68.260  1.00  0.00    -0.306 A  
HETATM   21  O   UNL     1     -10.432  16.795  69.533  1.00  0.00    -0.310 OA 
ENDBRANCH  15  17
ENDBRANCH  14  15
ENDBRANCH  11  14
ENDBRANCH   2   8
TORSDOF 4
ENDMDL
MODEL       44
REMARK 921   NORMALIZED FREE ENERGY PREDICTED BY IDOCK:   -5.27 KCAL/MOL
REMARK 922        TOTAL FREE ENERGY PREDICTED BY IDOCK:   -7.01 KCAL/MOL
REMARK 923 INTER-LIGAND FREE ENERGY PREDICTED BY IDOCK:   -6.60 KCAL/MOL
REMARK 924 INTRA-LIGAND FREE ENERGY PREDICTED BY IDOCK:   -0.41 KCAL/MOL
REMARK 927      BINDING AFFINITY PREDICTED BY RF-SCORE:    0.00 PKD
ROOT
HETATM    1  C   UNL     1      -7.268   8.808  68.768  1.00  0.00    -0.075 C  
HETATM    2  N   UNL     1      -8.701   8.581  68.640  1.00  0.00    -0.138 N  
HETATM    3 CL   UNL     1     -11.096   6.423  67.247  1.00  0.00    -0.456 Cl 
HETATM    4  C   UNL     1      -9.263   7.348  69.000  1.00  0.00    -0.146 C  
HETATM    5 CL   UNL     1     -11.442   6.158  70.132  1.00  0.00    -0.439 Cl 
HETATM    6  C   UNL     1     -10.783   7.178  68.827  1.00  0.00    -0.169 C  
HETATM    7  O   UNL     1      -8.551   6.432  69.428  1.00  0.00    -0.128 OA 
ENDROOT
BRANCH   2   8
HETATM    8  C   UNL     1      -9.467   9.652  68.140  1.00  0.00    -0.132 A  
HETATM    9  C   UNL     1     -10.155  10.484  69.028  1.00  0.00    -0.230 A  
HETATM   10  C   UNL     1     -11.046  11.432  68.527  1.00  0.00    -0.287 A  
HETATM   11  C   UNL     1     -11.230  11.554  67.148  1.00  0.00    -0.301 A  
HETATM   12  C   UNL     1      -9.629   9.797  66.760  1.00  0.00    -0.228 A  
HETATM   13  C   UNL     1     -10.525  10.743  66.260  1.00  0.00    -0.287 A  
BRANCH  11  14
HETATM   14  O   UNL     1     -12.239  12.457  66.746  1.00  0.00    -0.551 OA 
BRANCH  14  15
HETATM   15  C   UNL     1     -12.399  12.889  65.426  1.00  0.00    -0.485 C  
HETATM   16  O   UNL     1     -12.970  12.266  64.539  1.00  0.00    -0.738 OA 
BRANCH  15  17
HETATM   17  C   UNL     1     -11.780  14.182  65.259  1.00  0.00    -0.353 A  
HETATM   18  C   UNL     1     -10.708  14.759  65.919  1.00  0.00    -0.320 A  
HETATM   19  C   UNL     1     -10.527  16.048  65.364  1.00  0.00    -0.415 A  
HETATM   20  C   UNL     1     -11.491  16.183  64.394  1.00  0.00    -0.193 A  
HETATM   21  O   UNL     1     -12.254  15.062  64.319  1.00  0.00    -0.528 OA 
ENDBRANCH  15  17
ENDBRANCH  14  15
ENDBRANCH  11  14
ENDBRANCH   2   8
TORSDOF 4
ENDMDL
MODEL       45
REMARK 921   NORMALIZED FREE ENERGY PREDICTED BY IDOCK:   -5.26 KCAL/MOL
REMARK 922        TOTAL FREE ENERGY PREDICTED BY IDOCK:   -7.00 KCAL/MOL
REMARK 923 INTER-LIGAND FREE ENERGY PREDICTED BY IDOCK:   -6.45 KCAL/MOL
REMARK 924 INTRA-LIGAND FREE ENERGY PREDICTED BY IDOCK:   -0.54 KCAL/MOL
REMARK 927      BINDING AFFINITY PREDICTED BY RF-SCORE:    0.00 PKD
ROOT
HETATM    1  C   UNL     1     -11.501  11.967  69.524  1.00  0.00    -0.282 C  
HETATM    2  N   UNL     1     -11.761  13.272  70.117  1.00  0.00    -0.237 N  
HETATM    3 CL   UNL     1     -14.311  15.345  71.354  1.00  0.00    -0.576 Cl 
HETATM    4  C   UNL     1     -12.461  13.378  71.327  1.00  0.00    -0.278 C  
HETATM    5 CL   UNL     1     -12.628  14.771  73.668  1.00  0.00    -0.590 Cl 
HETATM    6  C   UNL     1     -12.707  14.791  71.888  1.00  0.00    -0.328 C  
HETATM    7  O   UNL     1     -12.872  12.368  71.908  1.00  0.00    -0.301 OA 
ENDROOT
BRANCH   2   8
HETATM    8  C   UNL     1     -11.278  14.392  69.412  1.00  0.00    -0.281 A  
HETATM    9  C   UNL     1     -11.935  14.815  68.254  1.00  0.00    -0.258 A  
HETATM   10  C   UNL     1     -11.361  15.811  67.465  1.00  0.00    -0.150 A  
HETATM   11  C   UNL     1     -10.147  16.388  67.847  1.00  0.00    -0.250 A  
HETATM   12  C   UNL     1     -10.081  14.992  69.809  1.00  0.00    -0.104 A  
HETATM   13  C   UNL     1      -9.504  15.985  69.017  1.00  0.00    -0.243 A  
BRANCH  11  14
HETATM   14  O   UNL     1      -9.588  17.298  66.924  1.00  0.00    -0.251 OA 
BRANCH  14  15
HETATM   15  C   UNL     1      -9.826  18.675  66.968  1.00  0.00    -0.327 C  
HETATM   16  O   UNL     1     -10.853  19.230  66.599  1.00  0.00    -0.420 OA 
BRANCH  15  17
HETATM   17  C   UNL     1      -8.672  19.352  67.510  1.00  0.00    -0.304 A  
HETATM   18  C   UNL     1      -8.171  19.383  68.800  1.00  0.00    -0.382 A  
HETATM   19  C   UNL     1      -7.022  20.208  68.777  1.00  0.00    -0.255 A  
HETATM   20  C   UNL     1      -6.882  20.629  67.476  1.00  0.00    -0.340 A  
HETATM   21  O   UNL     1      -7.872  20.117  66.700  1.00  0.00    -0.297 OA 
ENDBRANCH  15  17
ENDBRANCH  14  15
ENDBRANCH  11  14
ENDBRANCH   2   8
TORSDOF 4
ENDMDL
MODEL       46
REMARK 921   NORMALIZED FREE ENERGY PREDICTED BY IDOCK:   -5.24 KCAL/MOL
REMARK 922        TOTAL FREE ENERGY PREDICTED BY IDOCK:   -6.98 KCAL/MOL
REMARK 923 INTER-LIGAND FREE ENERGY PREDICTED BY IDOCK:   -6.96 KCAL/MOL
REMARK 924 INTRA-LIGAND FREE ENERGY PREDICTED BY IDOCK:   -0.02 KCAL/MOL
REMARK 927      BINDING AFFINITY PREDICTED BY RF-SCORE:    0.00 PKD
ROOT
HETATM    1  C   UNL     1     -14.186   8.735  71.924  1.00  0.00    -0.389 C  
HETATM    2  N   UNL     1     -12.806   8.891  71.485  1.00  0.00    -0.332 N  
HETATM    3 CL   UNL     1      -9.468   8.553  72.521  1.00  0.00    -0.351 Cl 
HETATM    4  C   UNL     1     -11.899   7.829  71.595  1.00  0.00    -0.287 C  
HETATM    5 CL   UNL     1      -9.789   6.591  70.385  1.00  0.00    -0.188 Cl 
HETATM    6  C   UNL     1     -10.454   8.071  71.120  1.00  0.00    -0.198 C  
HETATM    7  O   UNL     1     -12.253   6.743  72.068  1.00  0.00    -0.321 OA 
ENDROOT
BRANCH   2   8
HETATM    8  C   UNL     1     -12.450  10.149  70.961  1.00  0.00    -0.375 A  
HETATM    9  C   UNL     1     -12.884  11.313  71.601  1.00  0.00    -0.510 A  
HETATM   10  C   UNL     1     -12.679  12.549  70.989  1.00  0.00    -0.316 A  
HETATM   11  C   UNL     1     -12.028  12.614  69.754  1.00  0.00    -0.295 A  
HETATM   12  C   UNL     1     -11.772  10.219  69.741  1.00  0.00    -0.261 A  
HETATM   13  C   UNL     1     -11.571  11.456  69.127  1.00  0.00    -0.381 A  
BRANCH  11  14
HETATM   14  O   UNL     1     -11.976  13.895  69.161  1.00  0.00    -0.329 OA 
BRANCH  14  15
HETATM   15  C   UNL     1     -10.900  14.335  68.384  1.00  0.00    -0.253 C  
HETATM   16  O   UNL     1      -9.781  14.599  68.806  1.00  0.00    -0.215 OA 
BRANCH  15  17
HETATM   17  C   UNL     1     -11.307  14.440  67.003  1.00  0.00    -0.346 A  
HETATM   18  C   UNL     1     -12.406  13.913  66.347  1.00  0.00    -0.468 A  
HETATM   19  C   UNL     1     -12.313  14.318  64.994  1.00  0.00    -0.434 A  
HETATM   20  C   UNL     1     -11.168  15.074  64.902  1.00  0.00    -0.416 A  
HETATM   21  O   UNL     1     -10.552  15.157  66.110  1.00  0.00    -0.293 OA 
ENDBRANCH  15  17
ENDBRANCH  14  15
ENDBRANCH  11  14
ENDBRANCH   2   8
TORSDOF 4
ENDMDL
MODEL       47
REMARK 921   NORMALIZED FREE ENERGY PREDICTED BY IDOCK:   -5.24 KCAL/MOL
REMARK 922        TOTAL FREE ENERGY PREDICTED BY IDOCK:   -6.97 KCAL/MOL
REMARK 923 INTER-LIGAND FREE ENERGY PREDICTED BY IDOCK:   -6.50 KCAL/MOL
REMARK 924 INTRA-LIGAND FREE ENERGY PREDICTED BY IDOCK:   -0.48 KCAL/MOL
REMARK 927      BINDING AFFINITY PREDICTED BY RF-SCORE:    0.00 PKD
ROOT
HETATM    1  C   UNL     1     -12.407  14.413  64.314  1.00  0.00    -0.373 C  
HETATM    2  N   UNL     1     -11.482  13.603  65.094  1.00  0.00    -0.309 N  
HETATM    3 CL   UNL     1     -11.230  10.656  66.988  1.00  0.00    -0.219 Cl 
HETATM    4  C   UNL     1     -11.307  12.242  64.804  1.00  0.00    -0.323 C  
HETATM    5 CL   UNL     1      -9.474  10.224  64.698  1.00  0.00    -0.322 Cl 
HETATM    6  C   UNL     1     -10.320  11.447  65.679  1.00  0.00    -0.257 C  
HETATM    7  O   UNL     1     -11.936  11.708  63.884  1.00  0.00    -0.345 OA 
ENDROOT
BRANCH   2   8
HETATM    8  C   UNL     1     -10.795  14.256  66.136  1.00  0.00    -0.310 A  
HETATM    9  C   UNL     1     -11.494  14.665  67.275  1.00  0.00    -0.386 A  
HETATM   10  C   UNL     1     -10.853  15.461  68.223  1.00  0.00    -0.269 A  
HETATM   11  C   UNL     1      -9.517  15.827  68.036  1.00  0.00    -0.202 A  
HETATM   12  C   UNL     1      -9.451  14.596  65.966  1.00  0.00    -0.273 A  
HETATM   13  C   UNL     1      -8.811  15.397  66.914  1.00  0.00    -0.281 A  
BRANCH  11  14
HETATM   14  O   UNL     1      -8.995  16.730  68.988  1.00  0.00    -0.257 OA 
BRANCH  14  15
HETATM   15  C   UNL     1      -8.265  17.871  68.640  1.00  0.00    -0.275 C  
HETATM   16  O   UNL     1      -7.115  18.111  68.986  1.00  0.00    -0.271 OA 
BRANCH  15  17
HETATM   17  C   UNL     1      -9.075  18.734  67.813  1.00  0.00    -0.286 A  
HETATM   18  C   UNL     1      -9.035  18.970  66.449  1.00  0.00    -0.331 A  
HETATM   19  C   UNL     1     -10.049  19.914  66.164  1.00  0.00    -0.611 A  
HETATM   20  C   UNL     1     -10.655  20.196  67.365  1.00  0.00    -0.197 A  
HETATM   21  O   UNL     1     -10.077  19.487  68.369  1.00  0.00    -0.401 OA 
ENDBRANCH  15  17
ENDBRANCH  14  15
ENDBRANCH  11  14
ENDBRANCH   2   8
TORSDOF 4
ENDMDL
MODEL       48
REMARK 921   NORMALIZED FREE ENERGY PREDICTED BY IDOCK:   -5.24 KCAL/MOL
REMARK 922        TOTAL FREE ENERGY PREDICTED BY IDOCK:   -6.97 KCAL/MOL
REMARK 923 INTER-LIGAND FREE ENERGY PREDICTED BY IDOCK:   -7.10 KCAL/MOL
REMARK 924 INTRA-LIGAND FREE ENERGY PREDICTED BY IDOCK:    0.12 KCAL/MOL
REMARK 927      BINDING AFFINITY PREDICTED BY RF-SCORE:    0.00 PKD
ROOT
HETATM    1  C   UNL     1     -13.393  10.238  71.976  1.00  0.00    -0.361 C  
HETATM    2  N   UNL     1     -12.284  10.039  71.053  1.00  0.00    -0.338 N  
HETATM    3 CL   UNL     1      -8.860   9.277  70.889  1.00  0.00    -0.278 Cl 
HETATM    4  C   UNL     1     -11.521   8.865  71.099  1.00  0.00    -0.301 C  
HETATM    5 CL   UNL     1     -10.188   7.034  69.575  1.00  0.00    -0.199 Cl 
HETATM    6  C   UNL     1     -10.358   8.729  70.099  1.00  0.00    -0.208 C  
HETATM    7  O   UNL     1     -11.773   7.980  71.925  1.00  0.00    -0.273 OA 
ENDROOT
BRANCH   2   8
HETATM    8  C   UNL     1     -12.033  11.079  70.136  1.00  0.00    -0.360 A  
HETATM    9  C   UNL     1     -12.090  12.408  70.565  1.00  0.00    -0.363 A  
HETATM   10  C   UNL     1     -12.012  13.435  69.626  1.00  0.00    -0.386 A  
HETATM   11  C   UNL     1     -11.860  13.129  68.271  1.00  0.00    -0.349 A  
HETATM   12  C   UNL     1     -11.849  10.776  68.785  1.00  0.00    -0.250 A  
HETATM   13  C   UNL     1     -11.776  11.804  67.845  1.00  0.00    -0.347 A  
BRANCH  11  14
HETATM   14  O   UNL     1     -11.912  14.230  67.389  1.00  0.00    -0.395 OA 
BRANCH  14  15
HETATM   15  C   UNL     1     -10.913  14.508  66.452  1.00  0.00    -0.324 C  
HETATM   16  O   UNL     1      -9.959  15.255  66.631  1.00  0.00    -0.241 OA 
BRANCH  15  17
HETATM   17  C   UNL     1     -11.177  13.786  65.229  1.00  0.00    -0.307 A  
HETATM   18  C   UNL     1     -12.275  13.814  64.387  1.00  0.00    -0.440 A  
HETATM   19  C   UNL     1     -12.014  12.901  63.338  1.00  0.00    -0.612 A  
HETATM   20  C   UNL     1     -10.772  12.372  63.594  1.00  0.00    -0.455 A  
HETATM   21  O   UNL     1     -10.254  12.900  64.734  1.00  0.00    -0.313 OA 
ENDBRANCH  15  17
ENDBRANCH  14  15
ENDBRANCH  11  14
ENDBRANCH   2   8
TORSDOF 4
ENDMDL
MODEL       49
REMARK 921   NORMALIZED FREE ENERGY PREDICTED BY IDOCK:   -5.23 KCAL/MOL
REMARK 922        TOTAL FREE ENERGY PREDICTED BY IDOCK:   -6.97 KCAL/MOL
REMARK 923 INTER-LIGAND FREE ENERGY PREDICTED BY IDOCK:   -6.36 KCAL/MOL
REMARK 924 INTRA-LIGAND FREE ENERGY PREDICTED BY IDOCK:   -0.61 KCAL/MOL
REMARK 927      BINDING AFFINITY PREDICTED BY RF-SCORE:    0.00 PKD
ROOT
HETATM    1  C   UNL     1     -11.641  12.961  70.063  1.00  0.00    -0.116 C  
HETATM    2  N   UNL     1     -11.367  13.417  68.707  1.00  0.00    -0.272 N  
HETATM    3 CL   UNL     1      -9.788  12.522  65.701  1.00  0.00    -0.255 Cl 
HETATM    4  C   UNL     1     -11.700  12.618  67.605  1.00  0.00    -0.361 C  
HETATM    5 CL   UNL     1     -12.626  12.668  65.038  1.00  0.00    -0.567 Cl 
HETATM    6  C   UNL     1     -11.370  13.162  66.202  1.00  0.00    -0.312 C  
HETATM    7  O   UNL     1     -12.229  11.512  67.765  1.00  0.00    -0.560 OA 
ENDROOT
BRANCH   2   8
HETATM    8  C   UNL     1     -10.756  14.680  68.578  1.00  0.00    -0.247 A  
HETATM    9  C   UNL     1      -9.382  14.810  68.799  1.00  0.00    -0.198 A  
HETATM   10  C   UNL     1      -8.812  16.081  68.842  1.00  0.00    -0.233 A  
HETATM   11  C   UNL     1      -9.613  17.210  68.646  1.00  0.00    -0.281 A  
HETATM   12  C   UNL     1     -11.549  15.807  68.352  1.00  0.00    -0.343 A  
HETATM   13  C   UNL     1     -10.978  17.080  68.399  1.00  0.00    -0.263 A  
BRANCH  11  14
HETATM   14  O   UNL     1      -8.967  18.452  68.827  1.00  0.00    -0.304 OA 
BRANCH  14  15
HETATM   15  C   UNL     1      -8.880  19.423  67.824  1.00  0.00    -0.313 C  
HETATM   16  O   UNL     1      -9.711  20.296  67.609  1.00  0.00    -0.391 OA 
BRANCH  15  17
HETATM   17  C   UNL     1      -7.663  19.237  67.070  1.00  0.00    -0.244 A  
HETATM   18  C   UNL     1      -6.342  19.222  67.485  1.00  0.00    -0.215 A  
HETATM   19  C   UNL     1      -5.550  19.011  66.331  1.00  0.00    -0.174 A  
HETATM   20  C   UNL     1      -6.430  18.903  65.281  1.00  0.00    -0.257 A  
HETATM   21  O   UNL     1      -7.710  19.036  65.715  1.00  0.00    -0.454 OA 
ENDBRANCH  15  17
ENDBRANCH  14  15
ENDBRANCH  11  14
ENDBRANCH   2   8
TORSDOF 4
ENDMDL
MODEL       50
REMARK 921   NORMALIZED FREE ENERGY PREDICTED BY IDOCK:   -5.23 KCAL/MOL
REMARK 922        TOTAL FREE ENERGY PREDICTED BY IDOCK:   -6.97 KCAL/MOL
REMARK 923 INTER-LIGAND FREE ENERGY PREDICTED BY IDOCK:   -6.50 KCAL/MOL
REMARK 924 INTRA-LIGAND FREE ENERGY PREDICTED BY IDOCK:   -0.47 KCAL/MOL
REMARK 927      BINDING AFFINITY PREDICTED BY RF-SCORE:    0.00 PKD
ROOT
HETATM    1  C   UNL     1     -10.358  15.236  67.417  1.00  0.00    -0.256 C  
HETATM    2  N   UNL     1     -10.554  13.923  66.816  1.00  0.00    -0.276 N  
HETATM    3 CL   UNL     1     -12.638  12.097  64.659  1.00  0.00    -0.377 Cl 
HETATM    4  C   UNL     1     -10.677  13.787  65.426  1.00  0.00    -0.317 C  
HETATM    5 CL   UNL     1     -10.059  12.193  63.299  1.00  0.00    -0.399 Cl 
HETATM    6  C   UNL     1     -10.892  12.369  64.864  1.00  0.00    -0.297 C  
HETATM    7  O   UNL     1     -10.625  14.777  64.689  1.00  0.00    -0.374 OA 
ENDROOT
BRANCH   2   8
HETATM    8  C   UNL     1     -10.614  12.828  67.700  1.00  0.00    -0.219 A  
HETATM    9  C   UNL     1      -9.438  12.162  68.057  1.00  0.00    -0.201 A  
HETATM   10  C   UNL     1      -9.516  10.978  68.789  1.00  0.00    -0.190 A  
HETATM   11  C   UNL     1     -10.763  10.479  69.174  1.00  0.00    -0.231 A  
HETATM   12  C   UNL     1     -11.858  12.344  68.112  1.00  0.00    -0.372 A  
HETATM   13  C   UNL     1     -11.935  11.157  68.841  1.00  0.00    -0.367 A  
BRANCH  11  14
HETATM   14  O   UNL     1     -10.744   9.217  69.806  1.00  0.00    -0.224 OA 
BRANCH  14  15
HETATM   15  C   UNL     1     -10.865   9.052  71.189  1.00  0.00    -0.294 C  
HETATM   16  O   UNL     1      -9.977   9.250  72.008  1.00  0.00    -0.164 OA 
BRANCH  15  17
HETATM   17  C   UNL     1     -12.199   8.603  71.511  1.00  0.00    -0.318 A  
HETATM   18  C   UNL     1     -12.737   7.327  71.539  1.00  0.00    -0.422 A  
HETATM   19  C   UNL     1     -14.095   7.460  71.911  1.00  0.00    -0.429 A  
HETATM   20  C   UNL     1     -14.309   8.806  72.096  1.00  0.00    -0.393 A  
HETATM   21  O   UNL     1     -13.170   9.507  71.859  1.00  0.00    -0.379 OA 
ENDBRANCH  15  17
ENDBRANCH  14  15
ENDBRANCH  11  14
ENDBRANCH   2   8
TORSDOF 4
ENDMDL
MODEL       51
REMARK 921   NORMALIZED FREE ENERGY PREDICTED BY IDOCK:   -5.23 KCAL/MOL
REMARK 922        TOTAL FREE ENERGY PREDICTED BY IDOCK:   -6.96 KCAL/MOL
REMARK 923 INTER-LIGAND FREE ENERGY PREDICTED BY IDOCK:   -6.31 KCAL/MOL
REMARK 924 INTRA-LIGAND FREE ENERGY PREDICTED BY IDOCK:   -0.65 KCAL/MOL
REMARK 927      BINDING AFFINITY PREDICTED BY RF-SCORE:    0.00 PKD
ROOT
HETATM    1  C   UNL     1      -8.341   9.874  64.519  1.00  0.00    -0.166 C  
HETATM    2  N   UNL     1      -9.374  10.484  65.346  1.00  0.00    -0.195 N  
HETATM    3 CL   UNL     1     -10.515  13.552  66.617  1.00  0.00    -0.272 Cl 
HETATM    4  C   UNL     1     -10.150  11.541  64.852  1.00  0.00    -0.268 C  
HETATM    5 CL   UNL     1     -12.650  12.635  64.851  1.00  0.00    -0.571 Cl 
HETATM    6  C   UNL     1     -11.216  12.143  65.787  1.00  0.00    -0.339 C  
HETATM    7  O   UNL     1      -9.969  11.976  63.709  1.00  0.00    -0.349 OA 
ENDROOT
BRANCH   2   8
HETATM    8  C   UNL     1      -9.536   9.958  66.643  1.00  0.00    -0.173 A  
HETATM    9  C   UNL     1      -8.799  10.493  67.703  1.00  0.00    -0.131 A  
HETATM   10  C   UNL     1      -8.829   9.863  68.946  1.00  0.00    -0.145 A  
HETATM   11  C   UNL     1      -9.608   8.716  69.126  1.00  0.00    -0.163 A  
HETATM   12  C   UNL     1     -10.338   8.830  66.833  1.00  0.00    -0.344 A  
HETATM   13  C   UNL     1     -10.364   8.197  68.076  1.00  0.00    -0.267 A  
BRANCH  11  14
HETATM   14  O   UNL     1      -9.479   8.085  70.381  1.00  0.00    -0.165 OA 
BRANCH  14  15
HETATM   15  C   UNL     1      -9.693   8.744  71.596  1.00  0.00    -0.296 C  
HETATM   16  O   UNL     1      -8.831   9.003  72.425  1.00  0.00    -0.337 OA 
BRANCH  15  17
HETATM   17  C   UNL     1     -11.093   9.071  71.732  1.00  0.00    -0.374 A  
HETATM   18  C   UNL     1     -11.802  10.182  71.310  1.00  0.00    -0.448 A  
HETATM   19  C   UNL     1     -13.145   9.992  71.713  1.00  0.00    -0.562 A  
HETATM   20  C   UNL     1     -13.182   8.774  72.350  1.00  0.00    -0.394 A  
HETATM   21  O   UNL     1     -11.948   8.207  72.367  1.00  0.00    -0.352 OA 
ENDBRANCH  15  17
ENDBRANCH  14  15
ENDBRANCH  11  14
ENDBRANCH   2   8
TORSDOF 4
ENDMDL
MODEL       52
REMARK 921   NORMALIZED FREE ENERGY PREDICTED BY IDOCK:   -5.20 KCAL/MOL
REMARK 922        TOTAL FREE ENERGY PREDICTED BY IDOCK:   -6.93 KCAL/MOL
REMARK 923 INTER-LIGAND FREE ENERGY PREDICTED BY IDOCK:   -6.34 KCAL/MOL
REMARK 924 INTRA-LIGAND FREE ENERGY PREDICTED BY IDOCK:   -0.59 KCAL/MOL
REMARK 927      BINDING AFFINITY PREDICTED BY RF-SCORE:    0.00 PKD
ROOT
HETATM    1  C   UNL     1      -7.279  12.984  67.549  1.00  0.00    -0.151 C  
HETATM    2  N   UNL     1      -8.674  13.328  67.787  1.00  0.00    -0.181 N  
HETATM    3 CL   UNL     1     -11.971  12.438  66.970  1.00  0.00    -0.355 Cl 
HETATM    4  C   UNL     1      -9.583  12.355  68.226  1.00  0.00    -0.211 C  
HETATM    5 CL   UNL     1     -11.745  11.915  69.832  1.00  0.00    -0.391 Cl 
HETATM    6  C   UNL     1     -11.043  12.790  68.447  1.00  0.00    -0.262 C  
HETATM    7  O   UNL     1      -9.216  11.190  68.415  1.00  0.00    -0.162 OA 
ENDROOT
BRANCH   2   8
HETATM    8  C   UNL     1      -9.043  14.666  67.550  1.00  0.00    -0.190 A  
HETATM    9  C   UNL     1      -9.037  15.583  68.605  1.00  0.00    -0.202 A  
HETATM   10  C   UNL     1      -9.565  16.858  68.408  1.00  0.00    -0.255 A  
HETATM   11  C   UNL     1     -10.078  17.214  67.158  1.00  0.00    -0.295 A  
HETATM   12  C   UNL     1      -9.527  15.034  66.292  1.00  0.00    -0.342 A  
HETATM   13  C   UNL     1     -10.060  16.309  66.097  1.00  0.00    -0.362 A  
BRANCH  11  14
HETATM   14  O   UNL     1     -10.697  18.480  67.092  1.00  0.00    -0.409 OA 
BRANCH  14  15
HETATM   15  C   UNL     1     -10.297  19.483  66.204  1.00  0.00    -0.520 C  
HETATM   16  O   UNL     1     -10.975  19.934  65.289  1.00  0.00    -0.371 OA 
BRANCH  15  17
HETATM   17  C   UNL     1      -8.953  19.907  66.521  1.00  0.00    -0.366 A  
HETATM   18  C   UNL     1      -8.424  20.412  67.697  1.00  0.00    -0.291 A  
HETATM   19  C   UNL     1      -7.054  20.672  67.453  1.00  0.00    -0.399 A  
HETATM   20  C   UNL     1      -6.823  20.306  66.148  1.00  0.00    -0.250 A  
HETATM   21  O   UNL     1      -7.963  19.841  65.575  1.00  0.00    -0.370 OA 
ENDBRANCH  15  17
ENDBRANCH  14  15
ENDBRANCH  11  14
ENDBRANCH   2   8
TORSDOF 4
ENDMDL
MODEL       53
REMARK 921   NORMALIZED FREE ENERGY PREDICTED BY IDOCK:   -5.18 KCAL/MOL
REMARK 922        TOTAL FREE ENERGY PREDICTED BY IDOCK:   -6.90 KCAL/MOL
REMARK 923 INTER-LIGAND FREE ENERGY PREDICTED BY IDOCK:   -6.37 KCAL/MOL
REMARK 924 INTRA-LIGAND FREE ENERGY PREDICTED BY IDOCK:   -0.53 KCAL/MOL
REMARK 927      BINDING AFFINITY PREDICTED BY RF-SCORE:    0.00 PKD
ROOT
HETATM    1  C   UNL     1     -10.747   7.828  67.187  1.00  0.00    -0.267 C  
HETATM    2  N   UNL     1      -9.986   8.979  67.656  1.00  0.00    -0.187 N  
HETATM    3 CL   UNL     1      -7.611  10.006  70.030  1.00  0.00    -0.174 Cl 
HETATM    4  C   UNL     1      -8.590   8.915  67.762  1.00  0.00    -0.125 C  
HETATM    5 CL   UNL     1      -6.283  10.339  67.454  1.00  0.00    -0.057 Cl 
HETATM    6  C   UNL     1      -7.855  10.167  68.275  1.00  0.00    -0.093 C  
HETATM    7  O   UNL     1      -7.982   7.881  67.464  1.00  0.00    -0.119 OA 
ENDROOT
BRANCH   2   8
HETATM    8  C   UNL     1     -10.726  10.130  67.991  1.00  0.00    -0.260 A  
HETATM    9  C   UNL     1     -10.939  11.119  67.027  1.00  0.00    -0.348 A  
HETATM   10  C   UNL     1     -11.519  12.330  67.405  1.00  0.00    -0.422 A  
HETATM   11  C   UNL     1     -11.897  12.536  68.734  1.00  0.00    -0.303 A  
HETATM   12  C   UNL     1     -11.134  10.325  69.313  1.00  0.00    -0.293 A  
HETATM   13  C   UNL     1     -11.710  11.539  69.690  1.00  0.00    -0.419 A  
BRANCH  11  14
HETATM   14  O   UNL     1     -12.363  13.833  69.040  1.00  0.00    -0.302 OA 
BRANCH  14  15
HETATM   15  C   UNL     1     -11.608  14.768  69.755  1.00  0.00    -0.297 C  
HETATM   16  O   UNL     1     -10.530  15.229  69.402  1.00  0.00    -0.226 OA 
BRANCH  15  17
HETATM   17  C   UNL     1     -12.289  15.108  70.982  1.00  0.00    -0.347 A  
HETATM   18  C   UNL     1     -11.884  15.895  72.047  1.00  0.00    -0.609 A  
HETATM   19  C   UNL     1     -12.937  15.883  72.992  1.00  0.00    -0.630 A  
HETATM   20  C   UNL     1     -13.926  15.097  72.449  1.00  0.00    -0.516 A  
HETATM   21  O   UNL     1     -13.547  14.624  71.234  1.00  0.00    -0.374 OA 
ENDBRANCH  15  17
ENDBRANCH  14  15
ENDBRANCH  11  14
ENDBRANCH   2   8
TORSDOF 4
ENDMDL
MODEL       54
REMARK 921   NORMALIZED FREE ENERGY PREDICTED BY IDOCK:   -5.17 KCAL/MOL
REMARK 922        TOTAL FREE ENERGY PREDICTED BY IDOCK:   -6.89 KCAL/MOL
REMARK 923 INTER-LIGAND FREE ENERGY PREDICTED BY IDOCK:   -6.67 KCAL/MOL
REMARK 924 INTRA-LIGAND FREE ENERGY PREDICTED BY IDOCK:   -0.22 KCAL/MOL
REMARK 927      BINDING AFFINITY PREDICTED BY RF-SCORE:    0.00 PKD
ROOT
HETATM    1  C   UNL     1      -7.398   7.679  68.893  1.00  0.00    -0.090 C  
HETATM    2  N   UNL     1      -8.707   7.914  69.487  1.00  0.00    -0.134 N  
HETATM    3 CL   UNL     1     -11.759   6.368  70.277  1.00  0.00    -0.459 Cl 
HETATM    4  C   UNL     1      -9.173   7.102  70.530  1.00  0.00    -0.158 C  
HETATM    5 CL   UNL     1     -10.602   7.093  72.855  1.00  0.00    -0.282 Cl 
HETATM    6  C   UNL     1     -10.571   7.404  71.101  1.00  0.00    -0.222 C  
HETATM    7  O   UNL     1      -8.483   6.171  70.961  1.00  0.00    -0.125 OA 
ENDROOT
BRANCH   2   8
HETATM    8  C   UNL     1      -9.457   8.982  68.957  1.00  0.00    -0.155 A  
HETATM    9  C   UNL     1      -9.771  10.077  69.767  1.00  0.00    -0.259 A  
HETATM   10  C   UNL     1     -10.655  11.047  69.296  1.00  0.00    -0.236 A  
HETATM   11  C   UNL     1     -11.204  10.926  68.017  1.00  0.00    -0.314 A  
HETATM   12  C   UNL     1      -9.982   8.879  67.666  1.00  0.00    -0.248 A  
HETATM   13  C   UNL     1     -10.871   9.848  67.197  1.00  0.00    -0.227 A  
BRANCH  11  14
HETATM   14  O   UNL     1     -12.177  11.891  67.679  1.00  0.00    -0.510 OA 
BRANCH  14  15
HETATM   15  C   UNL     1     -11.908  12.996  66.864  1.00  0.00    -0.380 C  
HETATM   16  O   UNL     1     -11.723  14.140  67.259  1.00  0.00    -0.351 OA 
BRANCH  15  17
HETATM   17  C   UNL     1     -11.890  12.587  65.480  1.00  0.00    -0.439 A  
HETATM   18  C   UNL     1     -10.825  12.350  64.627  1.00  0.00    -0.346 A  
HETATM   19  C   UNL     1     -11.374  11.983  63.375  1.00  0.00    -0.484 A  
HETATM   20  C   UNL     1     -12.739  12.010  63.535  1.00  0.00    -0.443 A  
HETATM   21  O   UNL     1     -13.063  12.372  64.804  1.00  0.00    -0.806 OA 
ENDBRANCH  15  17
ENDBRANCH  14  15
ENDBRANCH  11  14
ENDBRANCH   2   8
TORSDOF 4
ENDMDL
MODEL       55
REMARK 921   NORMALIZED FREE ENERGY PREDICTED BY IDOCK:   -5.14 KCAL/MOL
REMARK 922        TOTAL FREE ENERGY PREDICTED BY IDOCK:   -6.85 KCAL/MOL
REMARK 923 INTER-LIGAND FREE ENERGY PREDICTED BY IDOCK:   -6.38 KCAL/MOL
REMARK 924 INTRA-LIGAND FREE ENERGY PREDICTED BY IDOCK:   -0.47 KCAL/MOL
REMARK 927      BINDING AFFINITY PREDICTED BY RF-SCORE:    0.00 PKD
ROOT
HETATM    1  C   UNL     1     -10.372  12.346  65.108  1.00  0.00    -0.287 C  
HETATM    2  N   UNL     1     -10.403  13.113  66.346  1.00  0.00    -0.281 N  
HETATM    3 CL   UNL     1     -12.511  14.960  68.462  1.00  0.00     0.085 Cl 
HETATM    4  C   UNL     1     -11.325  12.802  67.355  1.00  0.00    -0.313 C  
HETATM    5 CL   UNL     1     -11.681  12.662  70.057  1.00  0.00    -0.335 Cl 
HETATM    6  C   UNL     1     -11.305  13.663  68.632  1.00  0.00    -0.286 C  
HETATM    7  O   UNL     1     -12.129  11.874  67.210  1.00  0.00    -0.582 OA 
ENDROOT
BRANCH   2   8
HETATM    8  C   UNL     1      -9.472  14.164  66.460  1.00  0.00    -0.285 A  
HETATM    9  C   UNL     1      -8.327  13.992  67.242  1.00  0.00    -0.209 A  
HETATM   10  C   UNL     1      -7.498  15.085  67.493  1.00  0.00    -0.226 A  
HETATM   11  C   UNL     1      -7.808  16.334  66.948  1.00  0.00    -0.243 A  
HETATM   12  C   UNL     1      -9.764  15.406  65.890  1.00  0.00    -0.392 A  
HETATM   13  C   UNL     1      -8.936  16.500  66.146  1.00  0.00    -0.344 A  
BRANCH  11  14
HETATM   14  O   UNL     1      -6.977  17.399  67.357  1.00  0.00    -0.156 OA 
BRANCH  14  15
HETATM   15  C   UNL     1      -7.282  18.237  68.433  1.00  0.00    -0.268 C  
HETATM   16  O   UNL     1      -6.654  18.302  69.483  1.00  0.00    -0.243 OA 
BRANCH  15  17
HETATM   17  C   UNL     1      -8.459  19.016  68.127  1.00  0.00    -0.316 A  
HETATM   18  C   UNL     1      -9.732  18.972  68.668  1.00  0.00    -0.468 A  
HETATM   19  C   UNL     1     -10.501  19.949  67.993  1.00  0.00    -0.490 A  
HETATM   20  C   UNL     1      -9.654  20.539  67.084  1.00  0.00    -0.429 A  
HETATM   21  O   UNL     1      -8.416  19.985  67.157  1.00  0.00    -0.309 OA 
ENDBRANCH  15  17
ENDBRANCH  14  15
ENDBRANCH  11  14
ENDBRANCH   2   8
TORSDOF 4
ENDMDL
MODEL       56
REMARK 921   NORMALIZED FREE ENERGY PREDICTED BY IDOCK:   -5.12 KCAL/MOL
REMARK 922        TOTAL FREE ENERGY PREDICTED BY IDOCK:   -6.82 KCAL/MOL
REMARK 923 INTER-LIGAND FREE ENERGY PREDICTED BY IDOCK:   -6.19 KCAL/MOL
REMARK 924 INTRA-LIGAND FREE ENERGY PREDICTED BY IDOCK:   -0.63 KCAL/MOL
REMARK 927      BINDING AFFINITY PREDICTED BY RF-SCORE:    0.00 PKD
ROOT
HETATM    1  C   UNL     1     -12.113  14.307  67.422  1.00  0.00    -0.336 C  
HETATM    2  N   UNL     1     -10.804  13.758  67.092  1.00  0.00    -0.281 N  
HETATM    3 CL   UNL     1      -8.600  11.117  67.798  1.00  0.00    -0.129 Cl 
HETATM    4  C   UNL     1     -10.674  12.428  66.671  1.00  0.00    -0.235 C  
HETATM    5 CL   UNL     1      -9.311  10.766  64.990  1.00  0.00    -0.242 Cl 
HETATM    6  C   UNL     1      -9.258  11.915  66.350  1.00  0.00    -0.215 C  
HETATM    7  O   UNL     1     -11.666  11.697  66.574  1.00  0.00    -0.498 OA 
ENDROOT
BRANCH   2   8
HETATM    8  C   UNL     1      -9.704  14.629  67.226  1.00  0.00    -0.231 A  
HETATM    9  C   UNL     1      -9.106  14.800  68.477  1.00  0.00    -0.187 A  
HETATM   10  C   UNL     1      -8.135  15.786  68.642  1.00  0.00    -0.161 A  
HETATM   11  C   UNL     1      -7.757  16.580  67.556  1.00  0.00    -0.149 A  
HETATM   12  C   UNL     1      -9.303  15.402  66.134  1.00  0.00    -0.367 A  
HETATM   13  C   UNL     1      -8.334  16.392  66.302  1.00  0.00    -0.362 A  
BRANCH  11  14
HETATM   14  O   UNL     1      -6.857  17.627  67.852  1.00  0.00    -0.183 OA 
BRANCH  14  15
HETATM   15  C   UNL     1      -7.199  18.731  68.639  1.00  0.00    -0.303 C  
HETATM   16  O   UNL     1      -6.539  19.170  69.572  1.00  0.00    -0.301 OA 
BRANCH  15  17
HETATM   17  C   UNL     1      -8.458  19.277  68.190  1.00  0.00    -0.327 A  
HETATM   18  C   UNL     1      -9.699  19.300  68.804  1.00  0.00    -0.510 A  
HETATM   19  C   UNL     1     -10.586  19.953  67.916  1.00  0.00    -0.424 A  
HETATM   20  C   UNL     1      -9.838  20.298  66.816  1.00  0.00    -0.447 A  
HETATM   21  O   UNL     1      -8.550  19.897  66.970  1.00  0.00    -0.304 OA 
ENDBRANCH  15  17
ENDBRANCH  14  15
ENDBRANCH  11  14
ENDBRANCH   2   8
TORSDOF 4
ENDMDL
MODEL       57
REMARK 921   NORMALIZED FREE ENERGY PREDICTED BY IDOCK:   -5.11 KCAL/MOL
REMARK 922        TOTAL FREE ENERGY PREDICTED BY IDOCK:   -6.82 KCAL/MOL
REMARK 923 INTER-LIGAND FREE ENERGY PREDICTED BY IDOCK:   -6.46 KCAL/MOL
REMARK 924 INTRA-LIGAND FREE ENERGY PREDICTED BY IDOCK:   -0.36 KCAL/MOL
REMARK 927      BINDING AFFINITY PREDICTED BY RF-SCORE:    0.00 PKD
ROOT
HETATM    1  C   UNL     1      -8.021   8.928  71.089  1.00  0.00    -0.144 C  
HETATM    2  N   UNL     1      -9.380   8.648  70.644  1.00  0.00    -0.172 N  
HETATM    3 CL   UNL     1     -11.400   6.205  69.133  1.00  0.00    -0.425 Cl 
HETATM    4  C   UNL     1     -10.051   7.499  71.082  1.00  0.00    -0.188 C  
HETATM    5 CL   UNL     1     -12.484   6.509  71.825  1.00  0.00    -0.365 Cl 
HETATM    6  C   UNL     1     -11.481   7.264  70.560  1.00  0.00    -0.279 C  
HETATM    7  O   UNL     1      -9.502   6.702  71.851  1.00  0.00    -0.152 OA 
ENDROOT
BRANCH   2   8
HETATM    8  C   UNL     1      -9.958   9.582  69.762  1.00  0.00    -0.213 A  
HETATM    9  C   UNL     1     -10.966  10.434  70.221  1.00  0.00    -0.353 A  
HETATM   10  C   UNL     1     -11.655  11.234  69.311  1.00  0.00    -0.390 A  
HETATM   11  C   UNL     1     -11.322  11.190  67.955  1.00  0.00    -0.309 A  
HETATM   12  C   UNL     1      -9.606   9.562  68.410  1.00  0.00    -0.152 A  
HETATM   13  C   UNL     1     -10.299  10.360  67.499  1.00  0.00    -0.268 A  
BRANCH  11  14
HETATM   14  O   UNL     1     -12.154  11.944  67.099  1.00  0.00    -0.590 OA 
BRANCH  14  15
HETATM   15  C   UNL     1     -11.741  12.415  65.849  1.00  0.00    -0.419 C  
HETATM   16  O   UNL     1     -11.777  11.780  64.804  1.00  0.00    -0.251 OA 
BRANCH  15  17
HETATM   17  C   UNL     1     -11.255  13.769  65.976  1.00  0.00    -0.304 A  
HETATM   18  C   UNL     1     -10.572  14.567  65.074  1.00  0.00    -0.458 A  
HETATM   19  C   UNL     1     -10.331  15.804  65.718  1.00  0.00    -0.390 A  
HETATM   20  C   UNL     1     -10.885  15.695  66.972  1.00  0.00    -0.294 A  
HETATM   21  O   UNL     1     -11.448  14.470  67.139  1.00  0.00    -0.339 OA 
ENDBRANCH  15  17
ENDBRANCH  14  15
ENDBRANCH  11  14
ENDBRANCH   2   8
TORSDOF 4
ENDMDL
MODEL       58
REMARK 921   NORMALIZED FREE ENERGY PREDICTED BY IDOCK:   -5.11 KCAL/MOL
REMARK 922        TOTAL FREE ENERGY PREDICTED BY IDOCK:   -6.81 KCAL/MOL
REMARK 923 INTER-LIGAND FREE ENERGY PREDICTED BY IDOCK:   -6.29 KCAL/MOL
REMARK 924 INTRA-LIGAND FREE ENERGY PREDICTED BY IDOCK:   -0.52 KCAL/MOL
REMARK 927      BINDING AFFINITY PREDICTED BY RF-SCORE:    0.00 PKD
ROOT
HETATM    1  C   UNL     1     -10.915  15.013  65.140  1.00  0.00    -0.406 C  
HETATM    2  N   UNL     1     -10.711  14.713  66.551  1.00  0.00    -0.306 N  
HETATM    3 CL   UNL     1      -8.555  15.275  69.265  1.00  0.00    -0.234 Cl 
HETATM    4  C   UNL     1     -10.524  15.747  67.479  1.00  0.00    -0.288 C  
HETATM    5 CL   UNL     1     -11.065  16.549  70.031  1.00  0.00    -0.308 Cl 
HETATM    6  C   UNL     1     -10.304  15.353  68.952  1.00  0.00    -0.233 C  
HETATM    7  O   UNL     1     -10.526  16.928  67.116  1.00  0.00    -0.318 OA 
ENDROOT
BRANCH   2   8
HETATM    8  C   UNL     1     -10.710  13.352  66.912  1.00  0.00    -0.273 A  
HETATM    9  C   UNL     1     -11.851  12.788  67.489  1.00  0.00    -0.402 A  
HETATM   10  C   UNL     1     -11.792  11.493  68.003  1.00  0.00    -0.287 A  
HETATM   11  C   UNL     1     -10.601  10.766  67.921  1.00  0.00    -0.221 A  
HETATM   12  C   UNL     1      -9.530  12.612  66.803  1.00  0.00    -0.237 A  
HETATM   13  C   UNL     1      -9.470  11.318  67.321  1.00  0.00    -0.184 A  
BRANCH  11  14
HETATM   14  O   UNL     1     -10.607   9.515  68.574  1.00  0.00    -0.214 OA 
BRANCH  14  15
HETATM   15  C   UNL     1     -10.251   9.351  69.917  1.00  0.00    -0.222 C  
HETATM   16  O   UNL     1      -9.107   9.349  70.353  1.00  0.00    -0.223 OA 
BRANCH  15  17
HETATM   17  C   UNL     1     -11.440   9.175  70.718  1.00  0.00    -0.282 A  
HETATM   18  C   UNL     1     -12.293  10.110  71.278  1.00  0.00    -0.501 A  
HETATM   19  C   UNL     1     -13.294   9.391  71.972  1.00  0.00    -0.525 A  
HETATM   20  C   UNL     1     -13.001   8.060  71.791  1.00  0.00    -0.331 A  
HETATM   21  O   UNL     1     -11.883   7.916  71.033  1.00  0.00    -0.291 OA 
ENDBRANCH  15  17
ENDBRANCH  14  15
ENDBRANCH  11  14
ENDBRANCH   2   8
TORSDOF 4
ENDMDL
MODEL       59
REMARK 921   NORMALIZED FREE ENERGY PREDICTED BY IDOCK:   -5.09 KCAL/MOL
REMARK 922        TOTAL FREE ENERGY PREDICTED BY IDOCK:   -6.79 KCAL/MOL
REMARK 923 INTER-LIGAND FREE ENERGY PREDICTED BY IDOCK:   -6.34 KCAL/MOL
REMARK 924 INTRA-LIGAND FREE ENERGY PREDICTED BY IDOCK:   -0.45 KCAL/MOL
REMARK 927      BINDING AFFINITY PREDICTED BY RF-SCORE:    0.00 PKD
ROOT
HETATM    1  C   UNL     1      -7.982   9.970  64.322  1.00  0.00    -0.152 C  
HETATM    2  N   UNL     1      -9.171  10.653  64.814  1.00  0.00    -0.207 N  
HETATM    3 CL   UNL     1     -10.780  13.771  64.933  1.00  0.00    -0.383 Cl 
HETATM    4  C   UNL     1      -9.982  11.390  63.941  1.00  0.00    -0.315 C  
HETATM    5 CL   UNL     1     -12.561  12.072  63.366  1.00  0.00    -0.681 Cl 
HETATM    6  C   UNL     1     -11.217  12.093  64.536  1.00  0.00    -0.331 C  
HETATM    7  O   UNL     1      -9.701  11.476  62.741  1.00  0.00    -0.340 OA 
ENDROOT
BRANCH   2   8
HETATM    8  C   UNL     1      -9.443  10.530  66.191  1.00  0.00    -0.180 A  
HETATM    9  C   UNL     1      -8.877  11.437  67.091  1.00  0.00    -0.156 A  
HETATM   10  C   UNL     1      -9.006  11.213  68.462  1.00  0.00    -0.168 A  
HETATM   11  C   UNL     1      -9.713  10.098  68.921  1.00  0.00    -0.187 A  
HETATM   12  C   UNL     1     -10.176   9.433  66.653  1.00  0.00    -0.319 A  
HETATM   13  C   UNL     1     -10.300   9.208  68.024  1.00  0.00    -0.272 A  
BRANCH  11  14
HETATM   14  O   UNL     1      -9.685   9.894  70.318  1.00  0.00    -0.248 OA 
BRANCH  14  15
HETATM   15  C   UNL     1     -10.816   9.550  71.064  1.00  0.00    -0.353 C  
HETATM   16  O   UNL     1     -11.950   9.970  70.868  1.00  0.00    -0.308 OA 
BRANCH  15  17
HETATM   17  C   UNL     1     -10.447   8.626  72.110  1.00  0.00    -0.340 A  
HETATM   18  C   UNL     1     -11.139   7.555  72.649  1.00  0.00    -0.398 A  
HETATM   19  C   UNL     1     -10.316   6.997  73.656  1.00  0.00    -0.412 A  
HETATM   20  C   UNL     1      -9.168   7.753  73.671  1.00  0.00    -0.284 A  
HETATM   21  O   UNL     1      -9.235   8.740  72.740  1.00  0.00    -0.305 OA 
ENDBRANCH  15  17
ENDBRANCH  14  15
ENDBRANCH  11  14
ENDBRANCH   2   8
TORSDOF 4
ENDMDL
MODEL       60
REMARK 921   NORMALIZED FREE ENERGY PREDICTED BY IDOCK:   -5.07 KCAL/MOL
REMARK 922        TOTAL FREE ENERGY PREDICTED BY IDOCK:   -6.77 KCAL/MOL
REMARK 923 INTER-LIGAND FREE ENERGY PREDICTED BY IDOCK:   -6.28 KCAL/MOL
REMARK 924 INTRA-LIGAND FREE ENERGY PREDICTED BY IDOCK:   -0.49 KCAL/MOL
REMARK 927      BINDING AFFINITY PREDICTED BY RF-SCORE:    0.00 PKD
ROOT
HETATM    1  C   UNL     1     -12.011  14.192  64.290  1.00  0.00    -0.435 C  
HETATM    2  N   UNL     1     -11.253  14.841  65.351  1.00  0.00    -0.336 N  
HETATM    3 CL   UNL     1      -8.355  16.715  66.000  1.00  0.00    -0.291 Cl 
HETATM    4  C   UNL     1     -10.895  16.192  65.247  1.00  0.00    -0.336 C  
HETATM    5 CL   UNL     1     -10.563  18.505  66.657  1.00  0.00    -0.415 Cl 
HETATM    6  C   UNL     1     -10.085  16.808  66.404  1.00  0.00    -0.317 C  
HETATM    7  O   UNL     1     -11.212  16.854  64.253  1.00  0.00    -1.204 OA 
ENDROOT
BRANCH   2   8
HETATM    8  C   UNL     1     -10.909  14.042  66.459  1.00  0.00    -0.300 A  
HETATM    9  C   UNL     1      -9.769  13.236  66.403  1.00  0.00    -0.279 A  
HETATM   10  C   UNL     1      -9.525  12.321  67.426  1.00  0.00    -0.181 A  
HETATM   11  C   UNL     1     -10.410  12.230  68.503  1.00  0.00    -0.223 A  
HETATM   12  C   UNL     1     -11.776  13.972  67.553  1.00  0.00    -0.421 A  
HETATM   13  C   UNL     1     -11.534  13.052  68.574  1.00  0.00    -0.340 A  
BRANCH  11  14
HETATM   14  O   UNL     1     -10.143  11.194  69.424  1.00  0.00    -0.111 OA 
BRANCH  14  15
HETATM   15  C   UNL     1     -10.098   9.843  69.064  1.00  0.00    -0.189 C  
HETATM   16  O   UNL     1     -10.842   9.297  68.260  1.00  0.00    -0.179 OA 
BRANCH  15  17
HETATM   17  C   UNL     1      -9.042   9.180  69.792  1.00  0.00    -0.167 A  
HETATM   18  C   UNL     1      -8.752   7.833  69.930  1.00  0.00    -0.142 A  
HETATM   19  C   UNL     1      -7.611   7.739  70.761  1.00  0.00    -0.078 A  
HETATM   20  C   UNL     1      -7.265   9.031  71.079  1.00  0.00    -0.106 A  
HETATM   21  O   UNL     1      -8.121   9.911  70.498  1.00  0.00    -0.230 OA 
ENDBRANCH  15  17
ENDBRANCH  14  15
ENDBRANCH  11  14
ENDBRANCH   2   8
TORSDOF 4
ENDMDL
MODEL       61
REMARK 921   NORMALIZED FREE ENERGY PREDICTED BY IDOCK:   -5.06 KCAL/MOL
REMARK 922        TOTAL FREE ENERGY PREDICTED BY IDOCK:   -6.76 KCAL/MOL
REMARK 923 INTER-LIGAND FREE ENERGY PREDICTED BY IDOCK:   -6.25 KCAL/MOL
REMARK 924 INTRA-LIGAND FREE ENERGY PREDICTED BY IDOCK:   -0.51 KCAL/MOL
REMARK 927      BINDING AFFINITY PREDICTED BY RF-SCORE:    0.00 PKD
ROOT
HETATM    1  C   UNL     1     -12.202  13.999  70.302  1.00  0.00    -0.361 C  
HETATM    2  N   UNL     1     -11.419  13.253  69.327  1.00  0.00    -0.283 N  
HETATM    3 CL   UNL     1      -8.798  10.938  69.000  1.00  0.00    -0.142 Cl 
HETATM    4  C   UNL     1     -11.301  11.859  69.424  1.00  0.00    -0.261 C  
HETATM    5 CL   UNL     1     -11.152   9.548  67.980  1.00  0.00    -0.151 Cl 
HETATM    6  C   UNL     1     -10.447  11.139  68.363  1.00  0.00    -0.188 C  
HETATM    7  O   UNL     1     -11.856  11.241  70.339  1.00  0.00    -0.328 OA 
ENDROOT
BRANCH   2   8
HETATM    8  C   UNL     1     -10.799  14.003  68.309  1.00  0.00    -0.255 A  
HETATM    9  C   UNL     1      -9.449  14.343  68.424  1.00  0.00    -0.207 A  
HETATM   10  C   UNL     1      -8.883  15.227  67.507  1.00  0.00    -0.188 A  
HETATM   11  C   UNL     1      -9.664  15.750  66.473  1.00  0.00    -0.265 A  
HETATM   12  C   UNL     1     -11.570  14.502  67.256  1.00  0.00    -0.405 A  
HETATM   13  C   UNL     1     -11.005  15.391  66.341  1.00  0.00    -0.277 A  
BRANCH  11  14
HETATM   14  O   UNL     1      -9.036  16.726  65.670  1.00  0.00    -0.475 OA 
BRANCH  14  15
HETATM   15  C   UNL     1      -8.253  17.760  66.193  1.00  0.00    -0.158 C  
HETATM   16  O   UNL     1      -7.057  17.921  65.983  1.00  0.00    -0.279 OA 
BRANCH  15  17
HETATM   17  C   UNL     1      -9.066  18.610  67.031  1.00  0.00    -0.291 A  
HETATM   18  C   UNL     1     -10.055  19.520  66.698  1.00  0.00    -0.523 A  
HETATM   19  C   UNL     1     -10.519  20.087  67.908  1.00  0.00    -0.459 A  
HETATM   20  C   UNL     1      -9.794  19.488  68.911  1.00  0.00    -0.445 A  
HETATM   21  O   UNL     1      -8.913  18.592  68.393  1.00  0.00    -0.307 OA 
ENDBRANCH  15  17
ENDBRANCH  14  15
ENDBRANCH  11  14
ENDBRANCH   2   8
TORSDOF 4
ENDMDL
MODEL       62
REMARK 921   NORMALIZED FREE ENERGY PREDICTED BY IDOCK:   -5.05 KCAL/MOL
REMARK 922        TOTAL FREE ENERGY PREDICTED BY IDOCK:   -6.75 KCAL/MOL
REMARK 923 INTER-LIGAND FREE ENERGY PREDICTED BY IDOCK:   -6.18 KCAL/MOL
REMARK 924 INTRA-LIGAND FREE ENERGY PREDICTED BY IDOCK:   -0.56 KCAL/MOL
REMARK 927      BINDING AFFINITY PREDICTED BY RF-SCORE:    0.00 PKD
ROOT
HETATM    1  C   UNL     1     -10.636  19.822  65.883  1.00  0.00    -0.453 C  
HETATM    2  N   UNL     1      -9.771  19.000  66.717  1.00  0.00    -0.314 N  
HETATM    3 CL   UNL     1      -6.469  17.861  67.083  1.00  0.00    -0.181 Cl 
HETATM    4  C   UNL     1      -8.588  19.526  67.253  1.00  0.00    -0.299 C  
HETATM    5 CL   UNL     1      -6.955  19.511  69.440  1.00  0.00    -0.373 Cl 
HETATM    6  C   UNL     1      -7.718  18.594  68.117  1.00  0.00    -0.281 C  
HETATM    7  O   UNL     1      -8.258  20.695  67.026  1.00  0.00    -0.293 OA 
ENDROOT
BRANCH   2   8
HETATM    8  C   UNL     1     -10.187  17.672  66.940  1.00  0.00    -0.334 A  
HETATM    9  C   UNL     1     -10.159  16.753  65.888  1.00  0.00    -0.324 A  
HETATM   10  C   UNL     1     -10.730  15.493  66.064  1.00  0.00    -0.331 A  
HETATM   11  C   UNL     1     -11.308  15.156  67.290  1.00  0.00    -0.303 A  
HETATM   12  C   UNL     1     -10.736  17.322  68.176  1.00  0.00    -0.363 A  
HETATM   13  C   UNL     1     -11.312  16.063  68.349  1.00  0.00    -0.355 A  
BRANCH  11  14
HETATM   14  O   UNL     1     -11.964  13.907  67.331  1.00  0.00    -0.385 OA 
BRANCH  14  15
HETATM   15  C   UNL     1     -11.577  12.866  68.180  1.00  0.00    -0.336 C  
HETATM   16  O   UNL     1     -12.069  12.623  69.275  1.00  0.00    -0.259 OA 
BRANCH  15  17
HETATM   17  C   UNL     1     -10.499  12.119  67.576  1.00  0.00    -0.209 A  
HETATM   18  C   UNL     1      -9.172  11.993  67.950  1.00  0.00    -0.190 A  
HETATM   19  C   UNL     1      -8.554  11.148  66.999  1.00  0.00    -0.147 A  
HETATM   20  C   UNL     1      -9.537  10.800  66.103  1.00  0.00    -0.194 A  
HETATM   21  O   UNL     1     -10.718  11.379  66.443  1.00  0.00    -0.258 OA 
ENDBRANCH  15  17
ENDBRANCH  14  15
ENDBRANCH  11  14
ENDBRANCH   2   8
TORSDOF 4
ENDMDL
MODEL       63
REMARK 921   NORMALIZED FREE ENERGY PREDICTED BY IDOCK:   -5.05 KCAL/MOL
REMARK 922        TOTAL FREE ENERGY PREDICTED BY IDOCK:   -6.74 KCAL/MOL
REMARK 923 INTER-LIGAND FREE ENERGY PREDICTED BY IDOCK:   -6.20 KCAL/MOL
REMARK 924 INTRA-LIGAND FREE ENERGY PREDICTED BY IDOCK:   -0.53 KCAL/MOL
REMARK 927      BINDING AFFINITY PREDICTED BY RF-SCORE:    0.00 PKD
ROOT
HETATM    1  C   UNL     1     -11.861  14.207  68.144  1.00  0.00    -0.352 C  
HETATM    2  N   UNL     1     -11.086  13.950  66.938  1.00  0.00    -0.296 N  
HETATM    3 CL   UNL     1      -9.322  11.458  65.203  1.00  0.00    -0.208 Cl 
HETATM    4  C   UNL     1     -11.432  12.897  66.079  1.00  0.00    -0.340 C  
HETATM    5 CL   UNL     1     -11.566  12.132  63.463  1.00  0.00    -0.548 Cl 
HETATM    6  C   UNL     1     -10.560  12.680  64.828  1.00  0.00    -0.317 C  
HETATM    7  O   UNL     1     -12.397  12.168  66.332  1.00  0.00    -0.489 OA 
ENDROOT
BRANCH   2   8
HETATM    8  C   UNL     1      -9.991  14.803  66.698  1.00  0.00    -0.264 A  
HETATM    9  C   UNL     1      -8.729  14.466  67.194  1.00  0.00    -0.243 A  
HETATM   10  C   UNL     1      -7.689  15.390  67.107  1.00  0.00    -0.246 A  
HETATM   11  C   UNL     1      -7.911  16.633  66.509  1.00  0.00    -0.307 A  
HETATM   12  C   UNL     1     -10.203  16.035  66.072  1.00  0.00    -0.360 A  
HETATM   13  C   UNL     1      -9.162  16.960  65.989  1.00  0.00    -0.205 A  
BRANCH  11  14
HETATM   14  O   UNL     1      -6.832  17.541  66.576  1.00  0.00    -0.195 OA 
BRANCH  14  15
HETATM   15  C   UNL     1      -6.998  18.929  66.563  1.00  0.00    -0.212 C  
HETATM   16  O   UNL     1      -7.480  19.595  67.471  1.00  0.00    -0.244 OA 
BRANCH  15  17
HETATM   17  C   UNL     1      -6.521  19.465  65.310  1.00  0.00    -0.274 A  
HETATM   18  C   UNL     1      -5.713  18.899  64.339  1.00  0.00    -0.279 A  
HETATM   19  C   UNL     1      -5.553  19.868  63.320  1.00  0.00    -0.333 A  
HETATM   20  C   UNL     1      -6.276  20.966  63.722  1.00  0.00    -0.291 A  
HETATM   21  O   UNL     1      -6.867  20.734  64.923  1.00  0.00    -0.201 OA 
ENDBRANCH  15  17
ENDBRANCH  14  15
ENDBRANCH  11  14
ENDBRANCH   2   8
TORSDOF 4
ENDMDL
MODEL       64
REMARK 921   NORMALIZED FREE ENERGY PREDICTED BY IDOCK:   -5.04 KCAL/MOL
REMARK 922        TOTAL FREE ENERGY PREDICTED BY IDOCK:   -6.73 KCAL/MOL
REMARK 923 INTER-LIGAND FREE ENERGY PREDICTED BY IDOCK:   -6.23 KCAL/MOL
REMARK 924 INTRA-LIGAND FREE ENERGY PREDICTED BY IDOCK:   -0.50 KCAL/MOL
REMARK 927      BINDING AFFINITY PREDICTED BY RF-SCORE:    0.00 PKD
ROOT
HETATM    1  C   UNL     1      -9.975  15.048  67.631  1.00  0.00    -0.225 C  
HETATM    2  N   UNL     1     -10.340  13.797  66.980  1.00  0.00    -0.258 N  
HETATM    3 CL   UNL     1     -12.643  12.342  64.764  1.00  0.00    -0.507 Cl 
HETATM    4  C   UNL     1     -10.478  13.731  65.587  1.00  0.00    -0.305 C  
HETATM    5 CL   UNL     1     -10.071  12.154  63.397  1.00  0.00    -0.431 Cl 
HETATM    6  C   UNL     1     -10.876  12.377  64.972  1.00  0.00    -0.295 C  
HETATM    7  O   UNL     1     -10.297  14.734  64.888  1.00  0.00    -0.406 OA 
ENDROOT
BRANCH   2   8
HETATM    8  C   UNL     1     -10.543  12.685  67.822  1.00  0.00    -0.220 A  
HETATM    9  C   UNL     1     -11.727  12.580  68.555  1.00  0.00    -0.369 A  
HETATM   10  C   UNL     1     -11.854  11.575  69.514  1.00  0.00    -0.419 A  
HETATM   11  C   UNL     1     -10.806  10.674  69.719  1.00  0.00    -0.261 A  
HETATM   12  C   UNL     1      -9.509  11.764  68.006  1.00  0.00    -0.188 A  
HETATM   13  C   UNL     1      -9.634  10.761  68.969  1.00  0.00    -0.193 A  
BRANCH  11  14
HETATM   14  O   UNL     1     -10.981   9.772  70.790  1.00  0.00    -0.291 OA 
BRANCH  14  15
HETATM   15  C   UNL     1      -9.986   8.886  71.216  1.00  0.00    -0.288 C  
HETATM   16  O   UNL     1      -9.102   9.147  72.023  1.00  0.00    -0.337 OA 
BRANCH  15  17
HETATM   17  C   UNL     1     -10.150   7.614  70.553  1.00  0.00    -0.189 A  
HETATM   18  C   UNL     1      -9.226   6.625  70.264  1.00  0.00    -0.156 A  
HETATM   19  C   UNL     1      -9.923   5.592  69.595  1.00  0.00    -0.282 A  
HETATM   20  C   UNL     1     -11.232   6.003  69.519  1.00  0.00    -0.346 A  
HETATM   21  O   UNL     1     -11.383   7.224  70.097  1.00  0.00    -0.266 OA 
ENDBRANCH  15  17
ENDBRANCH  14  15
ENDBRANCH  11  14
ENDBRANCH   2   8
TORSDOF 4
ENDMDL
MODEL       65
REMARK 921   NORMALIZED FREE ENERGY PREDICTED BY IDOCK:   -5.03 KCAL/MOL
REMARK 922        TOTAL FREE ENERGY PREDICTED BY IDOCK:   -6.72 KCAL/MOL
REMARK 923 INTER-LIGAND FREE ENERGY PREDICTED BY IDOCK:   -6.17 KCAL/MOL
REMARK 924 INTRA-LIGAND FREE ENERGY PREDICTED BY IDOCK:   -0.55 KCAL/MOL
REMARK 927      BINDING AFFINITY PREDICTED BY RF-SCORE:    0.00 PKD
ROOT
HETATM    1  C   UNL     1     -11.894  15.592  69.328  1.00  0.00    -0.353 C  
HETATM    2  N   UNL     1     -11.187  15.577  68.055  1.00  0.00    -0.325 N  
HETATM    3 CL   UNL     1     -10.928  17.214  64.959  1.00  0.00    -0.118 Cl 
HETATM    4  C   UNL     1     -10.538  16.727  67.586  1.00  0.00    -0.325 C  
HETATM    5 CL   UNL     1      -8.341  17.632  66.243  1.00  0.00    -0.278 Cl 
HETATM    6  C   UNL     1      -9.820  16.638  66.226  1.00  0.00    -0.310 C  
HETATM    7  O   UNL     1     -10.557  17.774  68.243  1.00  0.00    -0.369 OA 
ENDROOT
BRANCH   2   8
HETATM    8  C   UNL     1     -11.201  14.362  67.340  1.00  0.00    -0.325 A  
HETATM    9  C   UNL     1     -10.082  13.526  67.376  1.00  0.00    -0.237 A  
HETATM   10  C   UNL     1     -10.030  12.415  66.535  1.00  0.00    -0.242 A  
HETATM   11  C   UNL     1     -11.100  12.138  65.681  1.00  0.00    -0.316 A  
HETATM   12  C   UNL     1     -12.284  14.066  66.508  1.00  0.00    -0.485 A  
HETATM   13  C   UNL     1     -12.229  12.957  65.664  1.00  0.00    -0.519 A  
BRANCH  11  14
HETATM   14  O   UNL     1     -10.902  11.064  64.786  1.00  0.00    -0.276 OA 
BRANCH  14  15
HETATM   15  C   UNL     1      -9.910  11.062  63.801  1.00  0.00    -0.330 C  
HETATM   16  O   UNL     1      -9.726  11.948  62.977  1.00  0.00    -0.367 OA 
BRANCH  15  17
HETATM   17  C   UNL     1      -9.132   9.848  63.896  1.00  0.00    -0.259 A  
HETATM   18  C   UNL     1      -8.717   9.130  65.004  1.00  0.00    -0.222 A  
HETATM   19  C   UNL     1      -7.975   8.025  64.525  1.00  0.00    -0.151 A  
HETATM   20  C   UNL     1      -7.983   8.127  63.154  1.00  0.00    -0.151 A  
HETATM   21  O   UNL     1      -8.682   9.223  62.761  1.00  0.00    -0.217 OA 
ENDBRANCH  15  17
ENDBRANCH  14  15
ENDBRANCH  11  14
ENDBRANCH   2   8
TORSDOF 4
ENDMDL
MODEL       66
REMARK 921   NORMALIZED FREE ENERGY PREDICTED BY IDOCK:   -5.03 KCAL/MOL
REMARK 922        TOTAL FREE ENERGY PREDICTED BY IDOCK:   -6.71 KCAL/MOL
REMARK 923 INTER-LIGAND FREE ENERGY PREDICTED BY IDOCK:   -6.62 KCAL/MOL
REMARK 924 INTRA-LIGAND FREE ENERGY PREDICTED BY IDOCK:   -0.09 KCAL/MOL
REMARK 927      BINDING AFFINITY PREDICTED BY RF-SCORE:    0.00 PKD
ROOT
HETATM    1  C   UNL     1     -12.481  11.417  69.873  1.00  0.00    -0.125 C  
HETATM    2  N   UNL     1     -12.327  12.786  70.346  1.00  0.00    -0.292 N  
HETATM    3 CL   UNL     1     -14.088  15.526  71.659  1.00  0.00    -0.577 Cl 
HETATM    4  C   UNL     1     -12.791  13.159  71.615  1.00  0.00    -0.291 C  
HETATM    5 CL   UNL     1     -12.263  14.722  73.789  1.00  0.00    -0.499 Cl 
HETATM    6  C   UNL     1     -12.602  14.626  72.042  1.00  0.00    -0.334 C  
HETATM    7  O   UNL     1     -13.340  12.333  72.353  1.00  0.00    -0.453 OA 
ENDROOT
BRANCH   2   8
HETATM    8  C   UNL     1     -11.702  13.691  69.465  1.00  0.00    -0.322 A  
HETATM    9  C   UNL     1     -12.429  14.765  68.946  1.00  0.00     0.090 A  
HETATM   10  C   UNL     1     -11.865  15.555  67.945  1.00  0.00    -0.031 A  
HETATM   11  C   UNL     1     -10.575  15.278  67.485  1.00  0.00    -0.273 A  
HETATM   12  C   UNL     1     -10.401  13.435  69.025  1.00  0.00    -0.004 A  
HETATM   13  C   UNL     1      -9.838  14.223  68.021  1.00  0.00    -0.224 A  
BRANCH  11  14
HETATM   14  O   UNL     1     -10.140  16.057  66.391  1.00  0.00    -0.270 OA 
BRANCH  14  15
HETATM   15  C   UNL     1     -10.917  16.274  65.249  1.00  0.00    -0.236 C  
HETATM   16  O   UNL     1     -11.239  17.370  64.807  1.00  0.00    -0.895 OA 
BRANCH  15  17
HETATM   17  C   UNL     1     -11.292  15.007  64.667  1.00  0.00    -0.352 A  
HETATM   18  C   UNL     1     -12.521  14.552  64.220  1.00  0.00    -0.293 A  
HETATM   19  C   UNL     1     -12.326  13.231  63.752  1.00  0.00    -0.440 A  
HETATM   20  C   UNL     1     -10.991  12.956  63.932  1.00  0.00    -0.384 A  
HETATM   21  O   UNL     1     -10.355  14.023  64.483  1.00  0.00    -0.419 OA 
ENDBRANCH  15  17
ENDBRANCH  14  15
ENDBRANCH  11  14
ENDBRANCH   2   8
TORSDOF 4
ENDMDL
MODEL       67
REMARK 921   NORMALIZED FREE ENERGY PREDICTED BY IDOCK:   -5.02 KCAL/MOL
REMARK 922        TOTAL FREE ENERGY PREDICTED BY IDOCK:   -6.70 KCAL/MOL
REMARK 923 INTER-LIGAND FREE ENERGY PREDICTED BY IDOCK:   -6.19 KCAL/MOL
REMARK 924 INTRA-LIGAND FREE ENERGY PREDICTED BY IDOCK:   -0.52 KCAL/MOL
REMARK 927      BINDING AFFINITY PREDICTED BY RF-SCORE:    0.00 PKD
ROOT
HETATM    1  C   UNL     1      -7.284  17.875  66.182  1.00  0.00    -0.303 C  
HETATM    2  N   UNL     1      -7.459  16.735  67.071  1.00  0.00    -0.180 N  
HETATM    3 CL   UNL     1      -6.884  13.283  67.370  1.00  0.00    -0.152 Cl 
HETATM    4  C   UNL     1      -6.366  15.933  67.426  1.00  0.00    -0.161 C  
HETATM    5 CL   UNL     1      -5.247  14.497  69.459  1.00  0.00    -0.090 Cl 
HETATM    6  C   UNL     1      -6.630  14.739  68.362  1.00  0.00    -0.101 C  
HETATM    7  O   UNL     1      -5.236  16.178  66.988  1.00  0.00    -0.329 OA 
ENDROOT
BRANCH   2   8
HETATM    8  C   UNL     1      -8.767  16.493  67.536  1.00  0.00    -0.182 A  
HETATM    9  C   UNL     1      -9.174  17.027  68.762  1.00  0.00    -0.252 A  
HETATM   10  C   UNL     1     -10.403  16.646  69.300  1.00  0.00    -0.318 A  
HETATM   11  C   UNL     1     -11.221  15.752  68.604  1.00  0.00    -0.351 A  
HETATM   12  C   UNL     1      -9.600  15.624  66.827  1.00  0.00    -0.257 A  
HETATM   13  C   UNL     1     -10.828  15.241  67.369  1.00  0.00    -0.304 A  
BRANCH  11  14
HETATM   14  O   UNL     1     -12.386  15.337  69.286  1.00  0.00    -0.212 OA 
BRANCH  14  15
HETATM   15  C   UNL     1     -12.385  14.337  70.263  1.00  0.00    -0.354 C  
HETATM   16  O   UNL     1     -12.210  13.143  70.056  1.00  0.00    -0.306 OA 
BRANCH  15  17
HETATM   17  C   UNL     1     -12.631  14.923  71.560  1.00  0.00    -0.328 A  
HETATM   18  C   UNL     1     -13.786  15.464  72.098  1.00  0.00    -0.636 A  
HETATM   19  C   UNL     1     -13.466  15.903  73.404  1.00  0.00    -0.513 A  
HETATM   20  C   UNL     1     -12.138  15.601  73.592  1.00  0.00    -0.493 A  
HETATM   21  O   UNL     1     -11.623  15.006  72.485  1.00  0.00    -0.363 OA 
ENDBRANCH  15  17
ENDBRANCH  14  15
ENDBRANCH  11  14
ENDBRANCH   2   8
TORSDOF 4
ENDMDL
MODEL       68
REMARK 921   NORMALIZED FREE ENERGY PREDICTED BY IDOCK:   -5.02 KCAL/MOL
REMARK 922        TOTAL FREE ENERGY PREDICTED BY IDOCK:   -6.70 KCAL/MOL
REMARK 923 INTER-LIGAND FREE ENERGY PREDICTED BY IDOCK:   -6.16 KCAL/MOL
REMARK 924 INTRA-LIGAND FREE ENERGY PREDICTED BY IDOCK:   -0.54 KCAL/MOL
REMARK 927      BINDING AFFINITY PREDICTED BY RF-SCORE:    0.00 PKD
ROOT
HETATM    1  C   UNL     1     -11.258   6.115  70.192  1.00  0.00    -0.382 C  
HETATM    2  N   UNL     1     -10.176   7.086  70.104  1.00  0.00    -0.191 N  
HETATM    3 CL   UNL     1      -7.606   8.611  71.949  1.00  0.00    -0.133 Cl 
HETATM    4  C   UNL     1      -8.871   6.734  70.476  1.00  0.00    -0.151 C  
HETATM    5 CL   UNL     1      -6.232   7.084  69.877  1.00  0.00    -0.030 Cl 
HETATM    6  C   UNL     1      -7.781   7.816  70.367  1.00  0.00    -0.088 C  
HETATM    7  O   UNL     1      -8.618   5.597  70.888  1.00  0.00    -0.125 OA 
ENDROOT
BRANCH   2   8
HETATM    8  C   UNL     1     -10.517   8.370  69.637  1.00  0.00    -0.221 A  
HETATM    9  C   UNL     1     -11.099   9.292  70.511  1.00  0.00    -0.317 A  
HETATM   10  C   UNL     1     -11.593  10.496  70.010  1.00  0.00    -0.392 A  
HETATM   11  C   UNL     1     -11.487  10.776  68.645  1.00  0.00    -0.295 A  
HETATM   12  C   UNL     1     -10.384   8.666  68.278  1.00  0.00    -0.252 A  
HETATM   13  C   UNL     1     -10.883   9.869  67.776  1.00  0.00    -0.321 A  
BRANCH  11  14
HETATM   14  O   UNL     1     -12.122  11.962  68.217  1.00  0.00    -0.485 OA 
BRANCH  14  15
HETATM   15  C   UNL     1     -11.421  13.087  67.771  1.00  0.00    -0.316 C  
HETATM   16  O   UNL     1     -10.669  13.771  68.454  1.00  0.00    -0.240 OA 
BRANCH  15  17
HETATM   17  C   UNL     1     -11.724  13.331  66.381  1.00  0.00    -0.373 A  
HETATM   18  C   UNL     1     -11.604  14.483  65.623  1.00  0.00    -0.344 A  
HETATM   19  C   UNL     1     -12.050  14.166  64.318  1.00  0.00    -0.471 A  
HETATM   20  C   UNL     1     -12.410  12.840  64.350  1.00  0.00    -0.424 A  
HETATM   21  O   UNL     1     -12.216  12.323  65.591  1.00  0.00    -0.605 OA 
ENDBRANCH  15  17
ENDBRANCH  14  15
ENDBRANCH  11  14
ENDBRANCH   2   8
TORSDOF 4
ENDMDL
MODEL       69
REMARK 921   NORMALIZED FREE ENERGY PREDICTED BY IDOCK:   -4.99 KCAL/MOL
REMARK 922        TOTAL FREE ENERGY PREDICTED BY IDOCK:   -6.66 KCAL/MOL
REMARK 923 INTER-LIGAND FREE ENERGY PREDICTED BY IDOCK:   -6.07 KCAL/MOL
REMARK 924 INTRA-LIGAND FREE ENERGY PREDICTED BY IDOCK:   -0.60 KCAL/MOL
REMARK 927      BINDING AFFINITY PREDICTED BY RF-SCORE:    0.00 PKD
ROOT
HETATM    1  C   UNL     1     -10.421   8.643  66.832  1.00  0.00    -0.258 C  
HETATM    2  N   UNL     1      -9.676   9.885  66.680  1.00  0.00    -0.187 N  
HETATM    3 CL   UNL     1      -7.568  12.129  68.370  1.00  0.00    -0.123 Cl 
HETATM    4  C   UNL     1      -8.307   9.936  66.978  1.00  0.00    -0.121 C  
HETATM    5 CL   UNL     1      -5.922  11.029  66.227  1.00  0.00    -0.138 Cl 
HETATM    6  C   UNL     1      -7.588  11.287  66.803  1.00  0.00    -0.151 C  
HETATM    7  O   UNL     1      -7.711   8.930  67.377  1.00  0.00    -0.095 OA 
ENDROOT
BRANCH   2   8
HETATM    8  C   UNL     1     -10.402  11.005  66.229  1.00  0.00    -0.251 A  
HETATM    9  C   UNL     1     -10.158  11.520  64.954  1.00  0.00    -0.314 A  
HETATM   10  C   UNL     1     -10.749  12.725  64.576  1.00  0.00    -0.380 A  
HETATM   11  C   UNL     1     -11.591  13.396  65.466  1.00  0.00    -0.325 A  
HETATM   12  C   UNL     1     -11.270  11.661  67.106  1.00  0.00    -0.371 A  
HETATM   13  C   UNL     1     -11.857  12.870  66.730  1.00  0.00    -0.452 A  
BRANCH  11  14
HETATM   14  O   UNL     1     -12.043  14.663  65.038  1.00  0.00    -0.386 OA 
BRANCH  14  15
HETATM   15  C   UNL     1     -11.238  15.807  65.049  1.00  0.00    -0.308 C  
HETATM   16  O   UNL     1     -11.119  16.599  64.123  1.00  0.00    -1.005 OA 
BRANCH  15  17
HETATM   17  C   UNL     1     -10.558  15.912  66.318  1.00  0.00    -0.298 A  
HETATM   18  C   UNL     1      -9.241  15.654  66.657  1.00  0.00    -0.294 A  
HETATM   19  C   UNL     1      -9.113  15.914  68.042  1.00  0.00    -0.184 A  
HETATM   20  C   UNL     1     -10.354  16.321  68.469  1.00  0.00    -0.261 A  
HETATM   21  O   UNL     1     -11.236  16.325  67.436  1.00  0.00    -0.166 OA 
ENDBRANCH  15  17
ENDBRANCH  14  15
ENDBRANCH  11  14
ENDBRANCH   2   8
TORSDOF 4
ENDMDL
MODEL       70
REMARK 921   NORMALIZED FREE ENERGY PREDICTED BY IDOCK:   -4.97 KCAL/MOL
REMARK 922        TOTAL FREE ENERGY PREDICTED BY IDOCK:   -6.64 KCAL/MOL
REMARK 923 INTER-LIGAND FREE ENERGY PREDICTED BY IDOCK:   -6.16 KCAL/MOL
REMARK 924 INTRA-LIGAND FREE ENERGY PREDICTED BY IDOCK:   -0.48 KCAL/MOL
REMARK 927      BINDING AFFINITY PREDICTED BY RF-SCORE:    0.00 PKD
ROOT
HETATM    1  C   UNL     1     -10.669   4.994  74.007  1.00  0.00    -0.286 C  
HETATM    2  N   UNL     1     -10.584   5.524  72.653  1.00  0.00    -0.214 N  
HETATM    3 CL   UNL     1      -8.324   6.524  70.157  1.00  0.00    -0.132 Cl 
HETATM    4  C   UNL     1      -9.822   4.868  71.676  1.00  0.00    -0.184 C  
HETATM    5 CL   UNL     1      -9.711   4.218  69.028  1.00  0.00    -0.236 Cl 
HETATM    6  C   UNL     1      -9.771   5.494  70.270  1.00  0.00    -0.183 C  
HETATM    7  O   UNL     1      -9.207   3.831  71.948  1.00  0.00    -0.112 OA 
ENDROOT
BRANCH   2   8
HETATM    8  C   UNL     1     -11.296   6.712  72.396  1.00  0.00    -0.272 A  
HETATM    9  C   UNL     1     -12.618   6.643  71.949  1.00  0.00    -0.303 A  
HETATM   10  C   UNL     1     -13.262   7.807  71.531  1.00  0.00    -0.356 A  
HETATM   11  C   UNL     1     -12.589   9.031  71.580  1.00  0.00    -0.338 A  
HETATM   12  C   UNL     1     -10.635   7.941  72.474  1.00  0.00    -0.378 A  
HETATM   13  C   UNL     1     -11.279   9.105  72.051  1.00  0.00    -0.310 A  
BRANCH  11  14
HETATM   14  O   UNL     1     -13.282  10.128  71.025  1.00  0.00    -0.394 OA 
BRANCH  14  15
HETATM   15  C   UNL     1     -12.909  11.458  71.243  1.00  0.00    -0.379 C  
HETATM   16  O   UNL     1     -13.088  12.084  72.280  1.00  0.00    -0.387 OA 
BRANCH  15  17
HETATM   17  C   UNL     1     -12.285  11.991  70.055  1.00  0.00    -0.206 A  
HETATM   18  C   UNL     1     -11.717  13.230  69.817  1.00  0.00    -0.354 A  
HETATM   19  C   UNL     1     -11.261  13.224  68.477  1.00  0.00    -0.304 A  
HETATM   20  C   UNL     1     -11.569  11.982  67.976  1.00  0.00    -0.342 A  
HETATM   21  O   UNL     1     -12.187  11.226  68.921  1.00  0.00    -0.494 OA 
ENDBRANCH  15  17
ENDBRANCH  14  15
ENDBRANCH  11  14
ENDBRANCH   2   8
TORSDOF 4
ENDMDL
MODEL       71
REMARK 921   NORMALIZED FREE ENERGY PREDICTED BY IDOCK:   -4.96 KCAL/MOL
REMARK 922        TOTAL FREE ENERGY PREDICTED BY IDOCK:   -6.63 KCAL/MOL
REMARK 923 INTER-LIGAND FREE ENERGY PREDICTED BY IDOCK:   -6.21 KCAL/MOL
REMARK 924 INTRA-LIGAND FREE ENERGY PREDICTED BY IDOCK:   -0.42 KCAL/MOL
REMARK 927      BINDING AFFINITY PREDICTED BY RF-SCORE:    0.00 PKD
ROOT
HETATM    1  C   UNL     1     -10.941   6.504  67.423  1.00  0.00    -0.378 C  
HETATM    2  N   UNL     1     -10.009   7.557  67.802  1.00  0.00    -0.161 N  
HETATM    3 CL   UNL     1      -8.864   9.461  70.521  1.00  0.00    -0.280 Cl 
HETATM    4  C   UNL     1      -9.093   7.358  68.843  1.00  0.00    -0.136 C  
HETATM    5 CL   UNL     1      -6.552   7.891  69.684  1.00  0.00    -0.037 Cl 
HETATM    6  C   UNL     1      -8.145   8.520  69.194  1.00  0.00    -0.117 C  
HETATM    7  O   UNL     1      -9.063   6.287  69.461  1.00  0.00    -0.136 OA 
ENDROOT
BRANCH   2   8
HETATM    8  C   UNL     1     -10.088   8.760  67.073  1.00  0.00    -0.265 A  
HETATM    9  C   UNL     1     -10.902   9.797  67.537  1.00  0.00    -0.286 A  
HETATM   10  C   UNL     1     -11.114  10.915  66.731  1.00  0.00    -0.196 A  
HETATM   11  C   UNL     1     -10.500  10.997  65.479  1.00  0.00    -0.238 A  
HETATM   12  C   UNL     1      -9.449   8.858  65.835  1.00  0.00    -0.303 A  
HETATM   13  C   UNL     1      -9.666   9.975  65.027  1.00  0.00    -0.386 A  
BRANCH  11  14
HETATM   14  O   UNL     1     -10.871  12.108  64.691  1.00  0.00    -0.282 OA 
BRANCH  14  15
HETATM   15  C   UNL     1     -11.937  12.953  65.014  1.00  0.00    -0.405 C  
HETATM   16  O   UNL     1     -13.122  12.697  64.846  1.00  0.00    -0.850 OA 
BRANCH  15  17
HETATM   17  C   UNL     1     -11.430  14.185  65.572  1.00  0.00    -0.324 A  
HETATM   18  C   UNL     1     -11.344  14.609  66.887  1.00  0.00    -0.361 A  
HETATM   19  C   UNL     1     -10.774  15.904  66.866  1.00  0.00    -0.289 A  
HETATM   20  C   UNL     1     -10.538  16.195  65.544  1.00  0.00    -0.377 A  
HETATM   21  O   UNL     1     -10.928  15.163  64.751  1.00  0.00    -0.399 OA 
ENDBRANCH  15  17
ENDBRANCH  14  15
ENDBRANCH  11  14
ENDBRANCH   2   8
TORSDOF 4
ENDMDL
MODEL       72
REMARK 921   NORMALIZED FREE ENERGY PREDICTED BY IDOCK:   -4.96 KCAL/MOL
REMARK 922        TOTAL FREE ENERGY PREDICTED BY IDOCK:   -6.62 KCAL/MOL
REMARK 923 INTER-LIGAND FREE ENERGY PREDICTED BY IDOCK:   -6.20 KCAL/MOL
REMARK 924 INTRA-LIGAND FREE ENERGY PREDICTED BY IDOCK:   -0.43 KCAL/MOL
REMARK 927      BINDING AFFINITY PREDICTED BY RF-SCORE:    0.00 PKD
ROOT
HETATM    1  C   UNL     1     -10.484   7.469  67.912  1.00  0.00    -0.204 C  
HETATM    2  N   UNL     1     -10.519   8.377  69.050  1.00  0.00    -0.220 N  
HETATM    3 CL   UNL     1     -12.286   9.146  71.986  1.00  0.00    -0.447 Cl 
HETATM    4  C   UNL     1     -10.542   7.878  70.360  1.00  0.00    -0.228 C  
HETATM    5 CL   UNL     1      -9.647   8.301  72.903  1.00  0.00    -0.340 Cl 
HETATM    6  C   UNL     1     -10.589   8.898  71.512  1.00  0.00    -0.329 C  
HETATM    7  O   UNL     1     -10.538   6.660  70.570  1.00  0.00    -0.215 OA 
ENDROOT
BRANCH   2   8
HETATM    8  C   UNL     1     -10.530   9.755  68.757  1.00  0.00    -0.218 A  
HETATM    9  C   UNL     1      -9.328  10.415  68.490  1.00  0.00    -0.160 A  
HETATM   10  C   UNL     1      -9.320  11.804  68.371  1.00  0.00    -0.185 A  
HETATM   11  C   UNL     1     -10.512  12.520  68.503  1.00  0.00    -0.231 A  
HETATM   12  C   UNL     1     -11.726  10.470  68.857  1.00  0.00    -0.217 A  
HETATM   13  C   UNL     1     -11.717  11.861  68.743  1.00  0.00    -0.379 A  
BRANCH  11  14
HETATM   14  O   UNL     1     -10.383  13.926  68.487  1.00  0.00    -0.236 OA 
BRANCH  14  15
HETATM   15  C   UNL     1     -11.429  14.787  68.144  1.00  0.00    -0.323 C  
HETATM   16  O   UNL     1     -12.090  15.450  68.934  1.00  0.00    -0.300 OA 
BRANCH  15  17
HETATM   17  C   UNL     1     -11.623  14.774  66.713  1.00  0.00    -0.324 A  
HETATM   18  C   UNL     1     -12.540  14.088  65.936  1.00  0.00    -0.484 A  
HETATM   19  C   UNL     1     -12.279  14.433  64.589  1.00  0.00    -0.479 A  
HETATM   20  C   UNL     1     -11.225  15.315  64.619  1.00  0.00    -0.356 A  
HETATM   21  O   UNL     1     -10.820  15.530  65.898  1.00  0.00    -0.326 OA 
ENDBRANCH  15  17
ENDBRANCH  14  15
ENDBRANCH  11  14
ENDBRANCH   2   8
TORSDOF 4
ENDMDL
MODEL       73
REMARK 921   NORMALIZED FREE ENERGY PREDICTED BY IDOCK:   -4.93 KCAL/MOL
REMARK 922        TOTAL FREE ENERGY PREDICTED BY IDOCK:   -6.59 KCAL/MOL
REMARK 923 INTER-LIGAND FREE ENERGY PREDICTED BY IDOCK:   -6.59 KCAL/MOL
REMARK 924 INTRA-LIGAND FREE ENERGY PREDICTED BY IDOCK:   -0.00 KCAL/MOL
REMARK 927      BINDING AFFINITY PREDICTED BY RF-SCORE:    0.00 PKD
ROOT
HETATM    1  C   UNL     1     -13.259  11.816  72.139  1.00  0.00    -0.237 C  
HETATM    2  N   UNL     1     -12.849  10.550  71.548  1.00  0.00    -0.427 N  
HETATM    3 CL   UNL     1     -11.530   7.384  72.305  1.00  0.00    -0.307 Cl 
HETATM    4  C   UNL     1     -13.372   9.339  72.022  1.00  0.00    -0.450 C  
HETATM    5 CL   UNL     1     -14.208   6.850  71.277  1.00  0.00    -0.261 Cl 
HETATM    6  C   UNL     1     -12.884   8.040  71.354  1.00  0.00    -0.269 C  
HETATM    7  O   UNL     1     -14.186   9.325  72.951  1.00  0.00    -0.465 OA 
ENDROOT
BRANCH   2   8
HETATM    8  C   UNL     1     -11.913  10.619  70.497  1.00  0.00    -0.352 A  
HETATM    9  C   UNL     1     -12.264  11.243  69.297  1.00  0.00    -0.290 A  
HETATM   10  C   UNL     1     -11.405  11.159  68.203  1.00  0.00    -0.377 A  
HETATM   11  C   UNL     1     -10.195  10.470  68.320  1.00  0.00    -0.163 A  
HETATM   12  C   UNL     1     -10.689   9.957  70.621  1.00  0.00    -0.372 A  
HETATM   13  C   UNL     1      -9.831   9.869  69.524  1.00  0.00    -0.241 A  
BRANCH  11  14
HETATM   14  O   UNL     1      -9.452  10.339  67.127  1.00  0.00    -0.155 OA 
BRANCH  14  15
HETATM   15  C   UNL     1      -9.858   9.536  66.056  1.00  0.00    -0.283 C  
HETATM   16  O   UNL     1     -10.127   8.343  66.125  1.00  0.00    -0.182 OA 
BRANCH  15  17
HETATM   17  C   UNL     1      -9.907  10.324  64.847  1.00  0.00    -0.336 A  
HETATM   18  C   UNL     1     -10.601  11.487  64.559  1.00  0.00    -0.387 A  
HETATM   19  C   UNL     1     -10.296  11.829  63.221  1.00  0.00    -0.446 A  
HETATM   20  C   UNL     1      -9.428  10.862  62.770  1.00  0.00    -0.333 A  
HETATM   21  O   UNL     1      -9.184   9.948  63.745  1.00  0.00    -0.256 OA 
ENDBRANCH  15  17
ENDBRANCH  14  15
ENDBRANCH  11  14
ENDBRANCH   2   8
TORSDOF 4
ENDMDL
MODEL       74
REMARK 921   NORMALIZED FREE ENERGY PREDICTED BY IDOCK:   -4.89 KCAL/MOL
REMARK 922        TOTAL FREE ENERGY PREDICTED BY IDOCK:   -6.54 KCAL/MOL
REMARK 923 INTER-LIGAND FREE ENERGY PREDICTED BY IDOCK:   -6.28 KCAL/MOL
REMARK 924 INTRA-LIGAND FREE ENERGY PREDICTED BY IDOCK:   -0.26 KCAL/MOL
REMARK 927      BINDING AFFINITY PREDICTED BY RF-SCORE:    0.00 PKD
ROOT
HETATM    1  C   UNL     1     -13.706   7.107  71.520  1.00  0.00    -0.309 C  
HETATM    2  N   UNL     1     -12.265   7.283  71.630  1.00  0.00    -0.325 N  
HETATM    3 CL   UNL     1      -9.621   7.493  73.932  1.00  0.00    -0.313 Cl 
HETATM    4  C   UNL     1     -11.485   6.360  72.341  1.00  0.00    -0.282 C  
HETATM    5 CL   UNL     1      -9.078   5.075  72.392  1.00  0.00    -0.142 Cl 
HETATM    6  C   UNL     1      -9.969   6.618  72.423  1.00  0.00    -0.166 C  
HETATM    7  O   UNL     1     -12.009   5.384  72.889  1.00  0.00    -0.225 OA 
ENDROOT
BRANCH   2   8
HETATM    8  C   UNL     1     -11.718   8.416  70.995  1.00  0.00    -0.267 A  
HETATM    9  C   UNL     1     -12.088   9.694  71.421  1.00  0.00    -0.472 A  
HETATM   10  C   UNL     1     -11.684  10.806  70.684  1.00  0.00    -0.442 A  
HETATM   11  C   UNL     1     -10.900  10.635  69.540  1.00  0.00    -0.259 A  
HETATM   12  C   UNL     1     -10.908   8.249  69.869  1.00  0.00    -0.213 A  
HETATM   13  C   UNL     1     -10.507   9.362  69.129  1.00  0.00    -0.230 A  
BRANCH  11  14
HETATM   14  O   UNL     1     -10.644  11.808  68.798  1.00  0.00    -0.208 OA 
BRANCH  14  15
HETATM   15  C   UNL     1     -11.655  12.614  68.266  1.00  0.00    -0.332 C  
HETATM   16  O   UNL     1     -12.382  12.314  67.328  1.00  0.00    -0.363 OA 
BRANCH  15  17
HETATM   17  C   UNL     1     -11.712  13.864  68.988  1.00  0.00    -0.338 A  
HETATM   18  C   UNL     1     -12.451  14.228  70.100  1.00  0.00    -0.393 A  
HETATM   19  C   UNL     1     -12.131  15.576  70.385  1.00  0.00    -0.426 A  
HETATM   20  C   UNL     1     -11.210  15.957  69.438  1.00  0.00    -0.336 A  
HETATM   21  O   UNL     1     -10.948  14.930  68.588  1.00  0.00    -0.240 OA 
ENDBRANCH  15  17
ENDBRANCH  14  15
ENDBRANCH  11  14
ENDBRANCH   2   8
TORSDOF 4
ENDMDL
MODEL       75
REMARK 921   NORMALIZED FREE ENERGY PREDICTED BY IDOCK:   -4.89 KCAL/MOL
REMARK 922        TOTAL FREE ENERGY PREDICTED BY IDOCK:   -6.54 KCAL/MOL
REMARK 923 INTER-LIGAND FREE ENERGY PREDICTED BY IDOCK:   -6.17 KCAL/MOL
REMARK 924 INTRA-LIGAND FREE ENERGY PREDICTED BY IDOCK:   -0.37 KCAL/MOL
REMARK 927      BINDING AFFINITY PREDICTED BY RF-SCORE:    0.00 PKD
ROOT
HETATM    1  C   UNL     1     -11.594   9.914  70.969  1.00  0.00    -0.389 C  
HETATM    2  N   UNL     1     -10.978   9.541  69.703  1.00  0.00    -0.232 N  
HETATM    3 CL   UNL     1      -8.437   7.580  68.279  1.00  0.00    -0.125 Cl 
HETATM    4  C   UNL     1     -10.839   8.192  69.348  1.00  0.00    -0.086 C  
HETATM    5 CL   UNL     1     -10.920   6.438  67.259  1.00  0.00    -0.455 Cl 
HETATM    6  C   UNL     1     -10.169   7.874  67.998  1.00  0.00    -0.208 C  
HETATM    7  O   UNL     1     -11.234   7.297  70.104  1.00  0.00    -0.269 OA 
ENDROOT
BRANCH   2   8
HETATM    8  C   UNL     1     -10.538  10.597  68.881  1.00  0.00    -0.212 A  
HETATM    9  C   UNL     1      -9.180  10.923  68.843  1.00  0.00    -0.168 A  
HETATM   10  C   UNL     1      -8.769  12.072  68.168  1.00  0.00    -0.177 A  
HETATM   11  C   UNL     1      -9.714  12.874  67.522  1.00  0.00    -0.205 A  
HETATM   12  C   UNL     1     -11.477  11.383  68.209  1.00  0.00    -0.369 A  
HETATM   13  C   UNL     1     -11.066  12.535  67.537  1.00  0.00    -0.311 A  
BRANCH  11  14
HETATM   14  O   UNL     1      -9.217  14.075  66.971  1.00  0.00    -0.233 OA 
BRANCH  14  15
HETATM   15  C   UNL     1      -9.890  14.799  65.982  1.00  0.00    -0.324 C  
HETATM   16  O   UNL     1     -10.228  14.363  64.889  1.00  0.00    -0.417 OA 
BRANCH  15  17
HETATM   17  C   UNL     1     -10.123  16.149  66.440  1.00  0.00    -0.308 A  
HETATM   18  C   UNL     1     -10.617  16.616  67.646  1.00  0.00    -0.321 A  
HETATM   19  C   UNL     1     -10.648  18.028  67.559  1.00  0.00    -0.402 A  
HETATM   20  C   UNL     1     -10.165  18.343  66.311  1.00  0.00    -0.406 A  
HETATM   21  O   UNL     1      -9.843  17.216  65.626  1.00  0.00    -0.552 OA 
ENDBRANCH  15  17
ENDBRANCH  14  15
ENDBRANCH  11  14
ENDBRANCH   2   8
TORSDOF 4
ENDMDL
MODEL       76
REMARK 921   NORMALIZED FREE ENERGY PREDICTED BY IDOCK:   -4.87 KCAL/MOL
REMARK 922        TOTAL FREE ENERGY PREDICTED BY IDOCK:   -6.52 KCAL/MOL
REMARK 923 INTER-LIGAND FREE ENERGY PREDICTED BY IDOCK:   -5.99 KCAL/MOL
REMARK 924 INTRA-LIGAND FREE ENERGY PREDICTED BY IDOCK:   -0.53 KCAL/MOL
REMARK 927      BINDING AFFINITY PREDICTED BY RF-SCORE:    0.00 PKD
ROOT
HETATM    1  C   UNL     1      -7.431   8.981  68.870  1.00  0.00    -0.075 C  
HETATM    2  N   UNL     1      -8.797   8.476  68.889  1.00  0.00    -0.138 N  
HETATM    3 CL   UNL     1     -10.950   6.123  67.419  1.00  0.00    -0.422 Cl 
HETATM    4  C   UNL     1      -9.050   7.109  69.065  1.00  0.00    -0.132 C  
HETATM    5 CL   UNL     1     -10.746   5.304  70.212  1.00  0.00    -0.295 Cl 
HETATM    6  C   UNL     1     -10.519   6.647  69.063  1.00  0.00    -0.214 C  
HETATM    7  O   UNL     1      -8.118   6.308  69.204  1.00  0.00    -0.107 OA 
ENDROOT
BRANCH   2   8
HETATM    8  C   UNL     1      -9.823   9.427  68.719  1.00  0.00    -0.163 A  
HETATM    9  C   UNL     1     -10.123   9.898  67.438  1.00  0.00    -0.254 A  
HETATM   10  C   UNL     1     -11.014  10.961  67.290  1.00  0.00    -0.355 A  
HETATM   11  C   UNL     1     -11.611  11.530  68.418  1.00  0.00    -0.308 A  
HETATM   12  C   UNL     1     -10.445   9.977  69.842  1.00  0.00    -0.317 A  
HETATM   13  C   UNL     1     -11.333  11.043  69.694  1.00  0.00    -0.363 A  
BRANCH  11  14
HETATM   14  O   UNL     1     -12.402  12.674  68.175  1.00  0.00    -0.138 OA 
BRANCH  14  15
HETATM   15  C   UNL     1     -11.886  13.974  68.164  1.00  0.00    -0.367 C  
HETATM   16  O   UNL     1     -11.620  14.640  69.157  1.00  0.00    -0.269 OA 
BRANCH  15  17
HETATM   17  C   UNL     1     -11.719  14.421  66.801  1.00  0.00    -0.397 A  
HETATM   18  C   UNL     1     -10.717  15.179  66.220  1.00  0.00    -0.320 A  
HETATM   19  C   UNL     1     -11.055  15.331  64.854  1.00  0.00    -0.435 A  
HETATM   20  C   UNL     1     -12.238  14.652  64.677  1.00  0.00    -0.434 A  
HETATM   21  O   UNL     1     -12.648  14.096  65.847  1.00  0.00    -0.486 OA 
ENDBRANCH  15  17
ENDBRANCH  14  15
ENDBRANCH  11  14
ENDBRANCH   2   8
TORSDOF 4
ENDMDL
MODEL       77
REMARK 921   NORMALIZED FREE ENERGY PREDICTED BY IDOCK:   -4.81 KCAL/MOL
REMARK 922        TOTAL FREE ENERGY PREDICTED BY IDOCK:   -6.45 KCAL/MOL
REMARK 923 INTER-LIGAND FREE ENERGY PREDICTED BY IDOCK:   -5.92 KCAL/MOL
REMARK 924 INTRA-LIGAND FREE ENERGY PREDICTED BY IDOCK:   -0.53 KCAL/MOL
REMARK 927      BINDING AFFINITY PREDICTED BY RF-SCORE:    0.00 PKD
ROOT
HETATM    1  C   UNL     1     -11.915  15.829  69.439  1.00  0.00    -0.305 C  
HETATM    2  N   UNL     1     -11.097  15.524  68.273  1.00  0.00    -0.307 N  
HETATM    3 CL   UNL     1     -10.807  16.067  64.816  1.00  0.00    -0.417 Cl 
HETATM    4  C   UNL     1     -10.596  16.552  67.464  1.00  0.00    -0.313 C  
HETATM    5 CL   UNL     1      -8.453  17.347  65.972  1.00  0.00    -0.195 Cl 
HETATM    6  C   UNL     1      -9.747  16.152  66.243  1.00  0.00    -0.307 C  
HETATM    7  O   UNL     1     -10.843  17.736  67.723  1.00  0.00    -0.371 OA 
ENDROOT
BRANCH   2   8
HETATM    8  C   UNL     1     -10.851  14.160  68.016  1.00  0.00    -0.246 A  
HETATM    9  C   UNL     1     -11.870  13.360  67.495  1.00  0.00    -0.408 A  
HETATM   10  C   UNL     1     -11.681  11.982  67.404  1.00  0.00    -0.352 A  
HETATM   11  C   UNL     1     -10.472  11.417  67.816  1.00  0.00    -0.185 A  
HETATM   12  C   UNL     1      -9.631  13.598  68.399  1.00  0.00    -0.203 A  
HETATM   13  C   UNL     1      -9.444  12.217  68.312  1.00  0.00    -0.209 A  
BRANCH  11  14
HETATM   14  O   UNL     1     -10.422  10.006  67.797  1.00  0.00    -0.200 OA 
BRANCH  14  15
HETATM   15  C   UNL     1      -9.716   9.252  68.740  1.00  0.00    -0.157 C  
HETATM   16  O   UNL     1      -8.544   8.912  68.644  1.00  0.00    -0.130 OA 
BRANCH  15  17
HETATM   17  C   UNL     1     -10.582   8.926  69.849  1.00  0.00    -0.221 A  
HETATM   18  C   UNL     1     -11.076   9.721  70.869  1.00  0.00    -0.428 A  
HETATM   19  C   UNL     1     -11.870   8.889  71.693  1.00  0.00    -0.415 A  
HETATM   20  C   UNL     1     -11.822   7.637  71.128  1.00  0.00    -0.293 A  
HETATM   21  O   UNL     1     -11.048   7.646  70.012  1.00  0.00    -0.254 OA 
ENDBRANCH  15  17
ENDBRANCH  14  15
ENDBRANCH  11  14
ENDBRANCH   2   8
TORSDOF 4
ENDMDL
MODEL       78
REMARK 921   NORMALIZED FREE ENERGY PREDICTED BY IDOCK:   -4.80 KCAL/MOL
REMARK 922        TOTAL FREE ENERGY PREDICTED BY IDOCK:   -6.43 KCAL/MOL
REMARK 923 INTER-LIGAND FREE ENERGY PREDICTED BY IDOCK:   -6.64 KCAL/MOL
REMARK 924 INTRA-LIGAND FREE ENERGY PREDICTED BY IDOCK:    0.21 KCAL/MOL
REMARK 927      BINDING AFFINITY PREDICTED BY RF-SCORE:    0.00 PKD
ROOT
HETATM    1  C   UNL     1     -12.846  11.344  71.427  1.00  0.00    -0.397 C  
HETATM    2  N   UNL     1     -11.975  11.305  70.260  1.00  0.00    -0.354 N  
HETATM    3 CL   UNL     1      -8.682  10.658  69.225  1.00  0.00    -0.132 Cl 
HETATM    4  C   UNL     1     -11.230  10.155  69.965  1.00  0.00    -0.299 C  
HETATM    5 CL   UNL     1     -10.289   8.591  67.936  1.00  0.00    -0.276 Cl 
HETATM    6  C   UNL     1     -10.323  10.190  68.721  1.00  0.00    -0.194 C  
HETATM    7  O   UNL     1     -11.296   9.157  70.692  1.00  0.00    -0.260 OA 
ENDROOT
BRANCH   2   8
HETATM    8  C   UNL     1     -11.928  12.469  69.469  1.00  0.00    -0.266 A  
HETATM    9  C   UNL     1     -11.899  12.358  68.076  1.00  0.00    -0.376 A  
HETATM   10  C   UNL     1     -11.679  13.497  67.302  1.00  0.00    -0.423 A  
HETATM   11  C   UNL     1     -11.507  14.737  67.922  1.00  0.00    -0.342 A  
HETATM   12  C   UNL     1     -11.788  13.715  70.085  1.00  0.00    -0.351 A  
HETATM   13  C   UNL     1     -11.563  14.853  69.310  1.00  0.00    -0.330 A  
BRANCH  11  14
HETATM   14  O   UNL     1     -11.171  15.806  67.063  1.00  0.00    -0.229 OA 
BRANCH  14  15
HETATM   15  C   UNL     1      -9.855  16.212  66.826  1.00  0.00    -0.245 C  
HETATM   16  O   UNL     1      -8.919  15.468  66.558  1.00  0.00    -0.262 OA 
BRANCH  15  17
HETATM   17  C   UNL     1      -9.758  17.647  66.952  1.00  0.00    -0.292 A  
HETATM   18  C   UNL     1     -10.411  18.657  66.266  1.00  0.00    -0.468 A  
HETATM   19  C   UNL     1      -9.933  19.884  66.783  1.00  0.00    -0.569 A  
HETATM   20  C   UNL     1      -9.022  19.556  67.759  1.00  0.00    -0.318 A  
HETATM   21  O   UNL     1      -8.908  18.207  67.871  1.00  0.00    -0.259 OA 
ENDBRANCH  15  17
ENDBRANCH  14  15
ENDBRANCH  11  14
ENDBRANCH   2   8
TORSDOF 4
ENDMDL
MODEL       79
REMARK 921   NORMALIZED FREE ENERGY PREDICTED BY IDOCK:   -4.79 KCAL/MOL
REMARK 922        TOTAL FREE ENERGY PREDICTED BY IDOCK:   -6.42 KCAL/MOL
REMARK 923 INTER-LIGAND FREE ENERGY PREDICTED BY IDOCK:   -6.19 KCAL/MOL
REMARK 924 INTRA-LIGAND FREE ENERGY PREDICTED BY IDOCK:   -0.23 KCAL/MOL
REMARK 927      BINDING AFFINITY PREDICTED BY RF-SCORE:    0.00 PKD
ROOT
HETATM    1  C   UNL     1     -13.151   7.951  71.789  1.00  0.00    -0.325 C  
HETATM    2  N   UNL     1     -11.834   8.199  71.217  1.00  0.00    -0.285 N  
HETATM    3 CL   UNL     1      -8.469   8.770  72.040  1.00  0.00    -0.180 Cl 
HETATM    4  C   UNL     1     -10.742   7.393  71.566  1.00  0.00    -0.222 C  
HETATM    5 CL   UNL     1      -8.467   6.222  70.617  1.00  0.00    -0.133 Cl 
HETATM    6  C   UNL     1      -9.379   7.721  70.928  1.00  0.00    -0.153 C  
HETATM    7  O   UNL     1     -10.877   6.461  72.367  1.00  0.00    -0.217 OA 
ENDROOT
BRANCH   2   8
HETATM    8  C   UNL     1     -11.732   9.276  70.315  1.00  0.00    -0.051 A  
HETATM    9  C   UNL     1     -11.262   9.050  69.019  1.00  0.00     0.228 A  
HETATM   10  C   UNL     1     -10.998  10.137  68.186  1.00  0.00    -0.313 A  
HETATM   11  C   UNL     1     -11.221  11.437  68.648  1.00  0.00    -0.243 A  
HETATM   12  C   UNL     1     -11.984  10.575  70.764  1.00  0.00    -0.472 A  
HETATM   13  C   UNL     1     -11.714  11.663  69.932  1.00  0.00    -0.414 A  
BRANCH  11  14
HETATM   14  O   UNL     1     -10.811  12.470  67.777  1.00  0.00    -0.214 OA 
BRANCH  14  15
HETATM   15  C   UNL     1     -11.703  13.216  67.001  1.00  0.00    -0.377 C  
HETATM   16  O   UNL     1     -12.390  14.145  67.406  1.00  0.00    -0.317 OA 
BRANCH  15  17
HETATM   17  C   UNL     1     -11.701  12.721  65.644  1.00  0.00    -0.399 A  
HETATM   18  C   UNL     1     -10.711  12.075  64.925  1.00  0.00    -0.346 A  
HETATM   19  C   UNL     1     -11.237  11.820  63.636  1.00  0.00    -0.519 A  
HETATM   20  C   UNL     1     -12.518  12.318  63.643  1.00  0.00    -0.541 A  
HETATM   21  O   UNL     1     -12.811  12.863  64.852  1.00  0.00    -0.701 OA 
ENDBRANCH  15  17
ENDBRANCH  14  15
ENDBRANCH  11  14
ENDBRANCH   2   8
TORSDOF 4
ENDMDL
MODEL       80
REMARK 921   NORMALIZED FREE ENERGY PREDICTED BY IDOCK:   -4.77 KCAL/MOL
REMARK 922        TOTAL FREE ENERGY PREDICTED BY IDOCK:   -6.39 KCAL/MOL
REMARK 923 INTER-LIGAND FREE ENERGY PREDICTED BY IDOCK:   -5.94 KCAL/MOL
REMARK 924 INTRA-LIGAND FREE ENERGY PREDICTED BY IDOCK:   -0.45 KCAL/MOL
REMARK 927      BINDING AFFINITY PREDICTED BY RF-SCORE:    0.00 PKD
ROOT
HETATM    1  C   UNL     1      -9.921   7.289  68.136  1.00  0.00    -0.159 C  
HETATM    2  N   UNL     1     -10.049   8.225  69.244  1.00  0.00    -0.194 N  
HETATM    3 CL   UNL     1     -11.921   8.932  72.130  1.00  0.00    -0.431 Cl 
HETATM    4  C   UNL     1     -10.052   7.766  70.569  1.00  0.00    -0.192 C  
HETATM    5 CL   UNL     1      -9.236   8.342  73.109  1.00  0.00    -0.322 Cl 
HETATM    6  C   UNL     1     -10.202   8.814  71.688  1.00  0.00    -0.324 C  
HETATM    7  O   UNL     1      -9.949   6.560  70.818  1.00  0.00    -0.183 OA 
ENDROOT
BRANCH   2   8
HETATM    8  C   UNL     1     -10.172   9.588  68.908  1.00  0.00    -0.199 A  
HETATM    9  C   UNL     1      -9.022  10.355  68.701  1.00  0.00    -0.146 A  
HETATM   10  C   UNL     1      -9.139  11.735  68.539  1.00  0.00    -0.144 A  
HETATM   11  C   UNL     1     -10.401  12.334  68.567  1.00  0.00    -0.223 A  
HETATM   12  C   UNL     1     -11.435  10.185  68.904  1.00  0.00    -0.125 A  
HETATM   13  C   UNL     1     -11.551  11.567  68.747  1.00  0.00    -0.379 A  
BRANCH  11  14
HETATM   14  O   UNL     1     -10.405  13.745  68.515  1.00  0.00    -0.238 OA 
BRANCH  14  15
HETATM   15  C   UNL     1     -11.577  14.505  68.446  1.00  0.00    -0.326 C  
HETATM   16  O   UNL     1     -12.256  14.672  67.440  1.00  0.00    -0.289 OA 
BRANCH  15  17
HETATM   17  C   UNL     1     -11.867  15.073  69.741  1.00  0.00    -0.321 A  
HETATM   18  C   UNL     1     -11.095  15.873  70.566  1.00  0.00    -0.381 A  
HETATM   19  C   UNL     1     -11.864  16.136  71.724  1.00  0.00    -0.581 A  
HETATM   20  C   UNL     1     -13.063  15.489  71.539  1.00  0.00    -0.496 A  
HETATM   21  O   UNL     1     -13.078  14.845  70.343  1.00  0.00    -0.284 OA 
ENDBRANCH  15  17
ENDBRANCH  14  15
ENDBRANCH  11  14
ENDBRANCH   2   8
TORSDOF 4
ENDMDL
MODEL       81
REMARK 921   NORMALIZED FREE ENERGY PREDICTED BY IDOCK:   -4.76 KCAL/MOL
REMARK 922        TOTAL FREE ENERGY PREDICTED BY IDOCK:   -6.38 KCAL/MOL
REMARK 923 INTER-LIGAND FREE ENERGY PREDICTED BY IDOCK:   -5.78 KCAL/MOL
REMARK 924 INTRA-LIGAND FREE ENERGY PREDICTED BY IDOCK:   -0.60 KCAL/MOL
REMARK 927      BINDING AFFINITY PREDICTED BY RF-SCORE:    0.00 PKD
ROOT
HETATM    1  C   UNL     1     -10.570  14.863  69.800  1.00  0.00    -0.169 C  
HETATM    2  N   UNL     1     -10.732  14.318  68.459  1.00  0.00    -0.248 N  
HETATM    3 CL   UNL     1     -12.904  14.227  65.701  1.00  0.00    -0.434 Cl 
HETATM    4  C   UNL     1     -11.003  15.163  67.374  1.00  0.00    -0.314 C  
HETATM    5 CL   UNL     1     -10.512  15.581  64.722  1.00  0.00    -0.292 Cl 
HETATM    6  C   UNL     1     -11.172  14.514  65.988  1.00  0.00    -0.337 C  
HETATM    7  O   UNL     1     -11.111  16.383  67.537  1.00  0.00    -0.241 OA 
ENDROOT
BRANCH   2   8
HETATM    8  C   UNL     1     -10.607  12.921  68.327  1.00  0.00    -0.246 A  
HETATM    9  C   UNL     1     -11.731  12.107  68.493  1.00  0.00    -0.382 A  
HETATM   10  C   UNL     1     -11.574  10.722  68.533  1.00  0.00    -0.325 A  
HETATM   11  C   UNL     1     -10.303  10.161  68.391  1.00  0.00    -0.183 A  
HETATM   12  C   UNL     1      -9.341  12.357  68.153  1.00  0.00    -0.209 A  
HETATM   13  C   UNL     1      -9.184  10.971  68.198  1.00  0.00    -0.165 A  
BRANCH  11  14
HETATM   14  O   UNL     1     -10.232   8.762  68.566  1.00  0.00    -0.186 OA 
BRANCH  14  15
HETATM   15  C   UNL     1      -9.795   8.160  69.750  1.00  0.00    -0.187 C  
HETATM   16  O   UNL     1      -8.660   7.752  69.962  1.00  0.00    -0.136 OA 
BRANCH  15  17
HETATM   17  C   UNL     1     -10.888   8.083  70.690  1.00  0.00    -0.234 A  
HETATM   18  C   UNL     1     -11.159   8.839  71.818  1.00  0.00    -0.417 A  
HETATM   19  C   UNL     1     -12.357   8.332  72.376  1.00  0.00    -0.385 A  
HETATM   20  C   UNL     1     -12.753   7.302  71.555  1.00  0.00    -0.384 A  
HETATM   21  O   UNL     1     -11.874   7.144  70.531  1.00  0.00    -0.299 OA 
ENDBRANCH  15  17
ENDBRANCH  14  15
ENDBRANCH  11  14
ENDBRANCH   2   8
TORSDOF 4
ENDMDL
MODEL       82
REMARK 921   NORMALIZED FREE ENERGY PREDICTED BY IDOCK:   -4.76 KCAL/MOL
REMARK 922        TOTAL FREE ENERGY PREDICTED BY IDOCK:   -6.38 KCAL/MOL
REMARK 923 INTER-LIGAND FREE ENERGY PREDICTED BY IDOCK:   -5.96 KCAL/MOL
REMARK 924 INTRA-LIGAND FREE ENERGY PREDICTED BY IDOCK:   -0.42 KCAL/MOL
REMARK 927      BINDING AFFINITY PREDICTED BY RF-SCORE:    0.00 PKD
ROOT
HETATM    1  C   UNL     1      -7.916   8.221  73.150  1.00  0.00    -0.140 C  
HETATM    2  N   UNL     1      -8.780   7.550  72.188  1.00  0.00    -0.112 N  
HETATM    3 CL   UNL     1      -8.762   5.521  69.323  1.00  0.00    -0.106 Cl 
HETATM    4  C   UNL     1      -8.639   6.178  71.939  1.00  0.00    -0.132 C  
HETATM    5 CL   UNL     1     -10.003   3.879  71.391  1.00  0.00    -0.235 Cl 
HETATM    6  C   UNL     1      -9.581   5.540  70.902  1.00  0.00    -0.170 C  
HETATM    7  O   UNL     1      -7.776   5.516  72.527  1.00  0.00    -0.099 OA 
ENDROOT
BRANCH   2   8
HETATM    8  C   UNL     1      -9.741   8.350  71.539  1.00  0.00    -0.210 A  
HETATM    9  C   UNL     1      -9.376   9.092  70.413  1.00  0.00    -0.272 A  
HETATM   10  C   UNL     1     -10.277  10.012  69.877  1.00  0.00    -0.304 A  
HETATM   11  C   UNL     1     -11.538  10.171  70.458  1.00  0.00    -0.329 A  
HETATM   12  C   UNL     1     -11.014   8.487  72.099  1.00  0.00    -0.427 A  
HETATM   13  C   UNL     1     -11.913   9.411  71.565  1.00  0.00    -0.456 A  
BRANCH  11  14
HETATM   14  O   UNL     1     -12.329  11.208  69.919  1.00  0.00    -0.303 OA 
BRANCH  14  15
HETATM   15  C   UNL     1     -11.856  12.509  69.723  1.00  0.00    -0.310 C  
HETATM   16  O   UNL     1     -11.160  12.878  68.785  1.00  0.00    -0.243 OA 
BRANCH  15  17
HETATM   17  C   UNL     1     -12.304  13.358  70.801  1.00  0.00    -0.354 A  
HETATM   18  C   UNL     1     -11.933  14.647  71.145  1.00  0.00    -0.405 A  
HETATM   19  C   UNL     1     -12.679  14.998  72.295  1.00  0.00    -0.418 A  
HETATM   20  C   UNL     1     -13.467  13.909  72.585  1.00  0.00    -0.546 A  
HETATM   21  O   UNL     1     -13.251  12.912  71.687  1.00  0.00    -0.388 OA 
ENDBRANCH  15  17
ENDBRANCH  14  15
ENDBRANCH  11  14
ENDBRANCH   2   8
TORSDOF 4
ENDMDL
MODEL       83
REMARK 921   NORMALIZED FREE ENERGY PREDICTED BY IDOCK:   -4.73 KCAL/MOL
REMARK 922        TOTAL FREE ENERGY PREDICTED BY IDOCK:   -6.35 KCAL/MOL
REMARK 923 INTER-LIGAND FREE ENERGY PREDICTED BY IDOCK:   -5.80 KCAL/MOL
REMARK 924 INTRA-LIGAND FREE ENERGY PREDICTED BY IDOCK:   -0.55 KCAL/MOL
REMARK 927      BINDING AFFINITY PREDICTED BY RF-SCORE:    0.00 PKD
ROOT
HETATM    1  C   UNL     1     -11.833  10.788  70.577  1.00  0.00    -0.356 C  
HETATM    2  N   UNL     1     -10.778   9.846  70.230  1.00  0.00    -0.290 N  
HETATM    3 CL   UNL     1      -7.726   8.505  71.334  1.00  0.00    -0.115 Cl 
HETATM    4  C   UNL     1     -10.397   8.839  71.128  1.00  0.00    -0.246 C  
HETATM    5 CL   UNL     1      -9.572   6.245  71.319  1.00  0.00    -0.185 Cl 
HETATM    6  C   UNL     1      -9.267   7.886  70.696  1.00  0.00    -0.157 C  
HETATM    7  O   UNL     1     -10.948   8.736  72.230  1.00  0.00    -0.359 OA 
ENDROOT
BRANCH   2   8
HETATM    8  C   UNL     1     -10.176  10.010  68.967  1.00  0.00    -0.203 A  
HETATM    9  C   UNL     1      -9.208  11.002  68.785  1.00  0.00    -0.167 A  
HETATM   10  C   UNL     1      -8.742  11.277  67.501  1.00  0.00    -0.138 A  
HETATM   11  C   UNL     1      -9.231  10.551  66.412  1.00  0.00    -0.166 A  
HETATM   12  C   UNL     1     -10.641   9.264  67.881  1.00  0.00    -0.288 A  
HETATM   13  C   UNL     1     -10.177   9.543  66.595  1.00  0.00    -0.310 A  
BRANCH  11  14
HETATM   14  O   UNL     1      -8.789  10.984  65.143  1.00  0.00    -0.183 OA 
BRANCH  14  15
HETATM   15  C   UNL     1      -9.571  10.892  63.988  1.00  0.00    -0.278 C  
HETATM   16  O   UNL     1      -9.454  10.038  63.118  1.00  0.00    -0.299 OA 
BRANCH  15  17
HETATM   17  C   UNL     1     -10.537  11.965  63.967  1.00  0.00    -0.374 A  
HETATM   18  C   UNL     1     -11.804  12.023  63.414  1.00  0.00    -0.542 A  
HETATM   19  C   UNL     1     -12.310  13.318  63.677  1.00  0.00    -0.456 A  
HETATM   20  C   UNL     1     -11.328  13.975  64.381  1.00  0.00    -0.319 A  
HETATM   21  O   UNL     1     -10.252  13.167  64.564  1.00  0.00    -0.368 OA 
ENDBRANCH  15  17
ENDBRANCH  14  15
ENDBRANCH  11  14
ENDBRANCH   2   8
TORSDOF 4
ENDMDL
MODEL       84
REMARK 921   NORMALIZED FREE ENERGY PREDICTED BY IDOCK:   -4.72 KCAL/MOL
REMARK 922        TOTAL FREE ENERGY PREDICTED BY IDOCK:   -6.33 KCAL/MOL
REMARK 923 INTER-LIGAND FREE ENERGY PREDICTED BY IDOCK:   -6.30 KCAL/MOL
REMARK 924 INTRA-LIGAND FREE ENERGY PREDICTED BY IDOCK:   -0.03 KCAL/MOL
REMARK 927      BINDING AFFINITY PREDICTED BY RF-SCORE:    0.00 PKD
ROOT
HETATM    1  C   UNL     1     -13.297   7.250  71.434  1.00  0.00    -0.331 C  
HETATM    2  N   UNL     1     -11.895   7.642  71.462  1.00  0.00    -0.284 N  
HETATM    3 CL   UNL     1      -9.133   8.076  73.588  1.00  0.00    -0.329 Cl 
HETATM    4  C   UNL     1     -10.929   6.798  72.028  1.00  0.00    -0.238 C  
HETATM    5 CL   UNL     1      -8.360   5.909  71.793  1.00  0.00    -0.119 Cl 
HETATM    6  C   UNL     1      -9.468   7.284  72.030  1.00  0.00    -0.132 C  
HETATM    7  O   UNL     1     -11.252   5.710  72.516  1.00  0.00    -0.268 OA 
ENDROOT
BRANCH   2   8
HETATM    8  C   UNL     1     -11.579   8.895  70.900  1.00  0.00    -0.283 A  
HETATM    9  C   UNL     1     -12.249  10.039  71.342  1.00  0.00    -0.510 A  
HETATM   10  C   UNL     1     -12.061  11.246  70.669  1.00  0.00    -0.480 A  
HETATM   11  C   UNL     1     -11.196  11.304  69.573  1.00  0.00    -0.272 A  
HETATM   12  C   UNL     1     -10.690   8.963  69.824  1.00  0.00    -0.230 A  
HETATM   13  C   UNL     1     -10.507  10.170  69.148  1.00  0.00    -0.242 A  
BRANCH  11  14
HETATM   14  O   UNL     1     -11.166  12.538  68.887  1.00  0.00    -0.251 OA 
BRANCH  14  15
HETATM   15  C   UNL     1     -11.566  12.682  67.555  1.00  0.00    -0.359 C  
HETATM   16  O   UNL     1     -12.255  11.886  66.930  1.00  0.00    -0.493 OA 
BRANCH  15  17
HETATM   17  C   UNL     1     -11.037  13.914  67.018  1.00  0.00    -0.301 A  
HETATM   18  C   UNL     1     -11.180  14.484  65.765  1.00  0.00    -0.334 A  
HETATM   19  C   UNL     1     -10.442  15.691  65.774  1.00  0.00    -0.383 A  
HETATM   20  C   UNL     1      -9.897  15.794  67.031  1.00  0.00    -0.234 A  
HETATM   21  O   UNL     1     -10.250  14.727  67.794  1.00  0.00    -0.230 OA 
ENDBRANCH  15  17
ENDBRANCH  14  15
ENDBRANCH  11  14
ENDBRANCH   2   8
TORSDOF 4
ENDMDL
MODEL       85
REMARK 921   NORMALIZED FREE ENERGY PREDICTED BY IDOCK:   -4.71 KCAL/MOL
REMARK 922        TOTAL FREE ENERGY PREDICTED BY IDOCK:   -6.32 KCAL/MOL
REMARK 923 INTER-LIGAND FREE ENERGY PREDICTED BY IDOCK:   -6.16 KCAL/MOL
REMARK 924 INTRA-LIGAND FREE ENERGY PREDICTED BY IDOCK:   -0.15 KCAL/MOL
REMARK 927      BINDING AFFINITY PREDICTED BY RF-SCORE:    0.00 PKD
ROOT
HETATM    1  C   UNL     1      -9.400   4.340  69.563  1.00  0.00    -0.162 C  
HETATM    2  N   UNL     1      -9.938   5.593  70.074  1.00  0.00    -0.188 N  
HETATM    3 CL   UNL     1     -12.775   7.047  71.545  1.00  0.00    -0.422 Cl 
HETATM    4  C   UNL     1     -10.461   5.667  71.372  1.00  0.00    -0.239 C  
HETATM    5 CL   UNL     1     -10.690   7.263  73.575  1.00  0.00    -0.417 Cl 
HETATM    6  C   UNL     1     -11.021   7.024  71.840  1.00  0.00    -0.233 C  
HETATM    7  O   UNL     1     -10.478   4.671  72.103  1.00  0.00    -0.197 OA 
ENDROOT
BRANCH   2   8
HETATM    8  C   UNL     1      -9.902   6.698  69.200  1.00  0.00    -0.148 A  
HETATM    9  C   UNL     1      -9.213   7.854  69.575  1.00  0.00    -0.152 A  
HETATM   10  C   UNL     1      -9.323   9.002  68.791  1.00  0.00    -0.140 A  
HETATM   11  C   UNL     1     -10.103   8.980  67.632  1.00  0.00    -0.216 A  
HETATM   12  C   UNL     1     -10.656   6.669  68.024  1.00  0.00    -0.300 A  
HETATM   13  C   UNL     1     -10.769   7.819  67.243  1.00  0.00    -0.326 A  
BRANCH  11  14
HETATM   14  O   UNL     1     -10.248  10.221  66.973  1.00  0.00    -0.207 OA 
BRANCH  14  15
HETATM   15  C   UNL     1     -11.285  11.117  67.248  1.00  0.00    -0.277 C  
HETATM   16  O   UNL     1     -12.111  10.993  68.144  1.00  0.00    -0.610 OA 
BRANCH  15  17
HETATM   17  C   UNL     1     -11.244  12.213  66.310  1.00  0.00    -0.334 A  
HETATM   18  C   UNL     1     -10.173  12.794  65.652  1.00  0.00    -0.292 A  
HETATM   19  C   UNL     1     -10.697  13.839  64.855  1.00  0.00    -0.410 A  
HETATM   20  C   UNL     1     -12.055  13.834  65.065  1.00  0.00    -0.403 A  
HETATM   21  O   UNL     1     -12.399  12.855  65.941  1.00  0.00    -0.493 OA 
ENDBRANCH  15  17
ENDBRANCH  14  15
ENDBRANCH  11  14
ENDBRANCH   2   8
TORSDOF 4
ENDMDL
MODEL       86
REMARK 921   NORMALIZED FREE ENERGY PREDICTED BY IDOCK:   -4.71 KCAL/MOL
REMARK 922        TOTAL FREE ENERGY PREDICTED BY IDOCK:   -6.32 KCAL/MOL
REMARK 923 INTER-LIGAND FREE ENERGY PREDICTED BY IDOCK:   -5.84 KCAL/MOL
REMARK 924 INTRA-LIGAND FREE ENERGY PREDICTED BY IDOCK:   -0.48 KCAL/MOL
REMARK 927      BINDING AFFINITY PREDICTED BY RF-SCORE:    0.00 PKD
ROOT
HETATM    1  C   UNL     1     -11.785  15.537  69.487  1.00  0.00    -0.365 C  
HETATM    2  N   UNL     1     -11.048  15.279  68.258  1.00  0.00    -0.286 N  
HETATM    3 CL   UNL     1     -10.943  16.028  64.828  1.00  0.00    -0.456 Cl 
HETATM    4  C   UNL     1     -10.560  16.341  67.483  1.00  0.00    -0.310 C  
HETATM    5 CL   UNL     1      -8.482  17.159  65.914  1.00  0.00    -0.135 Cl 
HETATM    6  C   UNL     1      -9.799  15.991  66.190  1.00  0.00    -0.325 C  
HETATM    7  O   UNL     1     -10.750  17.512  67.828  1.00  0.00    -0.380 OA 
ENDROOT
BRANCH   2   8
HETATM    8  C   UNL     1     -10.864  13.928  67.904  1.00  0.00    -0.244 A  
HETATM    9  C   UNL     1     -11.851  13.266  67.168  1.00  0.00    -0.424 A  
HETATM   10  C   UNL     1     -11.749  11.890  66.969  1.00  0.00    -0.304 A  
HETATM   11  C   UNL     1     -10.657  11.190  67.489  1.00  0.00    -0.221 A  
HETATM   12  C   UNL     1      -9.758  13.232  68.397  1.00  0.00    -0.198 A  
HETATM   13  C   UNL     1      -9.659  11.854  68.201  1.00  0.00    -0.195 A  
BRANCH  11  14
HETATM   14  O   UNL     1     -10.706   9.787  67.338  1.00  0.00    -0.268 OA 
BRANCH  14  15
HETATM   15  C   UNL     1      -9.919   9.089  66.418  1.00  0.00    -0.300 C  
HETATM   16  O   UNL     1      -9.287   9.593  65.497  1.00  0.00    -0.210 OA 
BRANCH  15  17
HETATM   17  C   UNL     1      -9.967   7.675  66.709  1.00  0.00    -0.247 A  
HETATM   18  C   UNL     1     -11.029   6.869  67.082  1.00  0.00    -0.427 A  
HETATM   19  C   UNL     1     -10.515   5.562  67.250  1.00  0.00    -0.300 A  
HETATM   20  C   UNL     1      -9.172   5.641  66.966  1.00  0.00    -0.117 A  
HETATM   21  O   UNL     1      -8.829   6.913  66.636  1.00  0.00    -0.124 OA 
ENDBRANCH  15  17
ENDBRANCH  14  15
ENDBRANCH  11  14
ENDBRANCH   2   8
TORSDOF 4
ENDMDL
MODEL       87
REMARK 921   NORMALIZED FREE ENERGY PREDICTED BY IDOCK:   -4.70 KCAL/MOL
REMARK 922        TOTAL FREE ENERGY PREDICTED BY IDOCK:   -6.30 KCAL/MOL
REMARK 923 INTER-LIGAND FREE ENERGY PREDICTED BY IDOCK:   -5.91 KCAL/MOL
REMARK 924 INTRA-LIGAND FREE ENERGY PREDICTED BY IDOCK:   -0.39 KCAL/MOL
REMARK 927      BINDING AFFINITY PREDICTED BY RF-SCORE:    0.00 PKD
ROOT
HETATM    1  C   UNL     1     -10.564  18.082  66.186  1.00  0.00    -0.261 C  
HETATM    2  N   UNL     1     -10.626  16.934  67.080  1.00  0.00    -0.276 N  
HETATM    3 CL   UNL     1      -8.873  15.231  69.602  1.00  0.00    -0.190 Cl 
HETATM    4  C   UNL     1     -10.458  17.096  68.462  1.00  0.00    -0.377 C  
HETATM    5 CL   UNL     1     -11.289  16.216  70.908  1.00  0.00    -0.418 Cl 
HETATM    6  C   UNL     1     -10.526  15.835  69.343  1.00  0.00    -0.257 C  
HETATM    7  O   UNL     1     -10.251  18.216  68.944  1.00  0.00    -0.379 OA 
ENDROOT
BRANCH   2   8
HETATM    8  C   UNL     1     -10.856  15.680  66.480  1.00  0.00    -0.260 A  
HETATM    9  C   UNL     1     -11.953  14.913  66.881  1.00  0.00    -0.118 A  
HETATM   10  C   UNL     1     -12.082  13.605  66.416  1.00  0.00    -0.478 A  
HETATM   11  C   UNL     1     -11.127  13.080  65.541  1.00  0.00    -0.275 A  
HETATM   12  C   UNL     1      -9.919  15.165  65.582  1.00  0.00    -0.387 A  
HETATM   13  C   UNL     1     -10.046  13.854  65.119  1.00  0.00    -0.330 A  
BRANCH  11  14
HETATM   14  O   UNL     1     -11.279  11.714  65.222  1.00  0.00    -0.279 OA 
BRANCH  14  15
HETATM   15  C   UNL     1     -10.293  10.754  65.473  1.00  0.00    -0.241 C  
HETATM   16  O   UNL     1      -9.659  10.148  64.619  1.00  0.00    -0.278 OA 
BRANCH  15  17
HETATM   17  C   UNL     1     -10.137  10.577  66.898  1.00  0.00    -0.216 A  
HETATM   18  C   UNL     1      -8.995  10.537  67.679  1.00  0.00    -0.138 A  
HETATM   19  C   UNL     1      -9.416  10.331  69.014  1.00  0.00    -0.206 A  
HETATM   20  C   UNL     1     -10.788  10.264  68.974  1.00  0.00    -0.230 A  
HETATM   21  O   UNL     1     -11.236  10.413  67.701  1.00  0.00    -0.318 OA 
ENDBRANCH  15  17
ENDBRANCH  14  15
ENDBRANCH  11  14
ENDBRANCH   2   8
TORSDOF 4
ENDMDL
MODEL       88
REMARK 921   NORMALIZED FREE ENERGY PREDICTED BY IDOCK:   -4.65 KCAL/MOL
REMARK 922        TOTAL FREE ENERGY PREDICTED BY IDOCK:   -6.25 KCAL/MOL
REMARK 923 INTER-LIGAND FREE ENERGY PREDICTED BY IDOCK:   -5.93 KCAL/MOL
REMARK 924 INTRA-LIGAND FREE ENERGY PREDICTED BY IDOCK:   -0.31 KCAL/MOL
REMARK 927      BINDING AFFINITY PREDICTED BY RF-SCORE:    0.00 PKD
ROOT
HETATM    1  C   UNL     1      -8.478   7.933  74.165  1.00  0.00    -0.256 C  
HETATM    2  N   UNL     1      -9.520   7.431  73.279  1.00  0.00    -0.190 N  
HETATM    3 CL   UNL     1     -10.220   4.983  70.861  1.00  0.00    -0.298 Cl 
HETATM    4  C   UNL     1      -9.888   6.079  73.306  1.00  0.00    -0.165 C  
HETATM    5 CL   UNL     1     -11.996   4.358  73.091  1.00  0.00    -0.065 Cl 
HETATM    6  C   UNL     1     -10.990   5.619  72.333  1.00  0.00    -0.259 C  
HETATM    7  O   UNL     1      -9.334   5.290  74.079  1.00  0.00    -0.127 OA 
ENDROOT
BRANCH   2   8
HETATM    8  C   UNL     1     -10.115   8.368  72.412  1.00  0.00    -0.316 A  
HETATM    9  C   UNL     1     -11.464   8.695  72.568  1.00  0.00    -0.287 A  
HETATM   10  C   UNL     1     -12.094   9.487  71.608  1.00  0.00    -0.474 A  
HETATM   11  C   UNL     1     -11.368   9.959  70.512  1.00  0.00    -0.327 A  
HETATM   12  C   UNL     1      -9.383   8.867  71.332  1.00  0.00    -0.338 A  
HETATM   13  C   UNL     1     -10.015   9.656  70.369  1.00  0.00    -0.330 A  
BRANCH  11  14
HETATM   14  O   UNL     1     -12.120  10.649  69.537  1.00  0.00    -0.283 OA 
BRANCH  14  15
HETATM   15  C   UNL     1     -11.818  11.947  69.114  1.00  0.00    -0.311 C  
HETATM   16  O   UNL     1     -11.879  12.953  69.810  1.00  0.00    -0.312 OA 
BRANCH  15  17
HETATM   17  C   UNL     1     -11.427  11.928  67.724  1.00  0.00    -0.319 A  
HETATM   18  C   UNL     1     -11.906  12.652  66.645  1.00  0.00    -0.449 A  
HETATM   19  C   UNL     1     -11.173  12.233  65.510  1.00  0.00    -0.376 A  
HETATM   20  C   UNL     1     -10.285  11.285  65.959  1.00  0.00    -0.247 A  
HETATM   21  O   UNL     1     -10.427  11.093  67.296  1.00  0.00    -0.205 OA 
ENDBRANCH  15  17
ENDBRANCH  14  15
ENDBRANCH  11  14
ENDBRANCH   2   8
TORSDOF 4
ENDMDL
MODEL       89
REMARK 921   NORMALIZED FREE ENERGY PREDICTED BY IDOCK:   -4.63 KCAL/MOL
REMARK 922        TOTAL FREE ENERGY PREDICTED BY IDOCK:   -6.22 KCAL/MOL
REMARK 923 INTER-LIGAND FREE ENERGY PREDICTED BY IDOCK:   -5.53 KCAL/MOL
REMARK 924 INTRA-LIGAND FREE ENERGY PREDICTED BY IDOCK:   -0.68 KCAL/MOL
REMARK 927      BINDING AFFINITY PREDICTED BY RF-SCORE:    0.00 PKD
ROOT
HETATM    1  C   UNL     1      -7.539   9.194  68.799  1.00  0.00    -0.083 C  
HETATM    2  N   UNL     1      -8.900   8.679  68.759  1.00  0.00    -0.138 N  
HETATM    3 CL   UNL     1     -10.950   6.252  67.262  1.00  0.00    -0.445 Cl 
HETATM    4  C   UNL     1      -9.154   7.317  68.974  1.00  0.00    -0.133 C  
HETATM    5 CL   UNL     1     -10.901   5.544  70.092  1.00  0.00    -0.354 Cl 
HETATM    6  C   UNL     1     -10.618   6.843  68.907  1.00  0.00    -0.221 C  
HETATM    7  O   UNL     1      -8.227   6.530  69.197  1.00  0.00    -0.114 OA 
ENDROOT
BRANCH   2   8
HETATM    8  C   UNL     1      -9.921   9.613  68.494  1.00  0.00    -0.165 A  
HETATM    9  C   UNL     1     -10.150  10.033  67.181  1.00  0.00    -0.265 A  
HETATM   10  C   UNL     1     -11.038  11.081  66.941  1.00  0.00    -0.280 A  
HETATM   11  C   UNL     1     -11.701  11.689  68.010  1.00  0.00    -0.281 A  
HETATM   12  C   UNL     1     -10.609  10.201  69.558  1.00  0.00    -0.269 A  
HETATM   13  C   UNL     1     -11.494  11.253  69.318  1.00  0.00    -0.369 A  
BRANCH  11  14
HETATM   14  O   UNL     1     -12.485  12.815  67.678  1.00  0.00    -0.110 OA 
BRANCH  14  15
HETATM   15  C   UNL     1     -11.965  13.949  67.046  1.00  0.00    -0.424 C  
HETATM   16  O   UNL     1     -12.133  14.246  65.870  1.00  0.00    -0.398 OA 
BRANCH  15  17
HETATM   17  C   UNL     1     -11.190  14.720  67.989  1.00  0.00    -0.299 A  
HETATM   18  C   UNL     1      -9.820  14.815  68.162  1.00  0.00    -0.221 A  
HETATM   19  C   UNL     1      -9.601  15.707  69.238  1.00  0.00    -0.268 A  
HETATM   20  C   UNL     1     -10.846  16.112  69.657  1.00  0.00    -0.338 A  
HETATM   21  O   UNL     1     -11.815  15.523  68.908  1.00  0.00    -0.361 OA 
ENDBRANCH  15  17
ENDBRANCH  14  15
ENDBRANCH  11  14
ENDBRANCH   2   8
TORSDOF 4
ENDMDL
MODEL       90
REMARK 921   NORMALIZED FREE ENERGY PREDICTED BY IDOCK:   -4.62 KCAL/MOL
REMARK 922        TOTAL FREE ENERGY PREDICTED BY IDOCK:   -6.21 KCAL/MOL
REMARK 923 INTER-LIGAND FREE ENERGY PREDICTED BY IDOCK:   -5.69 KCAL/MOL
REMARK 924 INTRA-LIGAND FREE ENERGY PREDICTED BY IDOCK:   -0.53 KCAL/MOL
REMARK 927      BINDING AFFINITY PREDICTED BY RF-SCORE:    0.00 PKD
ROOT
HETATM    1  C   UNL     1      -8.279   9.605  64.505  1.00  0.00    -0.151 C  
HETATM    2  N   UNL     1      -9.402  10.428  64.932  1.00  0.00    -0.220 N  
HETATM    3 CL   UNL     1     -10.697  13.691  64.838  1.00  0.00    -0.373 Cl 
HETATM    4  C   UNL     1     -10.123  11.189  64.001  1.00  0.00    -0.336 C  
HETATM    5 CL   UNL     1     -12.613  12.085  63.334  1.00  0.00    -0.681 Cl 
HETATM    6  C   UNL     1     -11.291  12.043  64.528  1.00  0.00    -0.330 C  
HETATM    7  O   UNL     1      -9.816  11.177  62.804  1.00  0.00    -0.290 OA 
ENDROOT
BRANCH   2   8
HETATM    8  C   UNL     1      -9.707  10.414  66.307  1.00  0.00    -0.205 A  
HETATM    9  C   UNL     1      -9.023  11.269  67.176  1.00  0.00    -0.155 A  
HETATM   10  C   UNL     1      -9.200  11.133  68.552  1.00  0.00    -0.183 A  
HETATM   11  C   UNL     1     -10.070  10.159  69.048  1.00  0.00    -0.205 A  
HETATM   12  C   UNL     1     -10.600   9.462  66.804  1.00  0.00    -0.210 A  
HETATM   13  C   UNL     1     -10.774   9.324  68.182  1.00  0.00    -0.205 A  
BRANCH  11  14
HETATM   14  O   UNL     1     -10.090  10.021  70.453  1.00  0.00    -0.247 OA 
BRANCH  14  15
HETATM   15  C   UNL     1      -9.363   9.041  71.136  1.00  0.00    -0.266 C  
HETATM   16  O   UNL     1      -8.212   9.161  71.536  1.00  0.00    -0.334 OA 
BRANCH  15  17
HETATM   17  C   UNL     1     -10.173   7.856  71.295  1.00  0.00    -0.187 A  
HETATM   18  C   UNL     1      -9.808   6.525  71.399  1.00  0.00    -0.191 A  
HETATM   19  C   UNL     1     -11.002   5.778  71.530  1.00  0.00    -0.304 A  
HETATM   20  C   UNL     1     -12.028   6.694  71.505  1.00  0.00    -0.352 A  
HETATM   21  O   UNL     1     -11.539   7.954  71.365  1.00  0.00    -0.261 OA 
ENDBRANCH  15  17
ENDBRANCH  14  15
ENDBRANCH  11  14
ENDBRANCH   2   8
TORSDOF 4
ENDMDL
MODEL       91
REMARK 921   NORMALIZED FREE ENERGY PREDICTED BY IDOCK:   -4.61 KCAL/MOL
REMARK 922        TOTAL FREE ENERGY PREDICTED BY IDOCK:   -6.20 KCAL/MOL
REMARK 923 INTER-LIGAND FREE ENERGY PREDICTED BY IDOCK:   -6.07 KCAL/MOL
REMARK 924 INTRA-LIGAND FREE ENERGY PREDICTED BY IDOCK:   -0.13 KCAL/MOL
REMARK 927      BINDING AFFINITY PREDICTED BY RF-SCORE:    0.00 PKD
ROOT
HETATM    1  C   UNL     1     -12.710  10.467  71.482  1.00  0.00    -0.459 C  
HETATM    2  N   UNL     1     -11.690  10.495  70.442  1.00  0.00    -0.317 N  
HETATM    3 CL   UNL     1      -8.222  10.577  69.900  1.00  0.00     0.034 Cl 
HETATM    4  C   UNL     1     -10.660   9.544  70.427  1.00  0.00    -0.276 C  
HETATM    5 CL   UNL     1      -9.087   8.014  68.805  1.00  0.00    -0.144 Cl 
HETATM    6  C   UNL     1      -9.613   9.642  69.302  1.00  0.00    -0.185 C  
HETATM    7  O   UNL     1     -10.598   8.669  71.298  1.00  0.00    -0.208 OA 
ENDROOT
BRANCH   2   8
HETATM    8  C   UNL     1     -11.802  11.515  69.477  1.00  0.00    -0.351 A  
HETATM    9  C   UNL     1     -11.702  11.198  68.120  1.00  0.00    -0.304 A  
HETATM   10  C   UNL     1     -11.639  12.225  67.179  1.00  0.00    -0.423 A  
HETATM   11  C   UNL     1     -11.694  13.557  67.597  1.00  0.00    -0.363 A  
HETATM   12  C   UNL     1     -11.888  12.847  69.891  1.00  0.00    -0.373 A  
HETATM   13  C   UNL     1     -11.820  13.874  68.949  1.00  0.00    -0.393 A  
BRANCH  11  14
HETATM   14  O   UNL     1     -11.502  14.521  66.584  1.00  0.00    -0.347 OA 
BRANCH  14  15
HETATM   15  C   UNL     1     -10.453  14.464  65.662  1.00  0.00    -0.334 C  
HETATM   16  O   UNL     1     -10.546  14.081  64.503  1.00  0.00    -0.416 OA 
BRANCH  15  17
HETATM   17  C   UNL     1      -9.232  14.919  66.285  1.00  0.00    -0.265 A  
HETATM   18  C   UNL     1      -8.724  16.198  66.439  1.00  0.00    -0.360 A  
HETATM   19  C   UNL     1      -7.488  16.071  67.115  1.00  0.00    -0.253 A  
HETATM   20  C   UNL     1      -7.314  14.727  67.342  1.00  0.00    -0.185 A  
HETATM   21  O   UNL     1      -8.363  14.020  66.847  1.00  0.00    -0.147 OA 
ENDBRANCH  15  17
ENDBRANCH  14  15
ENDBRANCH  11  14
ENDBRANCH   2   8
TORSDOF 4
ENDMDL
MODEL       92
REMARK 921   NORMALIZED FREE ENERGY PREDICTED BY IDOCK:   -4.61 KCAL/MOL
REMARK 922        TOTAL FREE ENERGY PREDICTED BY IDOCK:   -6.20 KCAL/MOL
REMARK 923 INTER-LIGAND FREE ENERGY PREDICTED BY IDOCK:   -5.72 KCAL/MOL
REMARK 924 INTRA-LIGAND FREE ENERGY PREDICTED BY IDOCK:   -0.48 KCAL/MOL
REMARK 927      BINDING AFFINITY PREDICTED BY RF-SCORE:    0.00 PKD
ROOT
HETATM    1  C   UNL     1      -7.652  18.606  66.271  1.00  0.00    -0.263 C  
HETATM    2  N   UNL     1      -7.680  17.410  67.103  1.00  0.00    -0.197 N  
HETATM    3 CL   UNL     1      -5.942  14.448  67.835  1.00  0.00    -0.155 Cl 
HETATM    4  C   UNL     1      -6.578  17.071  67.901  1.00  0.00    -0.141 C  
HETATM    5 CL   UNL     1      -5.832  16.006  70.300  1.00  0.00    -0.156 Cl 
HETATM    6  C   UNL     1      -6.677  15.788  68.747  1.00  0.00    -0.119 C  
HETATM    7  O   UNL     1      -5.564  17.778  67.910  1.00  0.00    -0.140 OA 
ENDROOT
BRANCH   2   8
HETATM    8  C   UNL     1      -8.855  16.634  67.052  1.00  0.00    -0.199 A  
HETATM    9  C   UNL     1      -9.842  16.810  68.026  1.00  0.00    -0.265 A  
HETATM   10  C   UNL     1     -10.920  15.927  68.076  1.00  0.00    -0.336 A  
HETATM   11  C   UNL     1     -11.013  14.889  67.145  1.00  0.00    -0.323 A  
HETATM   12  C   UNL     1      -8.965  15.615  66.104  1.00  0.00    -0.362 A  
HETATM   13  C   UNL     1     -10.042  14.729  66.157  1.00  0.00    -0.312 A  
BRANCH  11  14
HETATM   14  O   UNL     1     -12.072  13.980  67.352  1.00  0.00    -0.402 OA 
BRANCH  14  15
HETATM   15  C   UNL     1     -11.877  12.612  67.566  1.00  0.00    -0.334 C  
HETATM   16  O   UNL     1     -11.570  11.796  66.706  1.00  0.00    -0.489 OA 
BRANCH  15  17
HETATM   17  C   UNL     1     -12.099  12.300  68.958  1.00  0.00    -0.145 A  
HETATM   18  C   UNL     1     -12.080  11.085  69.621  1.00  0.00    -0.411 A  
HETATM   19  C   UNL     1     -12.374  11.352  70.979  1.00  0.00    -0.448 A  
HETATM   20  C   UNL     1     -12.549  12.712  71.071  1.00  0.00    -0.262 A  
HETATM   21  O   UNL     1     -12.384  13.297  69.856  1.00  0.00    -0.259 OA 
ENDBRANCH  15  17
ENDBRANCH  14  15
ENDBRANCH  11  14
ENDBRANCH   2   8
TORSDOF 4
ENDMDL
MODEL       93
REMARK 921   NORMALIZED FREE ENERGY PREDICTED BY IDOCK:   -4.59 KCAL/MOL
REMARK 922        TOTAL FREE ENERGY PREDICTED BY IDOCK:   -6.18 KCAL/MOL
REMARK 923 INTER-LIGAND FREE ENERGY PREDICTED BY IDOCK:   -5.85 KCAL/MOL
REMARK 924 INTRA-LIGAND FREE ENERGY PREDICTED BY IDOCK:   -0.33 KCAL/MOL
REMARK 927      BINDING AFFINITY PREDICTED BY RF-SCORE:    0.00 PKD
ROOT
HETATM    1  C   UNL     1     -11.278  13.357  64.482  1.00  0.00    -0.372 C  
HETATM    2  N   UNL     1     -10.950  13.657  65.870  1.00  0.00    -0.281 N  
HETATM    3 CL   UNL     1     -12.349  14.104  69.060  1.00  0.00    -0.261 Cl 
HETATM    4  C   UNL     1     -11.372  12.808  66.902  1.00  0.00    -0.321 C  
HETATM    5 CL   UNL     1     -10.666  11.734  69.309  1.00  0.00    -0.173 Cl 
HETATM    6  C   UNL     1     -10.997  13.195  68.344  1.00  0.00    -0.262 C  
HETATM    7  O   UNL     1     -12.033  11.793  66.652  1.00  0.00    -0.561 OA 
ENDROOT
BRANCH   2   8
HETATM    8  C   UNL     1     -10.203  14.829  66.102  1.00  0.00    -0.297 A  
HETATM    9  C   UNL     1      -8.860  14.730  66.477  1.00  0.00    -0.223 A  
HETATM   10  C   UNL     1      -8.173  15.876  66.873  1.00  0.00    -0.283 A  
HETATM   11  C   UNL     1      -8.824  17.112  66.874  1.00  0.00    -0.235 A  
HETATM   12  C   UNL     1     -10.843  16.070  66.074  1.00  0.00    -0.190 A  
HETATM   13  C   UNL     1     -10.156  17.216  66.475  1.00  0.00    -0.313 A  
BRANCH  11  14
HETATM   14  O   UNL     1      -8.082  18.190  67.404  1.00  0.00    -0.224 OA 
BRANCH  14  15
HETATM   15  C   UNL     1      -8.082  19.470  66.840  1.00  0.00    -0.282 C  
HETATM   16  O   UNL     1      -8.819  20.391  67.170  1.00  0.00    -0.348 OA 
BRANCH  15  17
HETATM   17  C   UNL     1      -7.084  19.544  65.799  1.00  0.00    -0.298 A  
HETATM   18  C   UNL     1      -6.820  20.541  64.877  1.00  0.00    -0.193 A  
HETATM   19  C   UNL     1      -5.738  20.092  64.083  1.00  0.00    -0.293 A  
HETATM   20  C   UNL     1      -5.399  18.851  64.568  1.00  0.00    -0.227 A  
HETATM   21  O   UNL     1      -6.205  18.509  65.607  1.00  0.00    -0.212 OA 
ENDBRANCH  15  17
ENDBRANCH  14  15
ENDBRANCH  11  14
ENDBRANCH   2   8
TORSDOF 4
ENDMDL
MODEL       94
REMARK 921   NORMALIZED FREE ENERGY PREDICTED BY IDOCK:   -4.59 KCAL/MOL
REMARK 922        TOTAL FREE ENERGY PREDICTED BY IDOCK:   -6.17 KCAL/MOL
REMARK 923 INTER-LIGAND FREE ENERGY PREDICTED BY IDOCK:   -5.71 KCAL/MOL
REMARK 924 INTRA-LIGAND FREE ENERGY PREDICTED BY IDOCK:   -0.46 KCAL/MOL
REMARK 927      BINDING AFFINITY PREDICTED BY RF-SCORE:    0.00 PKD
ROOT
HETATM    1  C   UNL     1      -8.706   5.702  68.970  1.00  0.00    -0.104 C  
HETATM    2  N   UNL     1      -9.475   6.740  69.643  1.00  0.00    -0.147 N  
HETATM    3 CL   UNL     1     -12.615   7.460  71.039  1.00  0.00    -0.305 Cl 
HETATM    4  C   UNL     1     -10.105   6.480  70.868  1.00  0.00    -0.185 C  
HETATM    5 CL   UNL     1     -10.760   7.555  73.289  1.00  0.00    -0.444 Cl 
HETATM    6  C   UNL     1     -10.909   7.623  71.515  1.00  0.00    -0.227 C  
HETATM    7  O   UNL     1     -10.023   5.365  71.395  1.00  0.00    -0.170 OA 
ENDROOT
BRANCH   2   8
HETATM    8  C   UNL     1      -9.545   7.991  68.998  1.00  0.00    -0.156 A  
HETATM    9  C   UNL     1      -8.801   9.066  69.492  1.00  0.00    -0.146 A  
HETATM   10  C   UNL     1      -9.002  10.340  68.962  1.00  0.00    -0.175 A  
HETATM   11  C   UNL     1      -9.930  10.527  67.933  1.00  0.00    -0.169 A  
HETATM   12  C   UNL     1     -10.449   8.174  67.949  1.00  0.00    -0.259 A  
HETATM   13  C   UNL     1     -10.653   9.450  67.422  1.00  0.00    -0.326 A  
BRANCH  11  14
HETATM   14  O   UNL     1     -10.148  11.867  67.548  1.00  0.00    -0.191 OA 
BRANCH  14  15
HETATM   15  C   UNL     1     -11.423  12.422  67.396  1.00  0.00    -0.352 C  
HETATM   16  O   UNL     1     -12.150  12.273  66.421  1.00  0.00    -0.623 OA 
BRANCH  15  17
HETATM   17  C   UNL     1     -11.755  13.207  68.561  1.00  0.00    -0.352 A  
HETATM   18  C   UNL     1     -11.839  14.579  68.726  1.00  0.00    -0.350 A  
HETATM   19  C   UNL     1     -12.194  14.811  70.076  1.00  0.00    -0.383 A  
HETATM   20  C   UNL     1     -12.313  13.570  70.656  1.00  0.00    -0.358 A  
HETATM   21  O   UNL     1     -12.052  12.593  69.750  1.00  0.00    -0.294 OA 
ENDBRANCH  15  17
ENDBRANCH  14  15
ENDBRANCH  11  14
ENDBRANCH   2   8
TORSDOF 4
ENDMDL
MODEL       95
REMARK 921   NORMALIZED FREE ENERGY PREDICTED BY IDOCK:   -4.59 KCAL/MOL
REMARK 922        TOTAL FREE ENERGY PREDICTED BY IDOCK:   -6.17 KCAL/MOL
REMARK 923 INTER-LIGAND FREE ENERGY PREDICTED BY IDOCK:   -5.61 KCAL/MOL
REMARK 924 INTRA-LIGAND FREE ENERGY PREDICTED BY IDOCK:   -0.56 KCAL/MOL
REMARK 927      BINDING AFFINITY PREDICTED BY RF-SCORE:    0.00 PKD
ROOT
HETATM    1  C   UNL     1      -8.999   6.440  67.655  1.00  0.00    -0.113 C  
HETATM    2  N   UNL     1      -8.957   5.812  68.969  1.00  0.00    -0.117 N  
HETATM    3 CL   UNL     1      -9.471   2.776  70.655  1.00  0.00    -0.221 Cl 
HETATM    4  C   UNL     1      -8.205   4.648  69.178  1.00  0.00    -0.080 C  
HETATM    5 CL   UNL     1      -6.623   3.331  70.971  1.00  0.00    -0.030 Cl 
HETATM    6  C   UNL     1      -8.216   4.035  70.591  1.00  0.00    -0.065 C  
HETATM    7  O   UNL     1      -7.568   4.133  68.252  1.00  0.00    -0.066 OA 
ENDROOT
BRANCH   2   8
HETATM    8  C   UNL     1      -9.704   6.433  69.989  1.00  0.00    -0.165 A  
HETATM    9  C   UNL     1     -11.060   6.127  70.136  1.00  0.00    -0.448 A  
HETATM   10  C   UNL     1     -11.836   6.866  71.028  1.00  0.00    -0.411 A  
HETATM   11  C   UNL     1     -11.250   7.890  71.777  1.00  0.00    -0.260 A  
HETATM   12  C   UNL     1      -9.114   7.436  70.761  1.00  0.00    -0.151 A  
HETATM   13  C   UNL     1      -9.893   8.178  71.651  1.00  0.00    -0.242 A  
BRANCH  11  14
HETATM   14  O   UNL     1     -12.141   8.655  72.561  1.00  0.00    -0.374 OA 
BRANCH  14  15
HETATM   15  C   UNL     1     -13.300   9.244  72.047  1.00  0.00    -0.450 C  
HETATM   16  O   UNL     1     -14.409   8.725  72.023  1.00  0.00    -0.420 OA 
BRANCH  15  17
HETATM   17  C   UNL     1     -12.994  10.560  71.536  1.00  0.00    -0.460 A  
HETATM   18  C   UNL     1     -12.265  10.945  70.425  1.00  0.00    -0.453 A  
HETATM   19  C   UNL     1     -12.271  12.360  70.399  1.00  0.00    -0.370 A  
HETATM   20  C   UNL     1     -13.007  12.758  71.489  1.00  0.00    -0.292 A  
HETATM   21  O   UNL     1     -13.451  11.678  72.184  1.00  0.00    -0.423 OA 
ENDBRANCH  15  17
ENDBRANCH  14  15
ENDBRANCH  11  14
ENDBRANCH   2   8
TORSDOF 4
ENDMDL
MODEL       96
REMARK 921   NORMALIZED FREE ENERGY PREDICTED BY IDOCK:   -4.58 KCAL/MOL
REMARK 922        TOTAL FREE ENERGY PREDICTED BY IDOCK:   -6.16 KCAL/MOL
REMARK 923 INTER-LIGAND FREE ENERGY PREDICTED BY IDOCK:   -5.75 KCAL/MOL
REMARK 924 INTRA-LIGAND FREE ENERGY PREDICTED BY IDOCK:   -0.41 KCAL/MOL
REMARK 927      BINDING AFFINITY PREDICTED BY RF-SCORE:    0.00 PKD
ROOT
HETATM    1  C   UNL     1      -8.403  10.805  65.256  1.00  0.00    -0.086 C  
HETATM    2  N   UNL     1      -8.914  10.469  66.577  1.00  0.00    -0.154 N  
HETATM    3 CL   UNL     1     -10.558   7.963  68.407  1.00  0.00    -0.195 Cl 
HETATM    4  C   UNL     1      -8.527   9.281  67.211  1.00  0.00    -0.125 C  
HETATM    5 CL   UNL     1      -7.912   8.160  69.622  1.00  0.00    -0.113 Cl 
HETATM    6  C   UNL     1      -9.117   8.988  68.603  1.00  0.00    -0.137 C  
HETATM    7  O   UNL     1      -7.748   8.496  66.658  1.00  0.00    -0.088 OA 
ENDROOT
BRANCH   2   8
HETATM    8  C   UNL     1      -9.804  11.392  67.162  1.00  0.00    -0.190 A  
HETATM    9  C   UNL     1     -11.081  11.560  66.619  1.00  0.00    -0.355 A  
HETATM   10  C   UNL     1     -11.894  12.591  67.088  1.00  0.00    -0.386 A  
HETATM   11  C   UNL     1     -11.435  13.432  68.104  1.00  0.00    -0.304 A  
HETATM   12  C   UNL     1      -9.359  12.214  68.200  1.00  0.00    -0.204 A  
HETATM   13  C   UNL     1     -10.172  13.249  68.665  1.00  0.00    -0.178 A  
BRANCH  11  14
HETATM   14  O   UNL     1     -12.281  14.516  68.425  1.00  0.00    -0.251 OA 
BRANCH  14  15
HETATM   15  C   UNL     1     -11.842  15.653  69.110  1.00  0.00    -0.362 C  
HETATM   16  O   UNL     1     -11.224  16.587  68.613  1.00  0.00    -0.353 OA 
BRANCH  15  17
HETATM   17  C   UNL     1     -12.220  15.561  70.500  1.00  0.00    -0.404 A  
HETATM   18  C   UNL     1     -13.112  14.715  71.135  1.00  0.00    -0.428 A  
HETATM   19  C   UNL     1     -13.105  15.062  72.507  1.00  0.00    -0.480 A  
HETATM   20  C   UNL     1     -12.205  16.093  72.634  1.00  0.00    -0.532 A  
HETATM   21  O   UNL     1     -11.662  16.403  71.428  1.00  0.00    -0.425 OA 
ENDBRANCH  15  17
ENDBRANCH  14  15
ENDBRANCH  11  14
ENDBRANCH   2   8
TORSDOF 4
ENDMDL
MODEL       97
REMARK 921   NORMALIZED FREE ENERGY PREDICTED BY IDOCK:   -4.56 KCAL/MOL
REMARK 922        TOTAL FREE ENERGY PREDICTED BY IDOCK:   -6.14 KCAL/MOL
REMARK 923 INTER-LIGAND FREE ENERGY PREDICTED BY IDOCK:   -5.63 KCAL/MOL
REMARK 924 INTRA-LIGAND FREE ENERGY PREDICTED BY IDOCK:   -0.51 KCAL/MOL
REMARK 927      BINDING AFFINITY PREDICTED BY RF-SCORE:    0.00 PKD
ROOT
HETATM    1  C   UNL     1      -7.353   5.590  67.357  1.00  0.00    -0.076 C  
HETATM    2  N   UNL     1      -8.283   6.378  68.154  1.00  0.00    -0.115 N  
HETATM    3 CL   UNL     1     -11.448   6.308  69.676  1.00  0.00    -0.498 Cl 
HETATM    4  C   UNL     1      -8.803   5.870  69.353  1.00  0.00    -0.122 C  
HETATM    5 CL   UNL     1      -9.560   6.532  71.890  1.00  0.00    -0.154 Cl 
HETATM    6  C   UNL     1      -9.789   6.756  70.137  1.00  0.00    -0.177 C  
HETATM    7  O   UNL     1      -8.484   4.744  69.751  1.00  0.00    -0.074 OA 
ENDROOT
BRANCH   2   8
HETATM    8  C   UNL     1      -8.622   7.650  67.653  1.00  0.00    -0.116 A  
HETATM    9  C   UNL     1      -7.995   8.786  68.172  1.00  0.00    -0.106 A  
HETATM   10  C   UNL     1      -8.451  10.051  67.801  1.00  0.00    -0.114 A  
HETATM   11  C   UNL     1      -9.516  10.170  66.904  1.00  0.00    -0.169 A  
HETATM   12  C   UNL     1      -9.665   7.772  66.732  1.00  0.00    -0.296 A  
HETATM   13  C   UNL     1     -10.124   9.038  66.365  1.00  0.00    -0.351 A  
BRANCH  11  14
HETATM   14  O   UNL     1      -9.981  11.485  66.685  1.00  0.00    -0.201 OA 
BRANCH  14  15
HETATM   15  C   UNL     1     -11.336  11.832  66.712  1.00  0.00    -0.320 C  
HETATM   16  O   UNL     1     -12.099  11.640  67.650  1.00  0.00    -0.615 OA 
BRANCH  15  17
HETATM   17  C   UNL     1     -11.706  12.447  65.459  1.00  0.00    -0.407 A  
HETATM   18  C   UNL     1     -11.892  11.892  64.205  1.00  0.00    -0.410 A  
HETATM   19  C   UNL     1     -12.240  12.950  63.333  1.00  0.00    -0.574 A  
HETATM   20  C   UNL     1     -12.253  14.089  64.103  1.00  0.00    -0.396 A  
HETATM   21  O   UNL     1     -11.934  13.798  65.391  1.00  0.00    -0.343 OA 
ENDBRANCH  15  17
ENDBRANCH  14  15
ENDBRANCH  11  14
ENDBRANCH   2   8
TORSDOF 4
ENDMDL
MODEL       98
REMARK 921   NORMALIZED FREE ENERGY PREDICTED BY IDOCK:   -4.56 KCAL/MOL
REMARK 922        TOTAL FREE ENERGY PREDICTED BY IDOCK:   -6.14 KCAL/MOL
REMARK 923 INTER-LIGAND FREE ENERGY PREDICTED BY IDOCK:   -6.14 KCAL/MOL
REMARK 924 INTRA-LIGAND FREE ENERGY PREDICTED BY IDOCK:    0.00 KCAL/MOL
REMARK 927      BINDING AFFINITY PREDICTED BY RF-SCORE:    0.00 PKD
ROOT
HETATM    1  C   UNL     1     -12.766  12.420  71.314  1.00  0.00    -0.248 C  
HETATM    2  N   UNL     1     -11.971  12.341  70.096  1.00  0.00    -0.335 N  
HETATM    3 CL   UNL     1      -8.830  11.399  68.840  1.00  0.00    -0.073 Cl 
HETATM    4  C   UNL     1     -11.371  11.134  69.712  1.00  0.00    -0.278 C  
HETATM    5 CL   UNL     1     -10.719   9.572  67.571  1.00  0.00    -0.344 Cl 
HETATM    6  C   UNL     1     -10.537  11.130  68.418  1.00  0.00    -0.193 C  
HETATM    7  O   UNL     1     -11.504  10.117  70.402  1.00  0.00    -0.275 OA 
ENDROOT
BRANCH   2   8
HETATM    8  C   UNL     1     -11.844  13.529  69.348  1.00  0.00    -0.335 A  
HETATM    9  C   UNL     1     -12.028  13.497  67.964  1.00  0.00    -0.372 A  
HETATM   10  C   UNL     1     -11.733  14.631  67.207  1.00  0.00    -0.406 A  
HETATM   11  C   UNL     1     -11.275  15.790  67.840  1.00  0.00    -0.313 A  
HETATM   12  C   UNL     1     -11.416  14.698  69.982  1.00  0.00    -0.313 A  
HETATM   13  C   UNL     1     -11.117  15.831  69.224  1.00  0.00    -0.297 A  
BRANCH  11  14
HETATM   14  O   UNL     1     -10.891  16.841  66.979  1.00  0.00    -0.211 OA 
BRANCH  14  15
HETATM   15  C   UNL     1     -10.146  17.945  67.405  1.00  0.00    -0.340 C  
HETATM   16  O   UNL     1     -10.586  18.897  68.038  1.00  0.00    -0.375 OA 
BRANCH  15  17
HETATM   17  C   UNL     1      -8.774  17.801  66.978  1.00  0.00    -0.244 A  
HETATM   18  C   UNL     1      -7.758  17.002  67.473  1.00  0.00    -0.187 A  
HETATM   19  C   UNL     1      -6.610  17.261  66.688  1.00  0.00    -0.268 A  
HETATM   20  C   UNL     1      -6.991  18.196  65.754  1.00  0.00    -0.244 A  
HETATM   21  O   UNL     1      -8.298  18.529  65.919  1.00  0.00    -0.494 OA 
ENDBRANCH  15  17
ENDBRANCH  14  15
ENDBRANCH  11  14
ENDBRANCH   2   8
TORSDOF 4
ENDMDL
MODEL       99
REMARK 921   NORMALIZED FREE ENERGY PREDICTED BY IDOCK:   -4.56 KCAL/MOL
REMARK 922        TOTAL FREE ENERGY PREDICTED BY IDOCK:   -6.13 KCAL/MOL
REMARK 923 INTER-LIGAND FREE ENERGY PREDICTED BY IDOCK:   -5.75 KCAL/MOL
REMARK 924 INTRA-LIGAND FREE ENERGY PREDICTED BY IDOCK:   -0.38 KCAL/MOL
REMARK 927      BINDING AFFINITY PREDICTED BY RF-SCORE:    0.00 PKD
ROOT
HETATM    1  C   UNL     1     -12.762   7.119  71.604  1.00  0.00    -0.379 C  
HETATM    2  N   UNL     1     -11.364   7.390  71.294  1.00  0.00    -0.259 N  
HETATM    3 CL   UNL     1      -8.297   8.337  72.719  1.00  0.00    -0.238 Cl 
HETATM    4  C   UNL     1     -10.340   6.730  71.987  1.00  0.00    -0.196 C  
HETATM    5 CL   UNL     1      -7.857   5.625  71.734  1.00  0.00    -0.108 Cl 
HETATM    6  C   UNL     1      -8.887   7.075  71.612  1.00  0.00    -0.130 C  
HETATM    7  O   UNL     1     -10.605   5.910  72.873  1.00  0.00    -0.210 OA 
ENDROOT
BRANCH   2   8
HETATM    8  C   UNL     1     -11.115   8.337  70.282  1.00  0.00    -0.219 A  
HETATM    9  C   UNL     1     -10.777   7.903  68.997  1.00  0.00    -0.113 A  
HETATM   10  C   UNL     1     -10.364   8.835  68.046  1.00  0.00    -0.273 A  
HETATM   11  C   UNL     1     -10.308  10.191  68.379  1.00  0.00    -0.183 A  
HETATM   12  C   UNL     1     -11.088   9.697  70.603  1.00  0.00    -0.384 A  
HETATM   13  C   UNL     1     -10.670  10.628  69.652  1.00  0.00    -0.290 A  
BRANCH  11  14
HETATM   14  O   UNL     1      -9.764  11.038  67.389  1.00  0.00    -0.167 OA 
BRANCH  14  15
HETATM   15  C   UNL     1     -10.273  11.122  66.089  1.00  0.00    -0.244 C  
HETATM   16  O   UNL     1      -9.992  10.369  65.166  1.00  0.00    -0.285 OA 
BRANCH  15  17
HETATM   17  C   UNL     1     -11.181  12.241  65.994  1.00  0.00    -0.332 A  
HETATM   18  C   UNL     1     -12.128  12.551  65.033  1.00  0.00    -0.504 A  
HETATM   19  C   UNL     1     -12.732  13.768  65.427  1.00  0.00    -0.513 A  
HETATM   20  C   UNL     1     -12.127  14.129  66.607  1.00  0.00    -0.451 A  
HETATM   21  O   UNL     1     -11.189  13.213  66.961  1.00  0.00    -0.275 OA 
ENDBRANCH  15  17
ENDBRANCH  14  15
ENDBRANCH  11  14
ENDBRANCH   2   8
TORSDOF 4
ENDMDL
MODEL      100
REMARK 921   NORMALIZED FREE ENERGY PREDICTED BY IDOCK:   -4.55 KCAL/MOL
REMARK 922        TOTAL FREE ENERGY PREDICTED BY IDOCK:   -6.12 KCAL/MOL
REMARK 923 INTER-LIGAND FREE ENERGY PREDICTED BY IDOCK:   -5.85 KCAL/MOL
REMARK 924 INTRA-LIGAND FREE ENERGY PREDICTED BY IDOCK:   -0.27 KCAL/MOL
REMARK 927      BINDING AFFINITY PREDICTED BY RF-SCORE:    0.00 PKD
ROOT
HETATM    1  C   UNL     1     -12.492  10.954  70.063  1.00  0.00    -0.263 C  
HETATM    2  N   UNL     1     -12.143  12.368  70.085  1.00  0.00    -0.328 N  
HETATM    3 CL   UNL     1     -13.473  15.590  70.513  1.00  0.00    -0.167 Cl 
HETATM    4  C   UNL     1     -12.482  13.169  71.184  1.00  0.00    -0.287 C  
HETATM    5 CL   UNL     1     -11.639  15.236  72.755  1.00  0.00    -0.517 Cl 
HETATM    6  C   UNL     1     -12.089  14.658  71.130  1.00  0.00    -0.342 C  
HETATM    7  O   UNL     1     -13.084  12.691  72.151  1.00  0.00    -0.408 OA 
ENDROOT
BRANCH   2   8
HETATM    8  C   UNL     1     -11.464  12.867  68.956  1.00  0.00    -0.308 A  
HETATM    9  C   UNL     1     -10.137  12.492  68.726  1.00  0.00    -0.061 A  
HETATM   10  C   UNL     1      -9.415  13.118  67.711  1.00  0.00    -0.209 A  
HETATM   11  C   UNL     1     -10.026  14.097  66.923  1.00  0.00    -0.261 A  
HETATM   12  C   UNL     1     -12.083  13.823  68.147  1.00  0.00    -0.316 A  
HETATM   13  C   UNL     1     -11.357  14.452  67.134  1.00  0.00    -0.356 A  
BRANCH  11  14
HETATM   14  O   UNL     1      -9.179  14.754  66.005  1.00  0.00    -0.257 OA 
BRANCH  14  15
HETATM   15  C   UNL     1      -8.707  16.057  66.195  1.00  0.00    -0.313 C  
HETATM   16  O   UNL     1      -9.105  17.050  65.600  1.00  0.00    -0.500 OA 
BRANCH  15  17
HETATM   17  C   UNL     1      -7.669  16.057  67.199  1.00  0.00    -0.207 A  
HETATM   18  C   UNL     1      -7.571  16.752  68.392  1.00  0.00    -0.205 A  
HETATM   19  C   UNL     1      -6.339  16.385  68.983  1.00  0.00    -0.164 A  
HETATM   20  C   UNL     1      -5.758  15.483  68.124  1.00  0.00    -0.126 A  
HETATM   21  O   UNL     1      -6.553  15.275  67.042  1.00  0.00    -0.253 OA 
ENDBRANCH  15  17
ENDBRANCH  14  15
ENDBRANCH  11  14
ENDBRANCH   2   8
TORSDOF 4
ENDMDL
MODEL      101
REMARK 921   NORMALIZED FREE ENERGY PREDICTED BY IDOCK:   -4.54 KCAL/MOL
REMARK 922        TOTAL FREE ENERGY PREDICTED BY IDOCK:   -6.10 KCAL/MOL
REMARK 923 INTER-LIGAND FREE ENERGY PREDICTED BY IDOCK:   -5.53 KCAL/MOL
REMARK 924 INTRA-LIGAND FREE ENERGY PREDICTED BY IDOCK:   -0.57 KCAL/MOL
REMARK 927      BINDING AFFINITY PREDICTED BY RF-SCORE:    0.00 PKD
ROOT
HETATM    1  C   UNL     1     -11.793   6.884  70.492  1.00  0.00    -0.333 C  
HETATM    2  N   UNL     1     -10.484   7.070  69.880  1.00  0.00    -0.211 N  
HETATM    3 CL   UNL     1      -7.036   7.061  70.547  1.00  0.00    -0.062 Cl 
HETATM    4  C   UNL     1      -9.494   6.085  70.000  1.00  0.00    -0.156 C  
HETATM    5 CL   UNL     1      -7.444   4.841  68.697  1.00  0.00    -0.065 Cl 
HETATM    6  C   UNL     1      -8.132   6.356  69.335  1.00  0.00    -0.118 C  
HETATM    7  O   UNL     1      -9.713   5.045  70.631  1.00  0.00    -0.170 OA 
ENDROOT
BRANCH   2   8
HETATM    8  C   UNL     1     -10.282   8.275  69.179  1.00  0.00    -0.218 A  
HETATM    9  C   UNL     1      -9.971   9.441  69.884  1.00  0.00    -0.237 A  
HETATM   10  C   UNL     1      -9.942  10.662  69.211  1.00  0.00    -0.215 A  
HETATM   11  C   UNL     1     -10.204  10.707  67.840  1.00  0.00    -0.177 A  
HETATM   12  C   UNL     1     -10.512   8.318  67.802  1.00  0.00    -0.280 A  
HETATM   13  C   UNL     1     -10.487   9.541  67.130  1.00  0.00    -0.322 A  
BRANCH  11  14
HETATM   14  O   UNL     1     -10.269  11.999  67.275  1.00  0.00    -0.203 OA 
BRANCH  14  15
HETATM   15  C   UNL     1     -11.473  12.663  67.019  1.00  0.00    -0.346 C  
HETATM   16  O   UNL     1     -12.231  12.424  66.087  1.00  0.00    -0.635 OA 
BRANCH  15  17
HETATM   17  C   UNL     1     -11.688  13.684  68.017  1.00  0.00    -0.352 A  
HETATM   18  C   UNL     1     -12.110  13.581  69.332  1.00  0.00    -0.340 A  
HETATM   19  C   UNL     1     -12.157  14.896  69.853  1.00  0.00    -0.379 A  
HETATM   20  C   UNL     1     -11.756  15.725  68.832  1.00  0.00    -0.394 A  
HETATM   21  O   UNL     1     -11.468  15.004  67.718  1.00  0.00    -0.323 OA 
ENDBRANCH  15  17
ENDBRANCH  14  15
ENDBRANCH  11  14
ENDBRANCH   2   8
TORSDOF 4
ENDMDL
MODEL      102
REMARK 921   NORMALIZED FREE ENERGY PREDICTED BY IDOCK:   -4.53 KCAL/MOL
REMARK 922        TOTAL FREE ENERGY PREDICTED BY IDOCK:   -6.10 KCAL/MOL
REMARK 923 INTER-LIGAND FREE ENERGY PREDICTED BY IDOCK:   -5.43 KCAL/MOL
REMARK 924 INTRA-LIGAND FREE ENERGY PREDICTED BY IDOCK:   -0.67 KCAL/MOL
REMARK 927      BINDING AFFINITY PREDICTED BY RF-SCORE:    0.00 PKD
ROOT
HETATM    1  C   UNL     1     -10.657   7.751  67.106  1.00  0.00    -0.331 C  
HETATM    2  N   UNL     1      -9.907   8.957  67.429  1.00  0.00    -0.179 N  
HETATM    3 CL   UNL     1      -7.884  10.441  69.886  1.00  0.00    -0.121 Cl 
HETATM    4  C   UNL     1      -8.554   8.881  67.786  1.00  0.00    -0.125 C  
HETATM    5 CL   UNL     1      -6.138  10.131  67.569  1.00  0.00    -0.057 Cl 
HETATM    6  C   UNL     1      -7.829  10.197  68.124  1.00  0.00    -0.096 C  
HETATM    7  O   UNL     1      -7.975   7.790  67.836  1.00  0.00    -0.121 OA 
ENDROOT
BRANCH   2   8
HETATM    8  C   UNL     1     -10.614  10.174  67.365  1.00  0.00    -0.272 A  
HETATM    9  C   UNL     1     -10.586  10.929  66.190  1.00  0.00    -0.270 A  
HETATM   10  C   UNL     1     -11.139  12.209  66.184  1.00  0.00    -0.354 A  
HETATM   11  C   UNL     1     -11.729  12.717  67.344  1.00  0.00    -0.366 A  
HETATM   12  C   UNL     1     -11.232  10.672  68.515  1.00  0.00    -0.342 A  
HETATM   13  C   UNL     1     -11.781  11.955  68.510  1.00  0.00    -0.388 A  
BRANCH  11  14
HETATM   14  O   UNL     1     -12.151  14.063  67.272  1.00  0.00    -0.409 OA 
BRANCH  14  15
HETATM   15  C   UNL     1     -11.593  15.082  68.050  1.00  0.00    -0.338 C  
HETATM   16  O   UNL     1     -12.035  15.481  69.120  1.00  0.00    -0.348 OA 
BRANCH  15  17
HETATM   17  C   UNL     1     -10.416  15.605  67.397  1.00  0.00    -0.291 A  
HETATM   18  C   UNL     1     -10.207  15.972  66.079  1.00  0.00    -0.360 A  
HETATM   19  C   UNL     1      -8.865  16.410  65.980  1.00  0.00    -0.296 A  
HETATM   20  C   UNL     1      -8.333  16.293  67.243  1.00  0.00    -0.180 A  
HETATM   21  O   UNL     1      -9.262  15.809  68.108  1.00  0.00    -0.187 OA 
ENDBRANCH  15  17
ENDBRANCH  14  15
ENDBRANCH  11  14
ENDBRANCH   2   8
TORSDOF 4
ENDMDL
MODEL      103
REMARK 921   NORMALIZED FREE ENERGY PREDICTED BY IDOCK:   -4.51 KCAL/MOL
REMARK 922        TOTAL FREE ENERGY PREDICTED BY IDOCK:   -6.07 KCAL/MOL
REMARK 923 INTER-LIGAND FREE ENERGY PREDICTED BY IDOCK:   -5.77 KCAL/MOL
REMARK 924 INTRA-LIGAND FREE ENERGY PREDICTED BY IDOCK:   -0.30 KCAL/MOL
REMARK 927      BINDING AFFINITY PREDICTED BY RF-SCORE:    0.00 PKD
ROOT
HETATM    1  C   UNL     1      -7.348   7.287  74.379  1.00  0.00    -0.114 C  
HETATM    2  N   UNL     1      -8.395   6.657  73.585  1.00  0.00    -0.113 N  
HETATM    3 CL   UNL     1      -8.959   4.500  70.872  1.00  0.00    -0.154 Cl 
HETATM    4  C   UNL     1      -8.412   5.267  73.403  1.00  0.00    -0.113 C  
HETATM    5 CL   UNL     1     -10.040   3.087  73.185  1.00  0.00    -0.193 Cl 
HETATM    6  C   UNL     1      -9.544   4.674  72.543  1.00  0.00    -0.139 C  
HETATM    7  O   UNL     1      -7.539   4.554  73.908  1.00  0.00    -0.086 OA 
ENDROOT
BRANCH   2   8
HETATM    8  C   UNL     1      -9.362   7.514  73.024  1.00  0.00    -0.191 A  
HETATM    9  C   UNL     1     -10.700   7.390  73.407  1.00  0.00    -0.407 A  
HETATM   10  C   UNL     1     -11.677   8.117  72.728  1.00  0.00    -0.334 A  
HETATM   11  C   UNL     1     -11.310   8.972  71.686  1.00  0.00    -0.360 A  
HETATM   12  C   UNL     1      -8.993   8.393  72.003  1.00  0.00    -0.290 A  
HETATM   13  C   UNL     1      -9.972   9.116  71.321  1.00  0.00    -0.373 A  
BRANCH  11  14
HETATM   14  O   UNL     1     -12.379   9.570  70.984  1.00  0.00    -0.300 OA 
BRANCH  14  15
HETATM   15  C   UNL     1     -12.724  10.918  71.119  1.00  0.00    -0.429 C  
HETATM   16  O   UNL     1     -13.333  11.404  72.064  1.00  0.00    -0.467 OA 
BRANCH  15  17
HETATM   17  C   UNL     1     -12.262  11.657  69.968  1.00  0.00    -0.263 A  
HETATM   18  C   UNL     1     -11.742  12.937  69.870  1.00  0.00    -0.324 A  
HETATM   19  C   UNL     1     -11.460  13.164  68.502  1.00  0.00    -0.338 A  
HETATM   20  C   UNL     1     -11.815  12.010  67.844  1.00  0.00    -0.250 A  
HETATM   21  O   UNL     1     -12.299  11.091  68.719  1.00  0.00    -0.533 OA 
ENDBRANCH  15  17
ENDBRANCH  14  15
ENDBRANCH  11  14
ENDBRANCH   2   8
TORSDOF 4
ENDMDL
MODEL      104
REMARK 921   NORMALIZED FREE ENERGY PREDICTED BY IDOCK:   -4.50 KCAL/MOL
REMARK 922        TOTAL FREE ENERGY PREDICTED BY IDOCK:   -6.07 KCAL/MOL
REMARK 923 INTER-LIGAND FREE ENERGY PREDICTED BY IDOCK:   -5.71 KCAL/MOL
REMARK 924 INTRA-LIGAND FREE ENERGY PREDICTED BY IDOCK:   -0.36 KCAL/MOL
REMARK 927      BINDING AFFINITY PREDICTED BY RF-SCORE:    0.00 PKD
ROOT
HETATM    1  C   UNL     1     -12.781   6.759  71.636  1.00  0.00    -0.312 C  
HETATM    2  N   UNL     1     -11.413   7.126  71.297  1.00  0.00    -0.270 N  
HETATM    3 CL   UNL     1      -8.375   8.241  72.661  1.00  0.00    -0.235 Cl 
HETATM    4  C   UNL     1     -10.330   6.520  71.948  1.00  0.00    -0.200 C  
HETATM    5 CL   UNL     1      -7.789   5.584  71.607  1.00  0.00    -0.110 Cl 
HETATM    6  C   UNL     1      -8.912   6.965  71.543  1.00  0.00    -0.140 C  
HETATM    7  O   UNL     1     -10.517   5.667  72.823  1.00  0.00    -0.191 OA 
ENDROOT
BRANCH   2   8
HETATM    8  C   UNL     1     -11.253   8.107  70.299  1.00  0.00    -0.182 A  
HETATM    9  C   UNL     1     -10.724   7.750  69.056  1.00  0.00    -0.119 A  
HETATM   10  C   UNL     1     -10.405   8.746  68.134  1.00  0.00    -0.266 A  
HETATM   11  C   UNL     1     -10.634  10.087  68.453  1.00  0.00    -0.220 A  
HETATM   12  C   UNL     1     -11.510   9.446  70.603  1.00  0.00    -0.344 A  
HETATM   13  C   UNL     1     -11.187  10.443  69.682  1.00  0.00    -0.333 A  
BRANCH  11  14
HETATM   14  O   UNL     1     -10.169  11.025  67.505  1.00  0.00    -0.179 OA 
BRANCH  14  15
HETATM   15  C   UNL     1     -10.997  11.625  66.552  1.00  0.00    -0.299 C  
HETATM   16  O   UNL     1     -12.048  12.207  66.790  1.00  0.00    -0.609 OA 
BRANCH  15  17
HETATM   17  C   UNL     1     -10.431  11.448  65.235  1.00  0.00    -0.283 A  
HETATM   18  C   UNL     1     -10.294  12.343  64.188  1.00  0.00    -0.409 A  
HETATM   19  C   UNL     1      -9.679  11.642  63.124  1.00  0.00    -0.385 A  
HETATM   20  C   UNL     1      -9.469  10.363  63.582  1.00  0.00    -0.306 A  
HETATM   21  O   UNL     1      -9.918  10.234  64.858  1.00  0.00    -0.317 OA 
ENDBRANCH  15  17
ENDBRANCH  14  15
ENDBRANCH  11  14
ENDBRANCH   2   8
TORSDOF 4
ENDMDL
MODEL      105
REMARK 921   NORMALIZED FREE ENERGY PREDICTED BY IDOCK:   -4.49 KCAL/MOL
REMARK 922        TOTAL FREE ENERGY PREDICTED BY IDOCK:   -6.06 KCAL/MOL
REMARK 923 INTER-LIGAND FREE ENERGY PREDICTED BY IDOCK:   -5.57 KCAL/MOL
REMARK 924 INTRA-LIGAND FREE ENERGY PREDICTED BY IDOCK:   -0.49 KCAL/MOL
REMARK 927      BINDING AFFINITY PREDICTED BY RF-SCORE:    0.00 PKD
ROOT
HETATM    1  C   UNL     1      -9.179   4.055  66.345  1.00  0.00    -0.164 C  
HETATM    2  N   UNL     1      -9.184   5.375  66.961  1.00  0.00    -0.112 N  
HETATM    3 CL   UNL     1      -7.109   8.032  67.943  1.00  0.00    -0.084 Cl 
HETATM    4  C   UNL     1      -8.588   6.466  66.315  1.00  0.00    -0.140 C  
HETATM    5 CL   UNL     1      -8.805   9.146  65.846  1.00  0.00    -0.190 Cl 
HETATM    6  C   UNL     1      -8.624   7.828  67.032  1.00  0.00    -0.129 C  
HETATM    7  O   UNL     1      -8.045   6.326  65.213  1.00  0.00    -0.120 OA 
ENDROOT
BRANCH   2   8
HETATM    8  C   UNL     1      -9.808   5.480  68.220  1.00  0.00    -0.144 A  
HETATM    9  C   UNL     1     -11.033   6.144  68.330  1.00  0.00    -0.391 A  
HETATM   10  C   UNL     1     -11.563   6.398  69.595  1.00  0.00    -0.351 A  
HETATM   11  C   UNL     1     -10.877   5.972  70.735  1.00  0.00    -0.292 A  
HETATM   12  C   UNL     1      -9.140   5.027  69.359  1.00  0.00    -0.143 A  
HETATM   13  C   UNL     1      -9.669   5.286  70.625  1.00  0.00    -0.249 A  
BRANCH  11  14
HETATM   14  O   UNL     1     -11.432   6.380  71.967  1.00  0.00    -0.275 OA 
BRANCH  14  15
HETATM   15  C   UNL     1     -11.021   7.530  72.648  1.00  0.00    -0.336 C  
HETATM   16  O   UNL     1     -10.172   7.568  73.529  1.00  0.00    -0.332 OA 
BRANCH  15  17
HETATM   17  C   UNL     1     -11.756   8.674  72.162  1.00  0.00    -0.371 A  
HETATM   18  C   UNL     1     -13.076   9.045  72.359  1.00  0.00    -0.487 A  
HETATM   19  C   UNL     1     -13.276  10.250  71.645  1.00  0.00    -0.509 A  
HETATM   20  C   UNL     1     -12.069  10.551  71.060  1.00  0.00    -0.387 A  
HETATM   21  O   UNL     1     -11.142   9.606  71.366  1.00  0.00    -0.365 OA 
ENDBRANCH  15  17
ENDBRANCH  14  15
ENDBRANCH  11  14
ENDBRANCH   2   8
TORSDOF 4
ENDMDL
MODEL      106
REMARK 921   NORMALIZED FREE ENERGY PREDICTED BY IDOCK:   -4.49 KCAL/MOL
REMARK 922        TOTAL FREE ENERGY PREDICTED BY IDOCK:   -6.05 KCAL/MOL
REMARK 923 INTER-LIGAND FREE ENERGY PREDICTED BY IDOCK:   -5.65 KCAL/MOL
REMARK 924 INTRA-LIGAND FREE ENERGY PREDICTED BY IDOCK:   -0.40 KCAL/MOL
REMARK 927      BINDING AFFINITY PREDICTED BY RF-SCORE:    0.00 PKD
ROOT
HETATM    1  C   UNL     1     -12.089  12.927  70.471  1.00  0.00    -0.282 C  
HETATM    2  N   UNL     1     -12.031  11.472  70.428  1.00  0.00    -0.367 N  
HETATM    3 CL   UNL     1     -11.409   8.621  72.382  1.00  0.00    -0.409 Cl 
HETATM    4  C   UNL     1     -12.774  10.702  71.335  1.00  0.00    -0.440 C  
HETATM    5 CL   UNL     1     -14.217   8.404  71.618  1.00  0.00    -0.501 Cl 
HETATM    6  C   UNL     1     -12.655   9.170  71.236  1.00  0.00    -0.288 C  
HETATM    7  O   UNL     1     -13.486  11.245  72.187  1.00  0.00    -0.390 OA 
ENDROOT
BRANCH   2   8
HETATM    8  C   UNL     1     -11.199  10.902  69.445  1.00  0.00    -0.272 A  
HETATM    9  C   UNL     1      -9.961  10.367  69.812  1.00  0.00    -0.167 A  
HETATM   10  C   UNL     1      -9.069   9.963  68.820  1.00  0.00    -0.147 A  
HETATM   11  C   UNL     1      -9.425  10.079  67.474  1.00  0.00    -0.148 A  
HETATM   12  C   UNL     1     -11.566  10.988  68.099  1.00  0.00    -0.345 A  
HETATM   13  C   UNL     1     -10.670  10.588  67.107  1.00  0.00    -0.323 A  
BRANCH  11  14
HETATM   14  O   UNL     1      -8.410   9.757  66.546  1.00  0.00    -0.122 OA 
BRANCH  14  15
HETATM   15  C   UNL     1      -8.620   8.929  65.439  1.00  0.00    -0.176 C  
HETATM   16  O   UNL     1      -8.845   7.726  65.485  1.00  0.00    -0.118 OA 
BRANCH  15  17
HETATM   17  C   UNL     1      -8.525   9.705  64.225  1.00  0.00    -0.181 A  
HETATM   18  C   UNL     1      -9.479  10.458  63.562  1.00  0.00    -0.356 A  
HETATM   19  C   UNL     1      -8.852  11.002  62.417  1.00  0.00    -0.358 A  
HETATM   20  C   UNL     1      -7.551  10.559  62.449  1.00  0.00    -0.146 A  
HETATM   21  O   UNL     1      -7.341   9.775  63.538  1.00  0.00    -0.114 OA 
ENDBRANCH  15  17
ENDBRANCH  14  15
ENDBRANCH  11  14
ENDBRANCH   2   8
TORSDOF 4
ENDMDL
MODEL      107
REMARK 921   NORMALIZED FREE ENERGY PREDICTED BY IDOCK:   -4.49 KCAL/MOL
REMARK 922        TOTAL FREE ENERGY PREDICTED BY IDOCK:   -6.05 KCAL/MOL
REMARK 923 INTER-LIGAND FREE ENERGY PREDICTED BY IDOCK:   -5.51 KCAL/MOL
REMARK 924 INTRA-LIGAND FREE ENERGY PREDICTED BY IDOCK:   -0.53 KCAL/MOL
REMARK 927      BINDING AFFINITY PREDICTED BY RF-SCORE:    0.00 PKD
ROOT
HETATM    1  C   UNL     1      -9.298   4.440  68.325  1.00  0.00    -0.147 C  
HETATM    2  N   UNL     1      -9.722   5.582  69.122  1.00  0.00    -0.144 N  
HETATM    3 CL   UNL     1     -12.396   6.866  71.002  1.00  0.00    -0.430 Cl 
HETATM    4  C   UNL     1     -10.200   5.403  70.427  1.00  0.00    -0.262 C  
HETATM    5 CL   UNL     1     -10.242   6.483  72.933  1.00  0.00    -0.197 Cl 
HETATM    6  C   UNL     1     -10.641   6.657  71.205  1.00  0.00    -0.223 C  
HETATM    7  O   UNL     1     -10.273   4.273  70.923  1.00  0.00    -0.140 OA 
ENDROOT
BRANCH   2   8
HETATM    8  C   UNL     1      -9.628   6.848  68.510  1.00  0.00    -0.131 A  
HETATM    9  C   UNL     1     -10.675   7.307  67.707  1.00  0.00    -0.267 A  
HETATM   10  C   UNL     1     -10.508   8.477  66.966  1.00  0.00    -0.362 A  
HETATM   11  C   UNL     1      -9.307   9.186  67.046  1.00  0.00    -0.148 A  
HETATM   12  C   UNL     1      -8.439   7.575  68.613  1.00  0.00    -0.129 A  
HETATM   13  C   UNL     1      -8.271   8.742  67.867  1.00  0.00    -0.111 A  
BRANCH  11  14
HETATM   14  O   UNL     1      -9.191  10.286  66.170  1.00  0.00    -0.151 OA 
BRANCH  14  15
HETATM   15  C   UNL     1      -9.584  10.242  64.829  1.00  0.00    -0.307 C  
HETATM   16  O   UNL     1      -9.136   9.478  63.982  1.00  0.00    -0.228 OA 
BRANCH  15  17
HETATM   17  C   UNL     1     -10.598  11.241  64.585  1.00  0.00    -0.327 A  
HETATM   18  C   UNL     1     -10.972  11.875  63.413  1.00  0.00    -0.470 A  
HETATM   19  C   UNL     1     -12.015  12.772  63.745  1.00  0.00    -0.585 A  
HETATM   20  C   UNL     1     -12.224  12.630  65.096  1.00  0.00    -0.481 A  
HETATM   21  O   UNL     1     -11.375  11.706  65.615  1.00  0.00    -0.274 OA 
ENDBRANCH  15  17
ENDBRANCH  14  15
ENDBRANCH  11  14
ENDBRANCH   2   8
TORSDOF 4
ENDMDL
MODEL      108
REMARK 921   NORMALIZED FREE ENERGY PREDICTED BY IDOCK:   -4.44 KCAL/MOL
REMARK 922        TOTAL FREE ENERGY PREDICTED BY IDOCK:   -5.99 KCAL/MOL
REMARK 923 INTER-LIGAND FREE ENERGY PREDICTED BY IDOCK:   -5.76 KCAL/MOL
REMARK 924 INTRA-LIGAND FREE ENERGY PREDICTED BY IDOCK:   -0.23 KCAL/MOL
REMARK 927      BINDING AFFINITY PREDICTED BY RF-SCORE:    0.00 PKD
ROOT
HETATM    1  C   UNL     1      -8.147   9.176  71.034  1.00  0.00    -0.134 C  
HETATM    2  N   UNL     1      -9.441   8.586  70.716  1.00  0.00    -0.168 N  
HETATM    3 CL   UNL     1     -10.992   5.654  69.564  1.00  0.00    -0.364 Cl 
HETATM    4  C   UNL     1      -9.832   7.371  71.295  1.00  0.00    -0.176 C  
HETATM    5 CL   UNL     1     -11.956   5.983  72.299  1.00  0.00    -0.332 Cl 
HETATM    6  C   UNL     1     -11.209   6.804  70.905  1.00  0.00    -0.292 C  
HETATM    7  O   UNL     1      -9.084   6.778  72.081  1.00  0.00    -0.138 OA 
ENDROOT
BRANCH   2   8
HETATM    8  C   UNL     1     -10.252   9.297  69.810  1.00  0.00    -0.211 A  
HETATM    9  C   UNL     1     -10.117   9.071  68.437  1.00  0.00    -0.216 A  
HETATM   10  C   UNL     1     -10.793   9.893  67.537  1.00  0.00    -0.307 A  
HETATM   11  C   UNL     1     -11.611  10.921  68.014  1.00  0.00    -0.215 A  
HETATM   12  C   UNL     1     -11.095  10.305  70.285  1.00  0.00    -0.388 A  
HETATM   13  C   UNL     1     -11.767  11.131  69.383  1.00  0.00    -0.402 A  
BRANCH  11  14
HETATM   14  O   UNL     1     -12.155  11.772  67.027  1.00  0.00    -0.575 OA 
BRANCH  14  15
HETATM   15  C   UNL     1     -11.793  13.115  66.890  1.00  0.00    -0.386 C  
HETATM   16  O   UNL     1     -12.528  14.013  66.498  1.00  0.00    -0.442 OA 
BRANCH  15  17
HETATM   17  C   UNL     1     -10.412  13.289  67.274  1.00  0.00    -0.247 A  
HETATM   18  C   UNL     1      -9.849  14.035  68.296  1.00  0.00    -0.233 A  
HETATM   19  C   UNL     1      -8.448  13.856  68.214  1.00  0.00    -0.169 A  
HETATM   20  C   UNL     1      -8.234  13.007  67.154  1.00  0.00    -0.127 A  
HETATM   21  O   UNL     1      -9.414  12.656  66.579  1.00  0.00    -0.241 OA 
ENDBRANCH  15  17
ENDBRANCH  14  15
ENDBRANCH  11  14
ENDBRANCH   2   8
TORSDOF 4
ENDMDL
MODEL      109
REMARK 921   NORMALIZED FREE ENERGY PREDICTED BY IDOCK:   -4.40 KCAL/MOL
REMARK 922        TOTAL FREE ENERGY PREDICTED BY IDOCK:   -5.93 KCAL/MOL
REMARK 923 INTER-LIGAND FREE ENERGY PREDICTED BY IDOCK:   -5.35 KCAL/MOL
REMARK 924 INTRA-LIGAND FREE ENERGY PREDICTED BY IDOCK:   -0.58 KCAL/MOL
REMARK 927      BINDING AFFINITY PREDICTED BY RF-SCORE:    0.00 PKD
ROOT
HETATM    1  C   UNL     1     -11.374  14.486  70.149  1.00  0.00    -0.197 C  
HETATM    2  N   UNL     1     -11.195  14.068  68.766  1.00  0.00    -0.256 N  
HETATM    3 CL   UNL     1     -12.790  13.917  65.641  1.00  0.00    -0.538 Cl 
HETATM    4  C   UNL     1     -11.417  14.968  67.714  1.00  0.00    -0.334 C  
HETATM    5 CL   UNL     1     -10.547  15.741  65.246  1.00  0.00    -0.428 Cl 
HETATM    6  C   UNL     1     -11.217  14.452  66.277  1.00  0.00    -0.338 C  
HETATM    7  O   UNL     1     -11.771  16.130  67.944  1.00  0.00    -0.099 OA 
ENDROOT
BRANCH   2   8
HETATM    8  C   UNL     1     -10.797  12.733  68.557  1.00  0.00    -0.253 A  
HETATM    9  C   UNL     1      -9.456  12.444  68.291  1.00  0.00    -0.203 A  
HETATM   10  C   UNL     1      -9.096  11.150  67.916  1.00  0.00    -0.150 A  
HETATM   11  C   UNL     1     -10.071  10.154  67.826  1.00  0.00    -0.180 A  
HETATM   12  C   UNL     1     -11.767  11.728  68.498  1.00  0.00    -0.390 A  
HETATM   13  C   UNL     1     -11.405  10.435  68.117  1.00  0.00    -0.284 A  
BRANCH  11  14
HETATM   14  O   UNL     1      -9.627   8.912  67.324  1.00  0.00    -0.151 OA 
BRANCH  14  15
HETATM   15  C   UNL     1      -8.942   7.973  68.101  1.00  0.00    -0.135 C  
HETATM   16  O   UNL     1      -7.779   7.627  67.934  1.00  0.00    -0.110 OA 
BRANCH  15  17
HETATM   17  C   UNL     1      -9.816   7.461  69.130  1.00  0.00    -0.168 A  
HETATM   18  C   UNL     1      -9.756   7.591  70.507  1.00  0.00    -0.179 A  
HETATM   19  C   UNL     1     -10.860   6.883  71.036  1.00  0.00    -0.272 A  
HETATM   20  C   UNL     1     -11.535   6.366  69.956  1.00  0.00    -0.428 A  
HETATM   21  O   UNL     1     -10.914   6.711  68.797  1.00  0.00    -0.263 OA 
ENDBRANCH  15  17
ENDBRANCH  14  15
ENDBRANCH  11  14
ENDBRANCH   2   8
TORSDOF 4
ENDMDL
MODEL      110
REMARK 921   NORMALIZED FREE ENERGY PREDICTED BY IDOCK:   -4.35 KCAL/MOL
REMARK 922        TOTAL FREE ENERGY PREDICTED BY IDOCK:   -5.87 KCAL/MOL
REMARK 923 INTER-LIGAND FREE ENERGY PREDICTED BY IDOCK:   -5.64 KCAL/MOL
REMARK 924 INTRA-LIGAND FREE ENERGY PREDICTED BY IDOCK:   -0.24 KCAL/MOL
REMARK 927      BINDING AFFINITY PREDICTED BY RF-SCORE:    0.00 PKD
ROOT
HETATM    1  C   UNL     1      -7.355   7.749  67.489  1.00  0.00    -0.092 C  
HETATM    2  N   UNL     1      -8.436   7.759  68.465  1.00  0.00    -0.128 N  
HETATM    3 CL   UNL     1     -11.262   5.982  69.557  1.00  0.00    -0.474 Cl 
HETATM    4  C   UNL     1      -8.659   6.651  69.294  1.00  0.00    -0.131 C  
HETATM    5 CL   UNL     1      -9.404   5.884  71.805  1.00  0.00    -0.158 Cl 
HETATM    6  C   UNL     1      -9.827   6.731  70.295  1.00  0.00    -0.174 C  
HETATM    7  O   UNL     1      -7.944   5.646  69.209  1.00  0.00    -0.093 OA 
ENDROOT
BRANCH   2   8
HETATM    8  C   UNL     1      -9.226   8.925  68.518  1.00  0.00    -0.137 A  
HETATM    9  C   UNL     1      -9.314   9.647  69.711  1.00  0.00    -0.238 A  
HETATM   10  C   UNL     1     -10.228  10.695  69.812  1.00  0.00    -0.098 A  
HETATM   11  C   UNL     1     -11.031  11.026  68.718  1.00  0.00    -0.221 A  
HETATM   12  C   UNL     1     -10.008   9.277  67.415  1.00  0.00    -0.253 A  
HETATM   13  C   UNL     1     -10.925  10.323  67.518  1.00  0.00    -0.344 A  
BRANCH  11  14
HETATM   14  O   UNL     1     -12.005  12.020  68.957  1.00  0.00    -0.307 OA 
BRANCH  14  15
HETATM   15  C   UNL     1     -11.689  13.365  69.172  1.00  0.00    -0.326 C  
HETATM   16  O   UNL     1     -10.924  14.033  68.487  1.00  0.00    -0.239 OA 
BRANCH  15  17
HETATM   17  C   UNL     1     -12.395  13.851  70.334  1.00  0.00    -0.363 A  
HETATM   18  C   UNL     1     -12.748  15.139  70.698  1.00  0.00    -0.451 A  
HETATM   19  C   UNL     1     -13.420  15.047  71.940  1.00  0.00    -0.500 A  
HETATM   20  C   UNL     1     -13.446  13.710  72.261  1.00  0.00    -0.555 A  
HETATM   21  O   UNL     1     -12.831  12.977  71.297  1.00  0.00    -0.353 OA 
ENDBRANCH  15  17
ENDBRANCH  14  15
ENDBRANCH  11  14
ENDBRANCH   2   8
TORSDOF 4
ENDMDL
MODEL      111
REMARK 921   NORMALIZED FREE ENERGY PREDICTED BY IDOCK:   -4.34 KCAL/MOL
REMARK 922        TOTAL FREE ENERGY PREDICTED BY IDOCK:   -5.86 KCAL/MOL
REMARK 923 INTER-LIGAND FREE ENERGY PREDICTED BY IDOCK:   -5.29 KCAL/MOL
REMARK 924 INTRA-LIGAND FREE ENERGY PREDICTED BY IDOCK:   -0.57 KCAL/MOL
REMARK 927      BINDING AFFINITY PREDICTED BY RF-SCORE:    0.00 PKD
ROOT
HETATM    1  C   UNL     1     -11.404  10.723  68.307  1.00  0.00    -0.309 C  
HETATM    2  N   UNL     1     -10.573  11.202  67.212  1.00  0.00    -0.225 N  
HETATM    3 CL   UNL     1      -7.565  10.619  65.496  1.00  0.00    -0.116 Cl 
HETATM    4  C   UNL     1     -10.156  10.328  66.198  1.00  0.00    -0.242 C  
HETATM    5 CL   UNL     1      -9.657  10.125  63.523  1.00  0.00    -0.319 Cl 
HETATM    6  C   UNL     1      -9.271  10.905  65.078  1.00  0.00    -0.207 C  
HETATM    7  O   UNL     1     -10.484   9.137  66.219  1.00  0.00    -0.185 OA 
ENDROOT
BRANCH   2   8
HETATM    8  C   UNL     1     -10.220  12.566  67.238  1.00  0.00    -0.216 A  
HETATM    9  C   UNL     1      -9.061  12.968  67.907  1.00  0.00    -0.207 A  
HETATM   10  C   UNL     1      -8.806  14.328  68.080  1.00  0.00    -0.178 A  
HETATM   11  C   UNL     1      -9.699  15.273  67.569  1.00  0.00    -0.204 A  
HETATM   12  C   UNL     1     -11.096  13.513  66.701  1.00  0.00    -0.309 A  
HETATM   13  C   UNL     1     -10.842  14.874  66.878  1.00  0.00    -0.319 A  
BRANCH  11  14
HETATM   14  O   UNL     1      -9.416  16.617  67.899  1.00  0.00    -0.222 OA 
BRANCH  14  15
HETATM   15  C   UNL     1      -8.551  17.422  67.152  1.00  0.00    -0.219 C  
HETATM   16  O   UNL     1      -8.605  17.589  65.940  1.00  0.00    -0.528 OA 
BRANCH  15  17
HETATM   17  C   UNL     1      -7.572  18.026  68.026  1.00  0.00    -0.244 A  
HETATM   18  C   UNL     1      -7.028  19.298  68.023  1.00  0.00    -0.282 A  
HETATM   19  C   UNL     1      -6.107  19.356  69.095  1.00  0.00    -0.298 A  
HETATM   20  C   UNL     1      -6.145  18.120  69.696  1.00  0.00    -0.234 A  
HETATM   21  O   UNL     1      -7.028  17.307  69.060  1.00  0.00    -0.224 OA 
ENDBRANCH  15  17
ENDBRANCH  14  15
ENDBRANCH  11  14
ENDBRANCH   2   8
TORSDOF 4
ENDMDL
MODEL      112
REMARK 921   NORMALIZED FREE ENERGY PREDICTED BY IDOCK:   -4.33 KCAL/MOL
REMARK 922        TOTAL FREE ENERGY PREDICTED BY IDOCK:   -5.85 KCAL/MOL
REMARK 923 INTER-LIGAND FREE ENERGY PREDICTED BY IDOCK:   -5.71 KCAL/MOL
REMARK 924 INTRA-LIGAND FREE ENERGY PREDICTED BY IDOCK:   -0.14 KCAL/MOL
REMARK 927      BINDING AFFINITY PREDICTED BY RF-SCORE:    0.00 PKD
ROOT
HETATM    1  C   UNL     1      -6.336  15.894  67.346  1.00  0.00    -0.161 C  
HETATM    2  N   UNL     1      -7.222  14.783  67.666  1.00  0.00    -0.174 N  
HETATM    3 CL   UNL     1      -8.597  11.819  66.380  1.00  0.00    -0.155 Cl 
HETATM    4  C   UNL     1      -6.784  13.458  67.526  1.00  0.00    -0.140 C  
HETATM    5 CL   UNL     1      -6.924  10.958  68.610  1.00  0.00    -0.068 Cl 
HETATM    6  C   UNL     1      -7.780  12.336  67.873  1.00  0.00    -0.133 C  
HETATM    7  O   UNL     1      -5.641  13.211  67.126  1.00  0.00    -0.342 OA 
ENDROOT
BRANCH   2   8
HETATM    8  C   UNL     1      -8.516  15.117  68.110  1.00  0.00    -0.152 A  
HETATM    9  C   UNL     1      -8.741  15.352  69.469  1.00  0.00    -0.210 A  
HETATM   10  C   UNL     1     -10.048  15.511  69.929  1.00  0.00    -0.282 A  
HETATM   11  C   UNL     1     -11.115  15.452  69.029  1.00  0.00    -0.268 A  
HETATM   12  C   UNL     1      -9.582  15.089  67.207  1.00  0.00    -0.208 A  
HETATM   13  C   UNL     1     -10.889  15.244  67.670  1.00  0.00    -0.295 A  
BRANCH  11  14
HETATM   14  O   UNL     1     -12.402  15.504  69.608  1.00  0.00    -0.313 OA 
BRANCH  14  15
HETATM   15  C   UNL     1     -12.643  15.257  70.963  1.00  0.00    -0.406 C  
HETATM   16  O   UNL     1     -12.702  16.109  71.840  1.00  0.00    -0.412 OA 
BRANCH  15  17
HETATM   17  C   UNL     1     -12.804  13.838  71.178  1.00  0.00    -0.335 A  
HETATM   18  C   UNL     1     -13.376  13.148  72.233  1.00  0.00    -0.621 A  
HETATM   19  C   UNL     1     -13.260  11.769  71.935  1.00  0.00    -0.468 A  
HETATM   20  C   UNL     1     -12.631  11.695  70.715  1.00  0.00    -0.273 A  
HETATM   21  O   UNL     1     -12.352  12.939  70.246  1.00  0.00    -0.299 OA 
ENDBRANCH  15  17
ENDBRANCH  14  15
ENDBRANCH  11  14
ENDBRANCH   2   8
TORSDOF 4
ENDMDL
MODEL      113
REMARK 921   NORMALIZED FREE ENERGY PREDICTED BY IDOCK:   -4.27 KCAL/MOL
REMARK 922        TOTAL FREE ENERGY PREDICTED BY IDOCK:   -5.78 KCAL/MOL
REMARK 923 INTER-LIGAND FREE ENERGY PREDICTED BY IDOCK:   -5.20 KCAL/MOL
REMARK 924 INTRA-LIGAND FREE ENERGY PREDICTED BY IDOCK:   -0.58 KCAL/MOL
REMARK 927      BINDING AFFINITY PREDICTED BY RF-SCORE:    0.00 PKD
ROOT
HETATM    1  C   UNL     1     -11.845  13.155  69.839  1.00  0.00    -0.308 C  
HETATM    2  N   UNL     1     -11.259  13.008  68.514  1.00  0.00    -0.256 N  
HETATM    3 CL   UNL     1     -11.917  13.391  65.086  1.00  0.00    -0.381 Cl 
HETATM    4  C   UNL     1     -11.258  14.081  67.612  1.00  0.00    -0.297 C  
HETATM    5 CL   UNL     1      -9.811  15.327  65.661  1.00  0.00    -0.382 Cl 
HETATM    6  C   UNL     1     -10.629  13.847  66.225  1.00  0.00    -0.289 C  
HETATM    7  O   UNL     1     -11.757  15.167  67.924  1.00  0.00    -0.338 OA 
ENDROOT
BRANCH   2   8
HETATM    8  C   UNL     1     -10.710  11.748  68.204  1.00  0.00    -0.214 A  
HETATM    9  C   UNL     1     -11.490  10.800  67.535  1.00  0.00    -0.174 A  
HETATM   10  C   UNL     1     -11.008   9.501  67.383  1.00  0.00    -0.103 A  
HETATM   11  C   UNL     1      -9.747   9.163  67.883  1.00  0.00    -0.154 A  
HETATM   12  C   UNL     1      -9.437  11.417  68.675  1.00  0.00    -0.168 A  
HETATM   13  C   UNL     1      -8.958  10.115  68.526  1.00  0.00    -0.127 A  
BRANCH  11  14
HETATM   14  O   UNL     1      -9.400   7.798  67.786  1.00  0.00    -0.142 OA 
BRANCH  14  15
HETATM   15  C   UNL     1     -10.326   6.761  67.936  1.00  0.00    -0.194 C  
HETATM   16  O   UNL     1     -10.860   6.149  67.020  1.00  0.00    -0.313 OA 
BRANCH  15  17
HETATM   17  C   UNL     1     -10.566   6.521  69.340  1.00  0.00    -0.245 A  
HETATM   18  C   UNL     1     -11.726   6.636  70.086  1.00  0.00    -0.412 A  
HETATM   19  C   UNL     1     -11.396   6.287  71.417  1.00  0.00    -0.353 A  
HETATM   20  C   UNL     1     -10.058   5.972  71.407  1.00  0.00    -0.193 A  
HETATM   21  O   UNL     1      -9.545   6.108  70.157  1.00  0.00    -0.159 OA 
ENDBRANCH  15  17
ENDBRANCH  14  15
ENDBRANCH  11  14
ENDBRANCH   2   8
TORSDOF 4
ENDMDL
MODEL      114
REMARK 921   NORMALIZED FREE ENERGY PREDICTED BY IDOCK:   -4.27 KCAL/MOL
REMARK 922        TOTAL FREE ENERGY PREDICTED BY IDOCK:   -5.78 KCAL/MOL
REMARK 923 INTER-LIGAND FREE ENERGY PREDICTED BY IDOCK:   -5.17 KCAL/MOL
REMARK 924 INTRA-LIGAND FREE ENERGY PREDICTED BY IDOCK:   -0.61 KCAL/MOL
REMARK 927      BINDING AFFINITY PREDICTED BY RF-SCORE:    0.00 PKD
ROOT
HETATM    1  C   UNL     1     -10.179  15.080  69.770  1.00  0.00    -0.125 C  
HETATM    2  N   UNL     1     -10.323  14.571  68.412  1.00  0.00    -0.235 N  
HETATM    3 CL   UNL     1     -12.679  13.843  65.912  1.00  0.00    -0.510 Cl 
HETATM    4  C   UNL     1     -11.009  15.314  67.441  1.00  0.00    -0.321 C  
HETATM    5 CL   UNL     1     -11.049  15.992  64.798  1.00  0.00    -0.450 Cl 
HETATM    6  C   UNL     1     -11.128  14.707  66.031  1.00  0.00    -0.332 C  
HETATM    7  O   UNL     1     -11.506  16.410  67.721  1.00  0.00    -0.127 OA 
ENDROOT
BRANCH   2   8
HETATM    8  C   UNL     1      -9.745  13.314  68.146  1.00  0.00    -0.227 A  
HETATM    9  C   UNL     1      -8.475  13.246  67.566  1.00  0.00    -0.202 A  
HETATM   10  C   UNL     1      -7.979  12.012  67.146  1.00  0.00    -0.175 A  
HETATM   11  C   UNL     1      -8.746  10.857  67.323  1.00  0.00    -0.131 A  
HETATM   12  C   UNL     1     -10.496  12.154  68.351  1.00  0.00    -0.242 A  
HETATM   13  C   UNL     1     -10.001  10.921  67.926  1.00  0.00    -0.195 A  
BRANCH  11  14
HETATM   14  O   UNL     1      -8.210   9.680  66.758  1.00  0.00    -0.112 OA 
BRANCH  14  15
HETATM   15  C   UNL     1      -8.860   8.945  65.761  1.00  0.00    -0.186 C  
HETATM   16  O   UNL     1      -9.203   7.773  65.853  1.00  0.00    -0.129 OA 
BRANCH  15  17
HETATM   17  C   UNL     1      -9.061   9.776  64.597  1.00  0.00    -0.245 A  
HETATM   18  C   UNL     1      -8.210  10.071  63.545  1.00  0.00    -0.163 A  
HETATM   19  C   UNL     1      -8.911  10.943  62.680  1.00  0.00    -0.348 A  
HETATM   20  C   UNL     1     -10.150  11.126  63.247  1.00  0.00    -0.380 A  
HETATM   21  O   UNL     1     -10.253  10.424  64.405  1.00  0.00    -0.333 OA 
ENDBRANCH  15  17
ENDBRANCH  14  15
ENDBRANCH  11  14
ENDBRANCH   2   8
TORSDOF 4
ENDMDL
MODEL      115
REMARK 921   NORMALIZED FREE ENERGY PREDICTED BY IDOCK:   -4.23 KCAL/MOL
REMARK 922        TOTAL FREE ENERGY PREDICTED BY IDOCK:   -5.72 KCAL/MOL
REMARK 923 INTER-LIGAND FREE ENERGY PREDICTED BY IDOCK:   -5.32 KCAL/MOL
REMARK 924 INTRA-LIGAND FREE ENERGY PREDICTED BY IDOCK:   -0.41 KCAL/MOL
REMARK 927      BINDING AFFINITY PREDICTED BY RF-SCORE:    0.00 PKD
ROOT
HETATM    1  C   UNL     1      -6.862   9.310  68.681  1.00  0.00    -0.061 C  
HETATM    2  N   UNL     1      -8.149   8.861  69.194  1.00  0.00    -0.114 N  
HETATM    3 CL   UNL     1     -10.155   6.018  69.669  1.00  0.00    -0.224 Cl 
HETATM    4  C   UNL     1      -8.218   7.837  70.149  1.00  0.00    -0.123 C  
HETATM    5 CL   UNL     1      -9.555   6.967  72.363  1.00  0.00    -0.164 Cl 
HETATM    6  C   UNL     1      -9.614   7.409  70.638  1.00  0.00    -0.171 C  
HETATM    7  O   UNL     1      -7.189   7.296  70.569  1.00  0.00    -0.064 OA 
ENDROOT
BRANCH   2   8
HETATM    8  C   UNL     1      -9.292   9.504  68.679  1.00  0.00    -0.142 A  
HETATM    9  C   UNL     1      -9.601   9.382  67.322  1.00  0.00    -0.194 A  
HETATM   10  C   UNL     1     -10.628  10.155  66.781  1.00  0.00    -0.239 A  
HETATM   11  C   UNL     1     -11.347  11.028  67.601  1.00  0.00    -0.281 A  
HETATM   12  C   UNL     1     -10.033  10.354  69.504  1.00  0.00    -0.229 A  
HETATM   13  C   UNL     1     -11.057  11.131  68.960  1.00  0.00    -0.299 A  
BRANCH  11  14
HETATM   14  O   UNL     1     -12.283  11.852  66.938  1.00  0.00    -0.493 OA 
BRANCH  14  15
HETATM   15  C   UNL     1     -11.978  12.584  65.787  1.00  0.00    -0.420 C  
HETATM   16  O   UNL     1     -12.219  12.234  64.638  1.00  0.00    -0.411 OA 
BRANCH  15  17
HETATM   17  C   UNL     1     -11.325  13.819  66.153  1.00  0.00    -0.314 A  
HETATM   18  C   UNL     1     -11.527  14.655  67.238  1.00  0.00    -0.386 A  
HETATM   19  C   UNL     1     -10.621  15.733  67.102  1.00  0.00    -0.313 A  
HETATM   20  C   UNL     1      -9.913  15.491  65.949  1.00  0.00    -0.349 A  
HETATM   21  O   UNL     1     -10.328  14.336  65.367  1.00  0.00    -0.327 OA 
ENDBRANCH  15  17
ENDBRANCH  14  15
ENDBRANCH  11  14
ENDBRANCH   2   8
TORSDOF 4
ENDMDL
MODEL      116
REMARK 921   NORMALIZED FREE ENERGY PREDICTED BY IDOCK:   -4.22 KCAL/MOL
REMARK 922        TOTAL FREE ENERGY PREDICTED BY IDOCK:   -5.72 KCAL/MOL
REMARK 923 INTER-LIGAND FREE ENERGY PREDICTED BY IDOCK:   -5.16 KCAL/MOL
REMARK 924 INTRA-LIGAND FREE ENERGY PREDICTED BY IDOCK:   -0.56 KCAL/MOL
REMARK 927      BINDING AFFINITY PREDICTED BY RF-SCORE:    0.00 PKD
ROOT
HETATM    1  C   UNL     1      -7.798  13.128  67.113  1.00  0.00    -0.049 C  
HETATM    2  N   UNL     1      -9.224  12.942  66.885  1.00  0.00    -0.229 N  
HETATM    3 CL   UNL     1     -12.374  14.400  67.416  1.00  0.00    -0.228 Cl 
HETATM    4  C   UNL     1      -9.981  13.938  66.253  1.00  0.00    -0.306 C  
HETATM    5 CL   UNL     1     -12.039  14.383  64.517  1.00  0.00    -0.482 Cl 
HETATM    6  C   UNL     1     -11.486  13.675  66.056  1.00  0.00    -0.324 C  
HETATM    7  O   UNL     1      -9.452  14.992  65.883  1.00  0.00    -0.315 OA 
ENDROOT
BRANCH   2   8
HETATM    8  C   UNL     1      -9.781  11.727  67.332  1.00  0.00    -0.178 A  
HETATM    9  C   UNL     1     -10.190  11.603  68.662  1.00  0.00    -0.215 A  
HETATM   10  C   UNL     1     -10.578  10.354  69.146  1.00  0.00    -0.255 A  
HETATM   11  C   UNL     1     -10.572   9.246  68.295  1.00  0.00    -0.189 A  
HETATM   12  C   UNL     1      -9.806  10.625  66.474  1.00  0.00    -0.250 A  
HETATM   13  C   UNL     1     -10.190   9.374  66.961  1.00  0.00    -0.322 A  
BRANCH  11  14
HETATM   14  O   UNL     1     -10.864   8.007  68.907  1.00  0.00    -0.119 OA 
BRANCH  14  15
HETATM   15  C   UNL     1      -9.909   7.244  69.585  1.00  0.00    -0.163 C  
HETATM   16  O   UNL     1      -8.857   6.837  69.108  1.00  0.00    -0.133 OA 
BRANCH  15  17
HETATM   17  C   UNL     1     -10.352   6.998  70.937  1.00  0.00    -0.198 A  
HETATM   18  C   UNL     1     -10.624   5.809  71.592  1.00  0.00    -0.302 A  
HETATM   19  C   UNL     1     -11.034   6.145  72.904  1.00  0.00    -0.294 A  
HETATM   20  C   UNL     1     -10.982   7.517  72.979  1.00  0.00    -0.390 A  
HETATM   21  O   UNL     1     -10.570   8.044  71.797  1.00  0.00    -0.220 OA 
ENDBRANCH  15  17
ENDBRANCH  14  15
ENDBRANCH  11  14
ENDBRANCH   2   8
TORSDOF 4
ENDMDL
MODEL      117
REMARK 921   NORMALIZED FREE ENERGY PREDICTED BY IDOCK:   -4.22 KCAL/MOL
REMARK 922        TOTAL FREE ENERGY PREDICTED BY IDOCK:   -5.71 KCAL/MOL
REMARK 923 INTER-LIGAND FREE ENERGY PREDICTED BY IDOCK:   -5.95 KCAL/MOL
REMARK 924 INTRA-LIGAND FREE ENERGY PREDICTED BY IDOCK:    0.24 KCAL/MOL
REMARK 927      BINDING AFFINITY PREDICTED BY RF-SCORE:    0.00 PKD
ROOT
HETATM    1  C   UNL     1     -13.372  11.337  72.061  1.00  0.00    -0.280 C  
HETATM    2  N   UNL     1     -12.439  10.638  71.189  1.00  0.00    -0.383 N  
HETATM    3 CL   UNL     1      -9.244   9.184  71.071  1.00  0.00    -0.324 Cl 
HETATM    4  C   UNL     1     -11.887   9.408  71.574  1.00  0.00    -0.385 C  
HETATM    5 CL   UNL     1     -11.090   6.961  70.665  1.00  0.00    -0.299 Cl 
HETATM    6  C   UNL     1     -10.900   8.732  70.604  1.00  0.00    -0.232 C  
HETATM    7  O   UNL     1     -12.181   8.898  72.661  1.00  0.00    -0.293 OA 
ENDROOT
BRANCH   2   8
HETATM    8  C   UNL     1     -12.131  11.263  69.965  1.00  0.00    -0.348 A  
HETATM    9  C   UNL     1     -11.955  10.487  68.816  1.00  0.00     0.031 A  
HETATM   10  C   UNL     1     -11.483  11.086  67.649  1.00  0.00    -0.303 A  
HETATM   11  C   UNL     1     -11.207  12.455  67.633  1.00  0.00    -0.288 A  
HETATM   12  C   UNL     1     -11.884  12.638  69.937  1.00  0.00    -0.364 A  
HETATM   13  C   UNL     1     -11.407  13.236  68.770  1.00  0.00    -0.331 A  
BRANCH  11  14
HETATM   14  O   UNL     1     -10.621  12.943  66.445  1.00  0.00    -0.266 OA 
BRANCH  14  15
HETATM   15  C   UNL     1     -11.169  12.728  65.177  1.00  0.00    -0.292 C  
HETATM   16  O   UNL     1     -12.190  13.250  64.747  1.00  0.00    -0.382 OA 
BRANCH  15  17
HETATM   17  C   UNL     1     -10.353  11.788  64.446  1.00  0.00    -0.307 A  
HETATM   18  C   UNL     1      -9.166  11.167  64.794  1.00  0.00    -0.157 A  
HETATM   19  C   UNL     1      -8.792  10.349  63.702  1.00  0.00    -0.222 A  
HETATM   20  C   UNL     1      -9.773  10.511  62.752  1.00  0.00    -0.226 A  
HETATM   21  O   UNL     1     -10.723  11.377  63.191  1.00  0.00    -0.304 OA 
ENDBRANCH  15  17
ENDBRANCH  14  15
ENDBRANCH  11  14
ENDBRANCH   2   8
TORSDOF 4
ENDMDL
MODEL      118
REMARK 921   NORMALIZED FREE ENERGY PREDICTED BY IDOCK:   -4.21 KCAL/MOL
REMARK 922        TOTAL FREE ENERGY PREDICTED BY IDOCK:   -5.70 KCAL/MOL
REMARK 923 INTER-LIGAND FREE ENERGY PREDICTED BY IDOCK:   -5.76 KCAL/MOL
REMARK 924 INTRA-LIGAND FREE ENERGY PREDICTED BY IDOCK:    0.06 KCAL/MOL
REMARK 927      BINDING AFFINITY PREDICTED BY RF-SCORE:    0.00 PKD
ROOT
HETATM    1  C   UNL     1     -10.939   7.115  72.781  1.00  0.00    -0.307 C  
HETATM    2  N   UNL     1     -10.849   7.459  71.368  1.00  0.00    -0.228 N  
HETATM    3 CL   UNL     1      -8.707   7.397  68.586  1.00  0.00    -0.128 Cl 
HETATM    4  C   UNL     1     -10.469   6.496  70.423  1.00  0.00    -0.212 C  
HETATM    5 CL   UNL     1     -10.900   5.606  67.879  1.00  0.00    -0.247 Cl 
HETATM    6  C   UNL     1     -10.387   6.935  68.949  1.00  0.00    -0.189 C  
HETATM    7  O   UNL     1     -10.201   5.341  70.772  1.00  0.00    -0.220 OA 
ENDROOT
BRANCH   2   8
HETATM    8  C   UNL     1     -11.158   8.789  71.022  1.00  0.00    -0.270 A  
HETATM    9  C   UNL     1     -12.448   9.278  71.239  1.00  0.00    -0.389 A  
HETATM   10  C   UNL     1     -12.799  10.532  70.741  1.00  0.00    -0.454 A  
HETATM   11  C   UNL     1     -11.855  11.294  70.046  1.00  0.00    -0.367 A  
HETATM   12  C   UNL     1     -10.206   9.565  70.356  1.00  0.00    -0.337 A  
HETATM   13  C   UNL     1     -10.559  10.818  69.853  1.00  0.00    -0.130 A  
BRANCH  11  14
HETATM   14  O   UNL     1     -12.339  12.492  69.479  1.00  0.00    -0.116 OA 
BRANCH  14  15
HETATM   15  C   UNL     1     -12.212  13.739  70.099  1.00  0.00    -0.356 C  
HETATM   16  O   UNL     1     -12.698  14.046  71.180  1.00  0.00    -0.326 OA 
BRANCH  15  17
HETATM   17  C   UNL     1     -11.424  14.619  69.268  1.00  0.00    -0.291 A  
HETATM   18  C   UNL     1     -10.176  14.438  68.699  1.00  0.00    -0.245 A  
HETATM   19  C   UNL     1      -9.871  15.623  67.988  1.00  0.00    -0.209 A  
HETATM   20  C   UNL     1     -10.952  16.457  68.158  1.00  0.00    -0.339 A  
HETATM   21  O   UNL     1     -11.898  15.860  68.928  1.00  0.00    -0.397 OA 
ENDBRANCH  15  17
ENDBRANCH  14  15
ENDBRANCH  11  14
ENDBRANCH   2   8
TORSDOF 4
ENDMDL
MODEL      119
REMARK 921   NORMALIZED FREE ENERGY PREDICTED BY IDOCK:   -4.20 KCAL/MOL
REMARK 922        TOTAL FREE ENERGY PREDICTED BY IDOCK:   -5.69 KCAL/MOL
REMARK 923 INTER-LIGAND FREE ENERGY PREDICTED BY IDOCK:   -5.61 KCAL/MOL
REMARK 924 INTRA-LIGAND FREE ENERGY PREDICTED BY IDOCK:   -0.09 KCAL/MOL
REMARK 927      BINDING AFFINITY PREDICTED BY RF-SCORE:    0.00 PKD
ROOT
HETATM    1  C   UNL     1     -10.993  15.317  64.896  1.00  0.00    -0.430 C  
HETATM    2  N   UNL     1     -10.801  14.883  66.273  1.00  0.00    -0.325 N  
HETATM    3 CL   UNL     1      -8.559  14.997  68.974  1.00  0.00    -0.202 Cl 
HETATM    4  C   UNL     1     -10.495  15.812  67.277  1.00  0.00    -0.308 C  
HETATM    5 CL   UNL     1     -10.913  16.454  69.896  1.00  0.00    -0.361 Cl 
HETATM    6  C   UNL     1     -10.296  15.279  68.707  1.00  0.00    -0.232 C  
HETATM    7  O   UNL     1     -10.379  17.014  67.010  1.00  0.00    -0.305 OA 
ENDROOT
BRANCH   2   8
HETATM    8  C   UNL     1     -10.935  13.503  66.524  1.00  0.00    -0.291 A  
HETATM    9  C   UNL     1     -11.886  13.058  67.446  1.00  0.00    -0.411 A  
HETATM   10  C   UNL     1     -11.900  11.715  67.821  1.00  0.00    -0.247 A  
HETATM   11  C   UNL     1     -10.980  10.826  67.260  1.00  0.00    -0.297 A  
HETATM   12  C   UNL     1     -10.036  12.607  65.941  1.00  0.00    -0.276 A  
HETATM   13  C   UNL     1     -10.049  11.264  66.320  1.00  0.00    -0.271 A  
BRANCH  11  14
HETATM   14  O   UNL     1     -10.997   9.518  67.791  1.00  0.00    -0.244 OA 
BRANCH  14  15
HETATM   15  C   UNL     1      -9.843   8.846  68.207  1.00  0.00    -0.167 C  
HETATM   16  O   UNL     1      -8.872   9.367  68.742  1.00  0.00    -0.129 OA 
BRANCH  15  17
HETATM   17  C   UNL     1      -9.962   7.440  67.903  1.00  0.00    -0.165 A  
HETATM   18  C   UNL     1      -9.413   6.335  68.530  1.00  0.00    -0.123 A  
HETATM   19  C   UNL     1      -9.848   5.195  67.813  1.00  0.00    -0.196 A  
HETATM   20  C   UNL     1     -10.641   5.667  66.794  1.00  0.00    -0.304 A  
HETATM   21  O   UNL     1     -10.720   7.022  66.839  1.00  0.00    -0.324 OA 
ENDBRANCH  15  17
ENDBRANCH  14  15
ENDBRANCH  11  14
ENDBRANCH   2   8
TORSDOF 4
ENDMDL
MODEL      120
REMARK 921   NORMALIZED FREE ENERGY PREDICTED BY IDOCK:   -4.20 KCAL/MOL
REMARK 922        TOTAL FREE ENERGY PREDICTED BY IDOCK:   -5.69 KCAL/MOL
REMARK 923 INTER-LIGAND FREE ENERGY PREDICTED BY IDOCK:   -5.20 KCAL/MOL
REMARK 924 INTRA-LIGAND FREE ENERGY PREDICTED BY IDOCK:   -0.49 KCAL/MOL
REMARK 927      BINDING AFFINITY PREDICTED BY RF-SCORE:    0.00 PKD
ROOT
HETATM    1  C   UNL     1     -11.201   7.891  70.844  1.00  0.00    -0.270 C  
HETATM    2  N   UNL     1     -10.246   7.825  69.746  1.00  0.00    -0.206 N  
HETATM    3 CL   UNL     1      -6.930   6.992  68.945  1.00  0.00    -0.076 Cl 
HETATM    4  C   UNL     1      -9.554   6.637  69.473  1.00  0.00    -0.146 C  
HETATM    5 CL   UNL     1      -8.558   5.070  67.473  1.00  0.00    -0.105 Cl 
HETATM    6  C   UNL     1      -8.553   6.647  68.303  1.00  0.00    -0.119 C  
HETATM    7  O   UNL     1      -9.740   5.627  70.160  1.00  0.00    -0.159 OA 
ENDROOT
BRANCH   2   8
HETATM    8  C   UNL     1     -10.064   9.005  68.998  1.00  0.00    -0.195 A  
HETATM    9  C   UNL     1     -10.653   9.121  67.736  1.00  0.00    -0.289 A  
HETATM   10  C   UNL     1     -10.332  10.210  66.927  1.00  0.00    -0.298 A  
HETATM   11  C   UNL     1      -9.442  11.183  67.391  1.00  0.00    -0.164 A  
HETATM   12  C   UNL     1      -9.200   9.994  69.473  1.00  0.00    -0.238 A  
HETATM   13  C   UNL     1      -8.876  11.082  68.661  1.00  0.00    -0.164 A  
BRANCH  11  14
HETATM   14  O   UNL     1      -9.090  12.180  66.456  1.00  0.00    -0.208 OA 
BRANCH  14  15
HETATM   15  C   UNL     1      -9.425  13.529  66.613  1.00  0.00    -0.265 C  
HETATM   16  O   UNL     1      -8.747  14.365  67.196  1.00  0.00    -0.204 OA 
BRANCH  15  17
HETATM   17  C   UNL     1     -10.700  13.790  65.988  1.00  0.00    -0.284 A  
HETATM   18  C   UNL     1     -11.983  13.469  66.395  1.00  0.00    -0.459 A  
HETATM   19  C   UNL     1     -12.865  13.955  65.400  1.00  0.00    -0.466 A  
HETATM   20  C   UNL     1     -12.073  14.550  64.447  1.00  0.00    -0.472 A  
HETATM   21  O   UNL     1     -10.762  14.458  64.792  1.00  0.00    -0.408 OA 
ENDBRANCH  15  17
ENDBRANCH  14  15
ENDBRANCH  11  14
ENDBRANCH   2   8
TORSDOF 4
ENDMDL
MODEL      121
REMARK 921   NORMALIZED FREE ENERGY PREDICTED BY IDOCK:   -4.14 KCAL/MOL
REMARK 922        TOTAL FREE ENERGY PREDICTED BY IDOCK:   -5.62 KCAL/MOL
REMARK 923 INTER-LIGAND FREE ENERGY PREDICTED BY IDOCK:   -4.96 KCAL/MOL
REMARK 924 INTRA-LIGAND FREE ENERGY PREDICTED BY IDOCK:   -0.66 KCAL/MOL
REMARK 927      BINDING AFFINITY PREDICTED BY RF-SCORE:    0.00 PKD
ROOT
HETATM    1  C   UNL     1      -8.060   7.512  65.801  1.00  0.00    -0.127 C  
HETATM    2  N   UNL     1      -8.884   8.292  66.714  1.00  0.00    -0.134 N  
HETATM    3 CL   UNL     1      -9.037  11.327  68.474  1.00  0.00    -0.173 Cl 
HETATM    4  C   UNL     1      -9.244   9.610  66.400  1.00  0.00    -0.163 C  
HETATM    5 CL   UNL     1     -11.248  11.454  66.575  1.00  0.00    -0.328 Cl 
HETATM    6  C   UNL     1     -10.108  10.376  67.419  1.00  0.00    -0.196 C  
HETATM    7  O   UNL     1      -8.866  10.133  65.346  1.00  0.00    -0.156 OA 
ENDROOT
BRANCH   2   8
HETATM    8  C   UNL     1      -9.282   7.654  67.905  1.00  0.00    -0.136 A  
HETATM    9  C   UNL     1     -10.471   6.920  67.932  1.00  0.00    -0.262 A  
HETATM   10  C   UNL     1     -10.950   6.436  69.149  1.00  0.00    -0.416 A  
HETATM   11  C   UNL     1     -10.231   6.673  70.323  1.00  0.00    -0.188 A  
HETATM   12  C   UNL     1      -8.549   7.863  69.076  1.00  0.00    -0.135 A  
HETATM   13  C   UNL     1      -9.031   7.382  70.294  1.00  0.00    -0.147 A  
BRANCH  11  14
HETATM   14  O   UNL     1     -10.857   6.248  71.515  1.00  0.00    -0.236 OA 
BRANCH  14  15
HETATM   15  C   UNL     1     -11.084   7.095  72.604  1.00  0.00    -0.292 C  
HETATM   16  O   UNL     1     -10.388   7.161  73.610  1.00  0.00    -0.330 OA 
BRANCH  15  17
HETATM   17  C   UNL     1     -12.273   7.880  72.371  1.00  0.00    -0.247 A  
HETATM   18  C   UNL     1     -12.484   9.245  72.473  1.00  0.00    -0.210 A  
HETATM   19  C   UNL     1     -13.839   9.479  72.140  1.00  0.00    -0.376 A  
HETATM   20  C   UNL     1     -14.377   8.248  71.847  1.00  0.00    -0.476 A  
HETATM   21  O   UNL     1     -13.439   7.274  71.981  1.00  0.00    -0.232 OA 
ENDBRANCH  15  17
ENDBRANCH  14  15
ENDBRANCH  11  14
ENDBRANCH   2   8
TORSDOF 4
ENDMDL
MODEL      122
REMARK 921   NORMALIZED FREE ENERGY PREDICTED BY IDOCK:   -4.14 KCAL/MOL
REMARK 922        TOTAL FREE ENERGY PREDICTED BY IDOCK:   -5.62 KCAL/MOL
REMARK 923 INTER-LIGAND FREE ENERGY PREDICTED BY IDOCK:   -5.06 KCAL/MOL
REMARK 924 INTRA-LIGAND FREE ENERGY PREDICTED BY IDOCK:   -0.56 KCAL/MOL
REMARK 927      BINDING AFFINITY PREDICTED BY RF-SCORE:    0.00 PKD
ROOT
HETATM    1  C   UNL     1     -11.255  12.356  64.710  1.00  0.00    -0.310 C  
HETATM    2  N   UNL     1     -10.660  13.129  65.792  1.00  0.00    -0.278 N  
HETATM    3 CL   UNL     1      -8.205  15.533  66.516  1.00  0.00    -0.245 Cl 
HETATM    4  C   UNL     1     -10.576  14.526  65.708  1.00  0.00    -0.317 C  
HETATM    5 CL   UNL     1     -10.736  16.840  67.146  1.00  0.00    -0.246 Cl 
HETATM    6  C   UNL     1      -9.926  15.275  66.886  1.00  0.00    -0.239 C  
HETATM    7  O   UNL     1     -11.002  15.124  64.714  1.00  0.00    -0.399 OA 
ENDROOT
BRANCH   2   8
HETATM    8  C   UNL     1     -10.183  12.400  66.900  1.00  0.00    -0.225 A  
HETATM    9  C   UNL     1      -8.835  12.040  66.961  1.00  0.00    -0.197 A  
HETATM   10  C   UNL     1      -8.402  11.175  67.965  1.00  0.00    -0.134 A  
HETATM   11  C   UNL     1      -9.313  10.692  68.909  1.00  0.00    -0.184 A  
HETATM   12  C   UNL     1     -11.086  11.942  67.862  1.00  0.00    -0.297 A  
HETATM   13  C   UNL     1     -10.653  11.072  68.864  1.00  0.00    -0.239 A  
BRANCH  11  14
HETATM   14  O   UNL     1      -8.804   9.731  69.809  1.00  0.00    -0.193 OA 
BRANCH  14  15
HETATM   15  C   UNL     1      -8.541   8.407  69.447  1.00  0.00    -0.129 C  
HETATM   16  O   UNL     1      -7.488   7.996  68.974  1.00  0.00    -0.088 OA 
BRANCH  15  17
HETATM   17  C   UNL     1      -9.703   7.590  69.708  1.00  0.00    -0.171 A  
HETATM   18  C   UNL     1     -10.458   6.803  68.856  1.00  0.00    -0.229 A  
HETATM   19  C   UNL     1     -11.491   6.227  69.633  1.00  0.00    -0.425 A  
HETATM   20  C   UNL     1     -11.304   6.688  70.915  1.00  0.00    -0.325 A  
HETATM   21  O   UNL     1     -10.225   7.512  70.973  1.00  0.00    -0.192 OA 
ENDBRANCH  15  17
ENDBRANCH  14  15
ENDBRANCH  11  14
ENDBRANCH   2   8
TORSDOF 4
ENDMDL
MODEL      123
REMARK 921   NORMALIZED FREE ENERGY PREDICTED BY IDOCK:   -4.14 KCAL/MOL
REMARK 922        TOTAL FREE ENERGY PREDICTED BY IDOCK:   -5.62 KCAL/MOL
REMARK 923 INTER-LIGAND FREE ENERGY PREDICTED BY IDOCK:   -5.20 KCAL/MOL
REMARK 924 INTRA-LIGAND FREE ENERGY PREDICTED BY IDOCK:   -0.43 KCAL/MOL
REMARK 927      BINDING AFFINITY PREDICTED BY RF-SCORE:    0.00 PKD
ROOT
HETATM    1  C   UNL     1      -9.428   4.428  69.306  1.00  0.00    -0.179 C  
HETATM    2  N   UNL     1      -9.628   4.613  70.737  1.00  0.00    -0.167 N  
HETATM    3 CL   UNL     1     -11.242   3.269  73.551  1.00  0.00    -0.315 Cl 
HETATM    4  C   UNL     1      -9.364   3.569  71.634  1.00  0.00    -0.135 C  
HETATM    5 CL   UNL     1      -8.394   2.981  74.117  1.00  0.00    -0.069 Cl 
HETATM    6  C   UNL     1      -9.608   3.836  73.131  1.00  0.00    -0.114 C  
HETATM    7  O   UNL     1      -8.961   2.474  71.227  1.00  0.00    -0.070 OA 
ENDROOT
BRANCH   2   8
HETATM    8  C   UNL     1     -10.096   5.876  71.150  1.00  0.00    -0.198 A  
HETATM    9  C   UNL     1     -11.470   6.104  71.254  1.00  0.00    -0.311 A  
HETATM   10  C   UNL     1     -11.934   7.397  71.493  1.00  0.00    -0.337 A  
HETATM   11  C   UNL     1     -11.024   8.446  71.644  1.00  0.00    -0.278 A  
HETATM   12  C   UNL     1      -9.186   6.921  71.332  1.00  0.00    -0.156 A  
HETATM   13  C   UNL     1      -9.651   8.215  71.566  1.00  0.00    -0.226 A  
BRANCH  11  14
HETATM   14  O   UNL     1     -11.593   9.733  71.762  1.00  0.00    -0.349 OA 
BRANCH  14  15
HETATM   15  C   UNL     1     -12.654  10.176  70.967  1.00  0.00    -0.381 C  
HETATM   16  O   UNL     1     -13.832   9.879  71.124  1.00  0.00    -0.198 OA 
BRANCH  15  17
HETATM   17  C   UNL     1     -12.152  11.037  69.922  1.00  0.00    -0.361 A  
HETATM   18  C   UNL     1     -11.639  10.730  68.673  1.00  0.00    -0.342 A  
HETATM   19  C   UNL     1     -11.288  11.955  68.059  1.00  0.00    -0.352 A  
HETATM   20  C   UNL     1     -11.612  12.940  68.962  1.00  0.00    -0.322 A  
HETATM   21  O   UNL     1     -12.137  12.397  70.091  1.00  0.00    -0.335 OA 
ENDBRANCH  15  17
ENDBRANCH  14  15
ENDBRANCH  11  14
ENDBRANCH   2   8
TORSDOF 4
ENDMDL
MODEL      124
REMARK 921   NORMALIZED FREE ENERGY PREDICTED BY IDOCK:   -4.12 KCAL/MOL
REMARK 922        TOTAL FREE ENERGY PREDICTED BY IDOCK:   -5.60 KCAL/MOL
REMARK 923 INTER-LIGAND FREE ENERGY PREDICTED BY IDOCK:   -5.23 KCAL/MOL
REMARK 924 INTRA-LIGAND FREE ENERGY PREDICTED BY IDOCK:   -0.36 KCAL/MOL
REMARK 927      BINDING AFFINITY PREDICTED BY RF-SCORE:    0.00 PKD
ROOT
HETATM    1  C   UNL     1     -10.878   9.496  67.050  1.00  0.00    -0.055 C  
HETATM    2  N   UNL     1      -9.735  10.330  67.397  1.00  0.00    -0.157 N  
HETATM    3 CL   UNL     1      -7.200  10.780  69.786  1.00  0.00    -0.139 Cl 
HETATM    4  C   UNL     1      -8.480   9.754  67.641  1.00  0.00    -0.122 C  
HETATM    5 CL   UNL     1      -5.792  10.097  67.324  1.00  0.00    -0.049 Cl 
HETATM    6  C   UNL     1      -7.321  10.698  68.013  1.00  0.00    -0.088 C  
HETATM    7  O   UNL     1      -8.324   8.530  67.570  1.00  0.00    -0.125 OA 
ENDROOT
BRANCH   2   8
HETATM    8  C   UNL     1      -9.967  11.717  67.474  1.00  0.00    -0.192 A  
HETATM    9  C   UNL     1     -10.612  12.250  68.593  1.00  0.00    -0.249 A  
HETATM   10  C   UNL     1     -10.994  13.590  68.591  1.00  0.00    -0.289 A  
HETATM   11  C   UNL     1     -10.714  14.391  67.481  1.00  0.00    -0.271 A  
HETATM   12  C   UNL     1      -9.660  12.527  66.378  1.00  0.00    -0.247 A  
HETATM   13  C   UNL     1     -10.047  13.868  66.374  1.00  0.00    -0.298 A  
BRANCH  11  14
HETATM   14  O   UNL     1     -11.246  15.698  67.525  1.00  0.00    -0.317 OA 
BRANCH  14  15
HETATM   15  C   UNL     1     -10.758  16.695  68.375  1.00  0.00    -0.353 C  
HETATM   16  O   UNL     1     -10.766  16.650  69.599  1.00  0.00    -0.326 OA 
BRANCH  15  17
HETATM   17  C   UNL     1     -10.247  17.796  67.593  1.00  0.00    -0.358 A  
HETATM   18  C   UNL     1     -10.772  19.056  67.364  1.00  0.00    -0.559 A  
HETATM   19  C   UNL     1      -9.864  19.733  66.516  1.00  0.00    -0.546 A  
HETATM   20  C   UNL     1      -8.835  18.853  66.280  1.00  0.00    -0.252 A  
HETATM   21  O   UNL     1      -9.054  17.679  66.928  1.00  0.00    -0.240 OA 
ENDBRANCH  15  17
ENDBRANCH  14  15
ENDBRANCH  11  14
ENDBRANCH   2   8
TORSDOF 4
ENDMDL
MODEL      125
REMARK 921   NORMALIZED FREE ENERGY PREDICTED BY IDOCK:   -4.10 KCAL/MOL
REMARK 922        TOTAL FREE ENERGY PREDICTED BY IDOCK:   -5.56 KCAL/MOL
REMARK 923 INTER-LIGAND FREE ENERGY PREDICTED BY IDOCK:   -5.19 KCAL/MOL
REMARK 924 INTRA-LIGAND FREE ENERGY PREDICTED BY IDOCK:   -0.37 KCAL/MOL
REMARK 927      BINDING AFFINITY PREDICTED BY RF-SCORE:    0.00 PKD
ROOT
HETATM    1  C   UNL     1     -12.127  12.856  70.356  1.00  0.00    -0.306 C  
HETATM    2  N   UNL     1     -11.963  11.409  70.357  1.00  0.00    -0.362 N  
HETATM    3 CL   UNL     1     -11.044   8.682  72.370  1.00  0.00    -0.394 Cl 
HETATM    4  C   UNL     1     -12.605  10.619  71.322  1.00  0.00    -0.427 C  
HETATM    5 CL   UNL     1     -13.859   8.233  71.746  1.00  0.00    -0.418 Cl 
HETATM    6  C   UNL     1     -12.376   9.097  71.267  1.00  0.00    -0.315 C  
HETATM    7  O   UNL     1     -13.318  11.138  72.188  1.00  0.00    -0.452 OA 
ENDROOT
BRANCH   2   8
HETATM    8  C   UNL     1     -11.135  10.867  69.355  1.00  0.00    -0.260 A  
HETATM    9  C   UNL     1      -9.891  10.333  69.699  1.00  0.00    -0.230 A  
HETATM   10  C   UNL     1      -9.003   9.957  68.692  1.00  0.00    -0.128 A  
HETATM   11  C   UNL     1      -9.371  10.100  67.351  1.00  0.00    -0.148 A  
HETATM   12  C   UNL     1     -11.514  10.980  68.015  1.00  0.00    -0.365 A  
HETATM   13  C   UNL     1     -10.623  10.608  67.007  1.00  0.00    -0.317 A  
BRANCH  11  14
HETATM   14  O   UNL     1      -8.362   9.805  66.409  1.00  0.00    -0.119 OA 
BRANCH  14  15
HETATM   15  C   UNL     1      -8.481   8.793  65.452  1.00  0.00    -0.170 C  
HETATM   16  O   UNL     1      -8.631   8.968  64.249  1.00  0.00    -0.189 OA 
BRANCH  15  17
HETATM   17  C   UNL     1      -8.408   7.503  66.096  1.00  0.00    -0.138 A  
HETATM   18  C   UNL     1      -7.314   6.778  66.535  1.00  0.00    -0.074 A  
HETATM   19  C   UNL     1      -7.811   5.572  67.084  1.00  0.00    -0.101 A  
HETATM   20  C   UNL     1      -9.178   5.631  66.955  1.00  0.00    -0.117 A  
HETATM   21  O   UNL     1      -9.552   6.794  66.361  1.00  0.00    -0.163 OA 
ENDBRANCH  15  17
ENDBRANCH  14  15
ENDBRANCH  11  14
ENDBRANCH   2   8
TORSDOF 4
ENDMDL
MODEL      126
REMARK 921   NORMALIZED FREE ENERGY PREDICTED BY IDOCK:   -4.09 KCAL/MOL
REMARK 922        TOTAL FREE ENERGY PREDICTED BY IDOCK:   -5.56 KCAL/MOL
REMARK 923 INTER-LIGAND FREE ENERGY PREDICTED BY IDOCK:   -5.88 KCAL/MOL
REMARK 924 INTRA-LIGAND FREE ENERGY PREDICTED BY IDOCK:    0.33 KCAL/MOL
REMARK 927      BINDING AFFINITY PREDICTED BY RF-SCORE:    0.00 PKD
ROOT
HETATM    1  C   UNL     1     -11.895  12.557  69.636  1.00  0.00    -0.314 C  
HETATM    2  N   UNL     1     -11.108  11.385  69.279  1.00  0.00    -0.247 N  
HETATM    3 CL   UNL     1     -10.536   9.050  66.719  1.00  0.00    -0.308 Cl 
HETATM    4  C   UNL     1     -10.354  11.365  68.098  1.00  0.00    -0.188 C  
HETATM    5 CL   UNL     1      -8.018  10.502  66.981  1.00  0.00    -0.116 Cl 
HETATM    6  C   UNL     1      -9.555  10.087  67.782  1.00  0.00    -0.148 C  
HETATM    7  O   UNL     1     -10.347  12.340  67.338  1.00  0.00    -0.205 OA 
ENDROOT
BRANCH   2   8
HETATM    8  C   UNL     1     -11.155  10.298  70.174  1.00  0.00    -0.319 A  
HETATM    9  C   UNL     1     -12.354   9.985  70.820  1.00  0.00    -0.396 A  
HETATM   10  C   UNL     1     -12.358   9.024  71.830  1.00  0.00    -0.455 A  
HETATM   11  C   UNL     1     -11.171   8.372  72.175  1.00  0.00    -0.361 A  
HETATM   12  C   UNL     1      -9.976   9.622  70.498  1.00  0.00    -0.318 A  
HETATM   13  C   UNL     1      -9.980   8.664  71.513  1.00  0.00    -0.344 A  
BRANCH  11  14
HETATM   14  O   UNL     1     -11.254   7.506  73.287  1.00  0.00    -0.346 OA 
BRANCH  14  15
HETATM   15  C   UNL     1     -10.138   6.897  73.868  1.00  0.00    -0.357 C  
HETATM   16  O   UNL     1      -9.158   7.484  74.308  1.00  0.00    -0.225 OA 
BRANCH  15  17
HETATM   17  C   UNL     1     -10.308   5.463  73.864  1.00  0.00    -0.259 A  
HETATM   18  C   UNL     1     -11.277   4.674  73.269  1.00  0.00    -0.411 A  
HETATM   19  C   UNL     1     -10.971   3.331  73.592  1.00  0.00    -0.330 A  
HETATM   20  C   UNL     1      -9.831   3.374  74.359  1.00  0.00    -0.124 A  
HETATM   21  O   UNL     1      -9.419   4.658  74.529  1.00  0.00    -0.116 OA 
ENDBRANCH  15  17
ENDBRANCH  14  15
ENDBRANCH  11  14
ENDBRANCH   2   8
TORSDOF 4
ENDMDL
MODEL      127
REMARK 921   NORMALIZED FREE ENERGY PREDICTED BY IDOCK:   -4.08 KCAL/MOL
REMARK 922        TOTAL FREE ENERGY PREDICTED BY IDOCK:   -5.54 KCAL/MOL
REMARK 923 INTER-LIGAND FREE ENERGY PREDICTED BY IDOCK:   -5.51 KCAL/MOL
REMARK 924 INTRA-LIGAND FREE ENERGY PREDICTED BY IDOCK:   -0.04 KCAL/MOL
REMARK 927      BINDING AFFINITY PREDICTED BY RF-SCORE:    0.00 PKD
ROOT
HETATM    1  C   UNL     1     -10.343  12.999  64.688  1.00  0.00    -0.352 C  
HETATM    2  N   UNL     1     -10.309  12.972  66.144  1.00  0.00    -0.273 N  
HETATM    3 CL   UNL     1     -12.142  12.024  68.985  1.00  0.00    -0.283 Cl 
HETATM    4  C   UNL     1     -10.521  11.775  66.840  1.00  0.00    -0.223 C  
HETATM    5 CL   UNL     1      -9.768  10.327  69.027  1.00  0.00    -0.199 Cl 
HETATM    6  C   UNL     1     -10.481  11.826  68.379  1.00  0.00    -0.215 C  
HETATM    7  O   UNL     1     -10.744  10.722  66.231  1.00  0.00    -0.220 OA 
ENDROOT
BRANCH   2   8
HETATM    8  C   UNL     1     -10.060  14.199  66.791  1.00  0.00    -0.262 A  
HETATM    9  C   UNL     1      -9.061  14.276  67.765  1.00  0.00    -0.195 A  
HETATM   10  C   UNL     1      -8.932  15.438  68.524  1.00  0.00    -0.192 A  
HETATM   11  C   UNL     1      -9.788  16.518  68.293  1.00  0.00    -0.243 A  
HETATM   12  C   UNL     1     -10.894  15.291  66.541  1.00  0.00    -0.311 A  
HETATM   13  C   UNL     1     -10.767  16.452  67.304  1.00  0.00    -0.257 A  
BRANCH  11  14
HETATM   14  O   UNL     1      -9.657  17.600  69.191  1.00  0.00    -0.171 OA 
BRANCH  14  15
HETATM   15  C   UNL     1      -9.407  18.912  68.777  1.00  0.00    -0.336 C  
HETATM   16  O   UNL     1     -10.258  19.777  68.608  1.00  0.00    -0.445 OA 
BRANCH  15  17
HETATM   17  C   UNL     1      -7.990  19.096  68.567  1.00  0.00    -0.351 A  
HETATM   18  C   UNL     1      -7.137  18.524  67.640  1.00  0.00    -0.215 A  
HETATM   19  C   UNL     1      -5.847  19.051  67.887  1.00  0.00    -0.202 A  
HETATM   20  C   UNL     1      -5.986  19.919  68.943  1.00  0.00    -0.263 A  
HETATM   21  O   UNL     1      -7.278  19.956  69.363  1.00  0.00    -0.301 OA 
ENDBRANCH  15  17
ENDBRANCH  14  15
ENDBRANCH  11  14
ENDBRANCH   2   8
TORSDOF 4
ENDMDL
MODEL      128
REMARK 921   NORMALIZED FREE ENERGY PREDICTED BY IDOCK:   -4.08 KCAL/MOL
REMARK 922        TOTAL FREE ENERGY PREDICTED BY IDOCK:   -5.54 KCAL/MOL
REMARK 923 INTER-LIGAND FREE ENERGY PREDICTED BY IDOCK:   -5.30 KCAL/MOL
REMARK 924 INTRA-LIGAND FREE ENERGY PREDICTED BY IDOCK:   -0.24 KCAL/MOL
REMARK 927      BINDING AFFINITY PREDICTED BY RF-SCORE:    0.00 PKD
ROOT
HETATM    1  C   UNL     1      -7.284   6.259  70.073  1.00  0.00    -0.077 C  
HETATM    2  N   UNL     1      -8.445   6.858  70.715  1.00  0.00    -0.134 N  
HETATM    3 CL   UNL     1     -11.691   6.174  71.868  1.00  0.00    -0.358 Cl 
HETATM    4  C   UNL     1      -8.993   6.288  71.872  1.00  0.00    -0.139 C  
HETATM    5 CL   UNL     1     -10.175   6.851  74.267  1.00  0.00    -0.340 Cl 
HETATM    6  C   UNL     1     -10.227   6.971  72.490  1.00  0.00    -0.184 C  
HETATM    7  O   UNL     1      -8.503   5.266  72.365  1.00  0.00    -0.120 OA 
ENDROOT
BRANCH   2   8
HETATM    8  C   UNL     1      -8.972   8.017  70.112  1.00  0.00    -0.150 A  
HETATM    9  C   UNL     1     -10.021   7.904  69.197  1.00  0.00    -0.184 A  
HETATM   10  C   UNL     1     -10.424   9.026  68.473  1.00  0.00    -0.232 A  
HETATM   11  C   UNL     1      -9.789  10.253  68.681  1.00  0.00    -0.173 A  
HETATM   12  C   UNL     1      -8.359   9.252  70.341  1.00  0.00    -0.224 A  
HETATM   13  C   UNL     1      -8.759  10.373  69.614  1.00  0.00    -0.056 A  
BRANCH  11  14
HETATM   14  O   UNL     1     -10.185  11.297  67.818  1.00  0.00    -0.175 OA 
BRANCH  14  15
HETATM   15  C   UNL     1     -11.496  11.781  67.753  1.00  0.00    -0.311 C  
HETATM   16  O   UNL     1     -12.411  11.453  68.498  1.00  0.00    -0.504 OA 
BRANCH  15  17
HETATM   17  C   UNL     1     -11.614  12.723  66.666  1.00  0.00    -0.370 A  
HETATM   18  C   UNL     1     -11.986  12.532  65.346  1.00  0.00    -0.492 A  
HETATM   19  C   UNL     1     -11.923  13.795  64.713  1.00  0.00    -0.429 A  
HETATM   20  C   UNL     1     -11.523  14.687  65.680  1.00  0.00    -0.340 A  
HETATM   21  O   UNL     1     -11.334  14.051  66.865  1.00  0.00    -0.306 OA 
ENDBRANCH  15  17
ENDBRANCH  14  15
ENDBRANCH  11  14
ENDBRANCH   2   8
TORSDOF 4
ENDMDL
MODEL      129
REMARK 921   NORMALIZED FREE ENERGY PREDICTED BY IDOCK:   -4.08 KCAL/MOL
REMARK 922        TOTAL FREE ENERGY PREDICTED BY IDOCK:   -5.54 KCAL/MOL
REMARK 923 INTER-LIGAND FREE ENERGY PREDICTED BY IDOCK:   -5.11 KCAL/MOL
REMARK 924 INTRA-LIGAND FREE ENERGY PREDICTED BY IDOCK:   -0.43 KCAL/MOL
REMARK 927      BINDING AFFINITY PREDICTED BY RF-SCORE:    0.00 PKD
ROOT
HETATM    1  C   UNL     1     -11.721  16.089  68.969  1.00  0.00    -0.318 C  
HETATM    2  N   UNL     1     -10.372  16.174  68.426  1.00  0.00    -0.248 N  
HETATM    3 CL   UNL     1      -8.343  17.976  66.197  1.00  0.00    -0.210 Cl 
HETATM    4  C   UNL     1      -9.657  17.378  68.479  1.00  0.00    -0.298 C  
HETATM    5 CL   UNL     1      -7.176  18.462  68.827  1.00  0.00    -0.294 Cl 
HETATM    6  C   UNL     1      -8.240  17.395  67.875  1.00  0.00    -0.225 C  
HETATM    7  O   UNL     1     -10.159  18.388  68.984  1.00  0.00    -0.379 OA 
ENDROOT
BRANCH   2   8
HETATM    8  C   UNL     1      -9.847  14.998  67.854  1.00  0.00    -0.217 A  
HETATM    9  C   UNL     1     -10.381  14.513  66.658  1.00  0.00    -0.274 A  
HETATM   10  C   UNL     1      -9.982  13.264  66.185  1.00  0.00    -0.295 A  
HETATM   11  C   UNL     1      -9.042  12.518  66.901  1.00  0.00    -0.213 A  
HETATM   12  C   UNL     1      -8.884  14.265  68.552  1.00  0.00    -0.176 A  
HETATM   13  C   UNL     1      -8.488  13.012  68.081  1.00  0.00    -0.176 A  
BRANCH  11  14
HETATM   14  O   UNL     1      -8.793  11.219  66.407  1.00  0.00    -0.172 OA 
BRANCH  14  15
HETATM   15  C   UNL     1      -9.653  10.138  66.628  1.00  0.00    -0.183 C  
HETATM   16  O   UNL     1     -10.120   9.414  65.758  1.00  0.00    -0.288 OA 
BRANCH  15  17
HETATM   17  C   UNL     1      -9.916  10.007  68.041  1.00  0.00    -0.150 A  
HETATM   18  C   UNL     1      -9.153   9.445  69.050  1.00  0.00    -0.142 A  
HETATM   19  C   UNL     1      -9.893   9.576  70.249  1.00  0.00    -0.313 A  
HETATM   20  C   UNL     1     -11.061  10.215  69.907  1.00  0.00    -0.293 A  
HETATM   21  O   UNL     1     -11.086  10.483  68.576  1.00  0.00    -0.242 OA 
ENDBRANCH  15  17
ENDBRANCH  14  15
ENDBRANCH  11  14
ENDBRANCH   2   8
TORSDOF 4
ENDMDL
MODEL      130
REMARK 921   NORMALIZED FREE ENERGY PREDICTED BY IDOCK:   -4.07 KCAL/MOL
REMARK 922        TOTAL FREE ENERGY PREDICTED BY IDOCK:   -5.54 KCAL/MOL
REMARK 923 INTER-LIGAND FREE ENERGY PREDICTED BY IDOCK:   -4.97 KCAL/MOL
REMARK 924 INTRA-LIGAND FREE ENERGY PREDICTED BY IDOCK:   -0.56 KCAL/MOL
REMARK 927      BINDING AFFINITY PREDICTED BY RF-SCORE:    0.00 PKD
ROOT
HETATM    1  C   UNL     1      -9.551   9.718  65.249  1.00  0.00    -0.300 C  
HETATM    2  N   UNL     1      -8.943   8.445  65.612  1.00  0.00    -0.166 N  
HETATM    3 CL   UNL     1      -8.166   5.246  64.390  1.00  0.00    -0.131 Cl 
HETATM    4  C   UNL     1      -7.915   7.898  64.831  1.00  0.00    -0.138 C  
HETATM    5 CL   UNL     1      -5.580   6.489  64.924  1.00  0.00    -0.028 Cl 
HETATM    6  C   UNL     1      -7.327   6.545  65.271  1.00  0.00    -0.077 C  
HETATM    7  O   UNL     1      -7.511   8.484  63.820  1.00  0.00    -0.107 OA 
ENDROOT
BRANCH   2   8
HETATM    8  C   UNL     1      -9.443   7.814  66.767  1.00  0.00    -0.197 A  
HETATM    9  C   UNL     1     -10.498   6.904  66.656  1.00  0.00    -0.213 A  
HETATM   10  C   UNL     1     -11.105   6.413  67.811  1.00  0.00    -0.376 A  
HETATM   11  C   UNL     1     -10.643   6.819  69.066  1.00  0.00    -0.230 A  
HETATM   12  C   UNL     1      -8.962   8.194  68.023  1.00  0.00    -0.134 A  
HETATM   13  C   UNL     1      -9.573   7.706  69.178  1.00  0.00    -0.155 A  
BRANCH  11  14
HETATM   14  O   UNL     1     -11.397   6.362  70.168  1.00  0.00    -0.361 OA 
BRANCH  14  15
HETATM   15  C   UNL     1     -11.261   6.885  71.458  1.00  0.00    -0.256 C  
HETATM   16  O   UNL     1     -10.485   6.475  72.312  1.00  0.00    -0.197 OA 
BRANCH  15  17
HETATM   17  C   UNL     1     -12.182   7.983  71.638  1.00  0.00    -0.307 A  
HETATM   18  C   UNL     1     -12.027   9.336  71.392  1.00  0.00    -0.424 A  
HETATM   19  C   UNL     1     -13.242   9.963  71.755  1.00  0.00    -0.535 A  
HETATM   20  C   UNL     1     -14.072   8.959  72.196  1.00  0.00    -0.429 A  
HETATM   21  O   UNL     1     -13.442   7.757  72.128  1.00  0.00    -0.211 OA 
ENDBRANCH  15  17
ENDBRANCH  14  15
ENDBRANCH  11  14
ENDBRANCH   2   8
TORSDOF 4
ENDMDL
MODEL      131
REMARK 921   NORMALIZED FREE ENERGY PREDICTED BY IDOCK:   -4.07 KCAL/MOL
REMARK 922        TOTAL FREE ENERGY PREDICTED BY IDOCK:   -5.53 KCAL/MOL
REMARK 923 INTER-LIGAND FREE ENERGY PREDICTED BY IDOCK:   -5.22 KCAL/MOL
REMARK 924 INTRA-LIGAND FREE ENERGY PREDICTED BY IDOCK:   -0.31 KCAL/MOL
REMARK 927      BINDING AFFINITY PREDICTED BY RF-SCORE:    0.00 PKD
ROOT
HETATM    1  C   UNL     1     -12.058  12.141  70.531  1.00  0.00    -0.293 C  
HETATM    2  N   UNL     1     -11.878  10.695  70.529  1.00  0.00    -0.329 N  
HETATM    3 CL   UNL     1     -11.121   7.950  72.584  1.00  0.00    -0.417 Cl 
HETATM    4  C   UNL     1     -12.599   9.886  71.418  1.00  0.00    -0.398 C  
HETATM    5 CL   UNL     1     -13.859   7.481  71.690  1.00  0.00    -0.476 Cl 
HETATM    6  C   UNL     1     -12.348   8.367  71.365  1.00  0.00    -0.299 C  
HETATM    7  O   UNL     1     -13.396  10.385  72.220  1.00  0.00    -0.396 OA 
ENDROOT
BRANCH   2   8
HETATM    8  C   UNL     1     -10.952  10.177  69.602  1.00  0.00    -0.264 A  
HETATM    9  C   UNL     1      -9.583  10.293  69.854  1.00  0.00    -0.082 A  
HETATM   10  C   UNL     1      -8.671   9.937  68.861  1.00  0.00    -0.140 A  
HETATM   11  C   UNL     1      -9.132   9.452  67.634  1.00  0.00    -0.121 A  
HETATM   12  C   UNL     1     -11.411   9.662  68.387  1.00  0.00     0.109 A  
HETATM   13  C   UNL     1     -10.498   9.310  67.392  1.00  0.00    -0.340 A  
BRANCH  11  14
HETATM   14  O   UNL     1      -8.139   9.233  66.655  1.00  0.00    -0.107 OA 
BRANCH  14  15
HETATM   15  C   UNL     1      -7.668  10.238  65.804  1.00  0.00    -0.143 C  
HETATM   16  O   UNL     1      -6.492  10.541  65.646  1.00  0.00    -0.121 OA 
BRANCH  15  17
HETATM   17  C   UNL     1      -8.781  10.877  65.142  1.00  0.00    -0.122 A  
HETATM   18  C   UNL     1      -9.421  10.564  63.955  1.00  0.00    -0.338 A  
HETATM   19  C   UNL     1     -10.443  11.526  63.772  1.00  0.00    -0.459 A  
HETATM   20  C   UNL     1     -10.375  12.365  64.859  1.00  0.00    -0.293 A  
HETATM   21  O   UNL     1      -9.376  11.982  65.695  1.00  0.00    -0.190 OA 
ENDBRANCH  15  17
ENDBRANCH  14  15
ENDBRANCH  11  14
ENDBRANCH   2   8
TORSDOF 4
ENDMDL
MODEL      132
REMARK 921   NORMALIZED FREE ENERGY PREDICTED BY IDOCK:   -4.07 KCAL/MOL
REMARK 922        TOTAL FREE ENERGY PREDICTED BY IDOCK:   -5.53 KCAL/MOL
REMARK 923 INTER-LIGAND FREE ENERGY PREDICTED BY IDOCK:   -5.00 KCAL/MOL
REMARK 924 INTRA-LIGAND FREE ENERGY PREDICTED BY IDOCK:   -0.52 KCAL/MOL
REMARK 927      BINDING AFFINITY PREDICTED BY RF-SCORE:    0.00 PKD
ROOT
HETATM    1  C   UNL     1     -10.022  10.199  65.688  1.00  0.00    -0.279 C  
HETATM    2  N   UNL     1      -9.075   9.293  66.322  1.00  0.00    -0.160 N  
HETATM    3 CL   UNL     1      -6.743   6.750  65.670  1.00  0.00    -0.050 Cl 
HETATM    4  C   UNL     1      -7.739   9.249  65.901  1.00  0.00    -0.098 C  
HETATM    5 CL   UNL     1      -5.162   8.952  66.750  1.00  0.00    -0.038 Cl 
HETATM    6  C   UNL     1      -6.798   8.259  66.612  1.00  0.00    -0.068 C  
HETATM    7  O   UNL     1      -7.343   9.975  64.982  1.00  0.00    -0.129 OA 
ENDROOT
BRANCH   2   8
HETATM    8  C   UNL     1      -9.576   8.481  67.359  1.00  0.00    -0.160 A  
HETATM    9  C   UNL     1     -10.065   7.206  67.063  1.00  0.00    -0.308 A  
HETATM   10  C   UNL     1     -10.717   6.475  68.055  1.00  0.00    -0.351 A  
HETATM   11  C   UNL     1     -10.859   7.014  69.336  1.00  0.00    -0.227 A  
HETATM   12  C   UNL     1      -9.692   9.005  68.649  1.00  0.00    -0.168 A  
HETATM   13  C   UNL     1     -10.349   8.275  69.640  1.00  0.00    -0.218 A  
BRANCH  11  14
HETATM   14  O   UNL     1     -11.636   6.250  70.234  1.00  0.00    -0.395 OA 
BRANCH  14  15
HETATM   15  C   UNL     1     -12.266   6.796  71.357  1.00  0.00    -0.363 C  
HETATM   16  O   UNL     1     -13.321   7.418  71.347  1.00  0.00    -0.370 OA 
BRANCH  15  17
HETATM   17  C   UNL     1     -11.481   6.522  72.537  1.00  0.00    -0.239 A  
HETATM   18  C   UNL     1     -10.711   7.365  73.321  1.00  0.00    -0.441 A  
HETATM   19  C   UNL     1     -10.149   6.573  74.349  1.00  0.00    -0.371 A  
HETATM   20  C   UNL     1     -10.611   5.295  74.141  1.00  0.00    -0.259 A  
HETATM   21  O   UNL     1     -11.418   5.252  73.049  1.00  0.00    -0.313 OA 
ENDBRANCH  15  17
ENDBRANCH  14  15
ENDBRANCH  11  14
ENDBRANCH   2   8
TORSDOF 4
ENDMDL
MODEL      133
REMARK 921   NORMALIZED FREE ENERGY PREDICTED BY IDOCK:   -4.06 KCAL/MOL
REMARK 922        TOTAL FREE ENERGY PREDICTED BY IDOCK:   -5.52 KCAL/MOL
REMARK 923 INTER-LIGAND FREE ENERGY PREDICTED BY IDOCK:   -5.01 KCAL/MOL
REMARK 924 INTRA-LIGAND FREE ENERGY PREDICTED BY IDOCK:   -0.51 KCAL/MOL
REMARK 927      BINDING AFFINITY PREDICTED BY RF-SCORE:    0.00 PKD
ROOT
HETATM    1  C   UNL     1      -6.891  11.032  66.260  1.00  0.00    -0.096 C  
HETATM    2  N   UNL     1      -7.943  11.373  67.207  1.00  0.00    -0.141 N  
HETATM    3 CL   UNL     1     -11.379  11.027  67.843  1.00  0.00    -0.375 Cl 
HETATM    4  C   UNL     1      -8.761  10.375  67.755  1.00  0.00    -0.122 C  
HETATM    5 CL   UNL     1     -10.070   9.585  70.015  1.00  0.00    -0.254 Cl 
HETATM    6  C   UNL     1      -9.859  10.813  68.742  1.00  0.00    -0.194 C  
HETATM    7  O   UNL     1      -8.604   9.190  67.442  1.00  0.00    -0.115 OA 
ENDROOT
BRANCH   2   8
HETATM    8  C   UNL     1      -8.086  12.738  67.525  1.00  0.00    -0.180 A  
HETATM    9  C   UNL     1      -7.365  13.278  68.594  1.00  0.00    -0.101 A  
HETATM   10  C   UNL     1      -7.635  14.579  69.015  1.00  0.00    -0.124 A  
HETATM   11  C   UNL     1      -8.608  15.336  68.357  1.00  0.00    -0.160 A  
HETATM   12  C   UNL     1      -9.036  13.507  66.849  1.00  0.00    -0.219 A  
HETATM   13  C   UNL     1      -9.309  14.808  67.274  1.00  0.00    -0.211 A  
BRANCH  11  14
HETATM   14  O   UNL     1      -8.892  16.593  68.932  1.00  0.00    -0.250 OA 
BRANCH  14  15
HETATM   15  C   UNL     1      -8.247  17.773  68.549  1.00  0.00    -0.296 C  
HETATM   16  O   UNL     1      -7.102  18.086  68.849  1.00  0.00    -0.263 OA 
BRANCH  15  17
HETATM   17  C   UNL     1      -9.139  18.578  67.749  1.00  0.00    -0.278 A  
HETATM   18  C   UNL     1     -10.509  18.491  67.566  1.00  0.00    -0.453 A  
HETATM   19  C   UNL     1     -10.872  19.525  66.670  1.00  0.00    -0.476 A  
HETATM   20  C   UNL     1      -9.707  20.188  66.363  1.00  0.00    -0.415 A  
HETATM   21  O   UNL     1      -8.653  19.627  67.011  1.00  0.00    -0.289 OA 
ENDBRANCH  15  17
ENDBRANCH  14  15
ENDBRANCH  11  14
ENDBRANCH   2   8
TORSDOF 4
ENDMDL
MODEL      134
REMARK 921   NORMALIZED FREE ENERGY PREDICTED BY IDOCK:   -4.04 KCAL/MOL
REMARK 922        TOTAL FREE ENERGY PREDICTED BY IDOCK:   -5.49 KCAL/MOL
REMARK 923 INTER-LIGAND FREE ENERGY PREDICTED BY IDOCK:   -5.15 KCAL/MOL
REMARK 924 INTRA-LIGAND FREE ENERGY PREDICTED BY IDOCK:   -0.34 KCAL/MOL
REMARK 927      BINDING AFFINITY PREDICTED BY RF-SCORE:    0.00 PKD
ROOT
HETATM    1  C   UNL     1      -8.136  10.331  64.366  1.00  0.00    -0.149 C  
HETATM    2  N   UNL     1      -9.329  10.788  65.065  1.00  0.00    -0.211 N  
HETATM    3 CL   UNL     1     -10.985  13.659  66.225  1.00  0.00    -0.298 Cl 
HETATM    4  C   UNL     1     -10.163  11.758  64.493  1.00  0.00    -0.284 C  
HETATM    5 CL   UNL     1     -12.760  12.543  64.196  1.00  0.00    -0.459 Cl 
HETATM    6  C   UNL     1     -11.401  12.200  65.296  1.00  0.00    -0.336 C  
HETATM    7  O   UNL     1      -9.899  12.244  63.387  1.00  0.00    -0.374 OA 
ENDROOT
BRANCH   2   8
HETATM    8  C   UNL     1      -9.581  10.210  66.325  1.00  0.00    -0.193 A  
HETATM    9  C   UNL     1     -10.114   8.921  66.399  1.00  0.00    -0.333 A  
HETATM   10  C   UNL     1     -10.523   8.418  67.634  1.00  0.00    -0.307 A  
HETATM   11  C   UNL     1     -10.382   9.199  68.784  1.00  0.00    -0.214 A  
HETATM   12  C   UNL     1      -9.412  10.977  67.480  1.00  0.00    -0.175 A  
HETATM   13  C   UNL     1      -9.826  10.476  68.715  1.00  0.00    -0.191 A  
BRANCH  11  14
HETATM   14  O   UNL     1     -10.934   8.652  69.962  1.00  0.00    -0.246 OA 
BRANCH  14  15
HETATM   15  C   UNL     1     -10.156   8.177  71.023  1.00  0.00    -0.187 C  
HETATM   16  O   UNL     1      -9.897   8.798  72.047  1.00  0.00    -0.300 OA 
BRANCH  15  17
HETATM   17  C   UNL     1      -9.695   6.841  70.729  1.00  0.00    -0.179 A  
HETATM   18  C   UNL     1      -8.459   6.392  70.295  1.00  0.00    -0.135 A  
HETATM   19  C   UNL     1      -8.557   4.987  70.157  1.00  0.00    -0.111 A  
HETATM   20  C   UNL     1      -9.841   4.657  70.519  1.00  0.00    -0.231 A  
HETATM   21  O   UNL     1     -10.538   5.769  70.869  1.00  0.00    -0.237 OA 
ENDBRANCH  15  17
ENDBRANCH  14  15
ENDBRANCH  11  14
ENDBRANCH   2   8
TORSDOF 4
ENDMDL
MODEL      135
REMARK 921   NORMALIZED FREE ENERGY PREDICTED BY IDOCK:   -4.03 KCAL/MOL
REMARK 922        TOTAL FREE ENERGY PREDICTED BY IDOCK:   -5.48 KCAL/MOL
REMARK 923 INTER-LIGAND FREE ENERGY PREDICTED BY IDOCK:   -5.61 KCAL/MOL
REMARK 924 INTRA-LIGAND FREE ENERGY PREDICTED BY IDOCK:    0.12 KCAL/MOL
REMARK 927      BINDING AFFINITY PREDICTED BY RF-SCORE:    0.00 PKD
ROOT
HETATM    1  C   UNL     1     -12.672   8.905  71.515  1.00  0.00    -0.335 C  
HETATM    2  N   UNL     1     -11.412   8.909  70.784  1.00  0.00    -0.277 N  
HETATM    3 CL   UNL     1      -7.975   9.553  71.103  1.00  0.00     0.073 Cl 
HETATM    4  C   UNL     1     -10.305   8.199  71.268  1.00  0.00    -0.199 C  
HETATM    5 CL   UNL     1      -8.148   6.697  70.532  1.00  0.00    -0.115 Cl 
HETATM    6  C   UNL     1      -9.003   8.258  70.447  1.00  0.00    -0.146 C  
HETATM    7  O   UNL     1     -10.378   7.561  72.324  1.00  0.00    -0.201 OA 
ENDROOT
BRANCH   2   8
HETATM    8  C   UNL     1     -11.378   9.658  69.591  1.00  0.00    -0.073 A  
HETATM    9  C   UNL     1     -10.738   9.134  68.465  1.00  0.00    -0.160 A  
HETATM   10  C   UNL     1     -10.554   9.942  67.343  1.00  0.00    -0.338 A  
HETATM   11  C   UNL     1     -11.025  11.258  67.349  1.00  0.00    -0.282 A  
HETATM   12  C   UNL     1     -11.875  10.963  69.584  1.00  0.00    -0.416 A  
HETATM   13  C   UNL     1     -11.687  11.773  68.463  1.00  0.00    -0.390 A  
BRANCH  11  14
HETATM   14  O   UNL     1     -10.685  12.030  66.217  1.00  0.00    -0.249 OA 
BRANCH  14  15
HETATM   15  C   UNL     1     -11.634  12.680  65.421  1.00  0.00    -0.363 C  
HETATM   16  O   UNL     1     -12.625  12.157  64.928  1.00  0.00    -0.500 OA 
BRANCH  15  17
HETATM   17  C   UNL     1     -11.266  14.067  65.260  1.00  0.00    -0.319 A  
HETATM   18  C   UNL     1     -10.218  14.789  65.804  1.00  0.00    -0.359 A  
HETATM   19  C   UNL     1     -10.334  16.113  65.320  1.00  0.00    -0.281 A  
HETATM   20  C   UNL     1     -11.439  16.124  64.502  1.00  0.00    -0.230 A  
HETATM   21  O   UNL     1     -12.011  14.893  64.457  1.00  0.00    -0.447 OA 
ENDBRANCH  15  17
ENDBRANCH  14  15
ENDBRANCH  11  14
ENDBRANCH   2   8
TORSDOF 4
ENDMDL
MODEL      136
REMARK 921   NORMALIZED FREE ENERGY PREDICTED BY IDOCK:   -4.01 KCAL/MOL
REMARK 922        TOTAL FREE ENERGY PREDICTED BY IDOCK:   -5.45 KCAL/MOL
REMARK 923 INTER-LIGAND FREE ENERGY PREDICTED BY IDOCK:   -4.90 KCAL/MOL
REMARK 924 INTRA-LIGAND FREE ENERGY PREDICTED BY IDOCK:   -0.55 KCAL/MOL
REMARK 927      BINDING AFFINITY PREDICTED BY RF-SCORE:    0.00 PKD
ROOT
HETATM    1  C   UNL     1      -9.109   4.293  63.736  1.00  0.00    -0.142 C  
HETATM    2  N   UNL     1      -8.847   4.310  65.168  1.00  0.00    -0.128 N  
HETATM    3 CL   UNL     1      -9.301   2.489  68.136  1.00  0.00    -0.258 Cl 
HETATM    4  C   UNL     1      -8.197   3.234  65.788  1.00  0.00    -0.094 C  
HETATM    5 CL   UNL     1      -6.411   2.556  67.737  1.00  0.00    -0.032 Cl 
HETATM    6  C   UNL     1      -7.963   3.319  67.307  1.00  0.00    -0.078 C  
HETATM    7  O   UNL     1      -7.838   2.251  65.129  1.00  0.00    -0.075 OA 
ENDROOT
BRANCH   2   8
HETATM    8  C   UNL     1      -9.282   5.449  65.875  1.00  0.00    -0.156 A  
HETATM    9  C   UNL     1     -10.551   5.456  66.461  1.00  0.00    -0.353 A  
HETATM   10  C   UNL     1     -11.046   6.639  67.008  1.00  0.00    -0.395 A  
HETATM   11  C   UNL     1     -10.266   7.798  66.981  1.00  0.00    -0.305 A  
HETATM   12  C   UNL     1      -8.491   6.600  65.878  1.00  0.00    -0.145 A  
HETATM   13  C   UNL     1      -8.990   7.785  66.421  1.00  0.00    -0.196 A  
BRANCH  11  14
HETATM   14  O   UNL     1     -10.901   8.969  67.450  1.00  0.00    -0.230 OA 
BRANCH  14  15
HETATM   15  C   UNL     1     -10.297  10.230  67.422  1.00  0.00    -0.233 C  
HETATM   16  O   UNL     1      -9.492  10.650  68.243  1.00  0.00    -0.149 OA 
BRANCH  15  17
HETATM   17  C   UNL     1     -10.773  10.973  66.279  1.00  0.00    -0.212 A  
HETATM   18  C   UNL     1     -10.388  10.921  64.950  1.00  0.00    -0.371 A  
HETATM   19  C   UNL     1     -11.175  11.871  64.256  1.00  0.00    -0.424 A  
HETATM   20  C   UNL     1     -11.998  12.443  65.196  1.00  0.00    -0.400 A  
HETATM   21  O   UNL     1     -11.766  11.907  66.423  1.00  0.00    -0.522 OA 
ENDBRANCH  15  17
ENDBRANCH  14  15
ENDBRANCH  11  14
ENDBRANCH   2   8
TORSDOF 4
ENDMDL
MODEL      137
REMARK 921   NORMALIZED FREE ENERGY PREDICTED BY IDOCK:   -4.00 KCAL/MOL
REMARK 922        TOTAL FREE ENERGY PREDICTED BY IDOCK:   -5.45 KCAL/MOL
REMARK 923 INTER-LIGAND FREE ENERGY PREDICTED BY IDOCK:   -4.86 KCAL/MOL
REMARK 924 INTRA-LIGAND FREE ENERGY PREDICTED BY IDOCK:   -0.59 KCAL/MOL
REMARK 927      BINDING AFFINITY PREDICTED BY RF-SCORE:    0.00 PKD
ROOT
HETATM    1  C   UNL     1      -8.919   6.966  69.661  1.00  0.00    -0.144 C  
HETATM    2  N   UNL     1      -8.847   6.666  68.237  1.00  0.00    -0.124 N  
HETATM    3 CL   UNL     1      -6.911   5.046  65.797  1.00  0.00    -0.060 Cl 
HETATM    4  C   UNL     1      -8.703   5.345  67.793  1.00  0.00    -0.106 C  
HETATM    5 CL   UNL     1      -9.431   3.576  65.846  1.00  0.00    -0.164 Cl 
HETATM    6  C   UNL     1      -8.624   5.106  66.274  1.00  0.00    -0.114 C  
HETATM    7  O   UNL     1      -8.633   4.412  68.602  1.00  0.00    -0.090 OA 
ENDROOT
BRANCH   2   8
HETATM    8  C   UNL     1      -8.924   7.764  67.357  1.00  0.00    -0.123 A  
HETATM    9  C   UNL     1      -7.760   8.457  67.013  1.00  0.00    -0.093 A  
HETATM   10  C   UNL     1      -7.859   9.642  66.284  1.00  0.00    -0.101 A  
HETATM   11  C   UNL     1      -9.113  10.115  65.891  1.00  0.00    -0.156 A  
HETATM   12  C   UNL     1     -10.175   8.221  66.936  1.00  0.00    -0.388 A  
HETATM   13  C   UNL     1     -10.273   9.410  66.211  1.00  0.00    -0.284 A  
BRANCH  11  14
HETATM   14  O   UNL     1      -9.117  11.379  65.264  1.00  0.00    -0.178 OA 
BRANCH  14  15
HETATM   15  C   UNL     1      -9.937  11.692  64.175  1.00  0.00    -0.277 C  
HETATM   16  O   UNL     1      -9.852  11.198  63.058  1.00  0.00    -0.327 OA 
BRANCH  15  17
HETATM   17  C   UNL     1     -10.902  12.694  64.563  1.00  0.00    -0.336 A  
HETATM   18  C   UNL     1     -12.157  12.562  65.133  1.00  0.00    -0.503 A  
HETATM   19  C   UNL     1     -12.675  13.868  65.296  1.00  0.00    -0.485 A  
HETATM   20  C   UNL     1     -11.707  14.723  64.825  1.00  0.00    -0.422 A  
HETATM   21  O   UNL     1     -10.629  14.025  64.381  1.00  0.00    -0.382 OA 
ENDBRANCH  15  17
ENDBRANCH  14  15
ENDBRANCH  11  14
ENDBRANCH   2   8
TORSDOF 4
ENDMDL
MODEL      138
REMARK 921   NORMALIZED FREE ENERGY PREDICTED BY IDOCK:   -3.99 KCAL/MOL
REMARK 922        TOTAL FREE ENERGY PREDICTED BY IDOCK:   -5.43 KCAL/MOL
REMARK 923 INTER-LIGAND FREE ENERGY PREDICTED BY IDOCK:   -5.11 KCAL/MOL
REMARK 924 INTRA-LIGAND FREE ENERGY PREDICTED BY IDOCK:   -0.32 KCAL/MOL
REMARK 927      BINDING AFFINITY PREDICTED BY RF-SCORE:    0.00 PKD
ROOT
HETATM    1  C   UNL     1     -10.965  16.652  70.411  1.00  0.00     0.002 C  
HETATM    2  N   UNL     1     -10.313  16.757  69.112  1.00  0.00    -0.313 N  
HETATM    3 CL   UNL     1     -10.457  18.404  66.015  1.00  0.00    -0.447 Cl 
HETATM    4  C   UNL     1      -9.893  18.001  68.624  1.00  0.00    -0.378 C  
HETATM    5 CL   UNL     1      -7.939  19.274  67.206  1.00  0.00    -0.279 Cl 
HETATM    6  C   UNL     1      -9.220  18.036  67.239  1.00  0.00    -0.255 C  
HETATM    7  O   UNL     1     -10.071  19.031  69.285  1.00  0.00    -0.319 OA 
ENDROOT
BRANCH   2   8
HETATM    8  C   UNL     1     -10.140  15.556  68.395  1.00  0.00    -0.214 A  
HETATM    9  C   UNL     1     -11.259  14.875  67.908  1.00  0.00    -0.324 A  
HETATM   10  C   UNL     1     -11.100  13.606  67.352  1.00  0.00    -0.299 A  
HETATM   11  C   UNL     1      -9.826  13.037  67.271  1.00  0.00    -0.227 A  
HETATM   12  C   UNL     1      -8.864  14.999  68.285  1.00  0.00    -0.172 A  
HETATM   13  C   UNL     1      -8.707  13.727  67.732  1.00  0.00    -0.182 A  
BRANCH  11  14
HETATM   14  O   UNL     1      -9.784  11.705  66.805  1.00  0.00    -0.196 OA 
BRANCH  14  15
HETATM   15  C   UNL     1      -9.564  11.370  65.465  1.00  0.00    -0.228 C  
HETATM   16  O   UNL     1      -8.568  10.805  65.030  1.00  0.00    -0.174 OA 
BRANCH  15  17
HETATM   17  C   UNL     1     -10.686  11.798  64.664  1.00  0.00    -0.310 A  
HETATM   18  C   UNL     1     -12.013  11.405  64.693  1.00  0.00     0.276 A  
HETATM   19  C   UNL     1     -12.682  12.137  63.684  1.00  0.00    -0.549 A  
HETATM   20  C   UNL     1     -11.730  12.940  63.102  1.00  0.00    -0.143 A  
HETATM   21  O   UNL     1     -10.520  12.745  63.687  1.00  0.00    -0.382 OA 
ENDBRANCH  15  17
ENDBRANCH  14  15
ENDBRANCH  11  14
ENDBRANCH   2   8
TORSDOF 4
ENDMDL
MODEL      139
REMARK 921   NORMALIZED FREE ENERGY PREDICTED BY IDOCK:   -3.97 KCAL/MOL
REMARK 922        TOTAL FREE ENERGY PREDICTED BY IDOCK:   -5.41 KCAL/MOL
REMARK 923 INTER-LIGAND FREE ENERGY PREDICTED BY IDOCK:   -4.74 KCAL/MOL
REMARK 924 INTRA-LIGAND FREE ENERGY PREDICTED BY IDOCK:   -0.67 KCAL/MOL
REMARK 927      BINDING AFFINITY PREDICTED BY RF-SCORE:    0.00 PKD
ROOT
HETATM    1  C   UNL     1      -7.964   5.220  68.794  1.00  0.00    -0.086 C  
HETATM    2  N   UNL     1      -8.594   6.485  69.148  1.00  0.00    -0.129 N  
HETATM    3 CL   UNL     1     -11.502   7.897  70.518  1.00  0.00    -0.246 Cl 
HETATM    4  C   UNL     1      -9.083   6.701  70.443  1.00  0.00    -0.152 C  
HETATM    5 CL   UNL     1      -9.384   8.569  72.409  1.00  0.00    -0.356 Cl 
HETATM    6  C   UNL     1      -9.744   8.059  70.741  1.00  0.00    -0.165 C  
HETATM    7  O   UNL     1      -8.991   5.820  71.306  1.00  0.00    -0.138 OA 
ENDROOT
BRANCH   2   8
HETATM    8  C   UNL     1      -8.680   7.453  68.127  1.00  0.00    -0.122 A  
HETATM    9  C   UNL     1      -7.698   8.441  68.027  1.00  0.00    -0.103 A  
HETATM   10  C   UNL     1      -7.875   9.495  67.131  1.00  0.00    -0.095 A  
HETATM   11  C   UNL     1      -9.020   9.544  66.332  1.00  0.00    -0.154 A  
HETATM   12  C   UNL     1      -9.809   7.486  67.305  1.00  0.00    -0.236 A  
HETATM   13  C   UNL     1      -9.988   8.544  66.412  1.00  0.00    -0.314 A  
BRANCH  11  14
HETATM   14  O   UNL     1      -9.165  10.708  65.547  1.00  0.00    -0.178 OA 
BRANCH  14  15
HETATM   15  C   UNL     1     -10.387  11.361  65.365  1.00  0.00    -0.279 C  
HETATM   16  O   UNL     1     -11.106  11.261  64.378  1.00  0.00    -0.310 OA 
BRANCH  15  17
HETATM   17  C   UNL     1     -10.677  12.184  66.516  1.00  0.00    -0.255 A  
HETATM   18  C   UNL     1      -9.858  13.029  67.245  1.00  0.00    -0.227 A  
HETATM   19  C   UNL     1     -10.652  13.581  68.278  1.00  0.00    -0.259 A  
HETATM   20  C   UNL     1     -11.910  13.049  68.118  1.00  0.00    -0.340 A  
HETATM   21  O   UNL     1     -11.937  12.204  67.054  1.00  0.00    -0.593 OA 
ENDBRANCH  15  17
ENDBRANCH  14  15
ENDBRANCH  11  14
ENDBRANCH   2   8
TORSDOF 4
ENDMDL
MODEL      140
REMARK 921   NORMALIZED FREE ENERGY PREDICTED BY IDOCK:   -3.95 KCAL/MOL
REMARK 922        TOTAL FREE ENERGY PREDICTED BY IDOCK:   -5.38 KCAL/MOL
REMARK 923 INTER-LIGAND FREE ENERGY PREDICTED BY IDOCK:   -4.74 KCAL/MOL
REMARK 924 INTRA-LIGAND FREE ENERGY PREDICTED BY IDOCK:   -0.64 KCAL/MOL
REMARK 927      BINDING AFFINITY PREDICTED BY RF-SCORE:    0.00 PKD
ROOT
HETATM    1  C   UNL     1     -11.637  11.918  68.060  1.00  0.00    -0.332 C  
HETATM    2  N   UNL     1     -11.131  12.353  66.765  1.00  0.00    -0.270 N  
HETATM    3 CL   UNL     1     -12.105  13.153  63.487  1.00  0.00    -0.605 Cl 
HETATM    4  C   UNL     1     -11.670  13.481  66.131  1.00  0.00    -0.365 C  
HETATM    5 CL   UNL     1     -11.064  15.648  64.586  1.00  0.00    -0.433 Cl 
HETATM    6  C   UNL     1     -11.092  13.874  64.759  1.00  0.00    -0.383 C  
HETATM    7  O   UNL     1     -12.584  14.124  66.660  1.00  0.00    -0.349 OA 
ENDROOT
BRANCH   2   8
HETATM    8  C   UNL     1     -10.095  11.582  66.202  1.00  0.00    -0.229 A  
HETATM    9  C   UNL     1     -10.407  10.539  65.326  1.00  0.00    -0.300 A  
HETATM   10  C   UNL     1      -9.399   9.671  64.907  1.00  0.00    -0.306 A  
HETATM   11  C   UNL     1      -8.088   9.862  65.350  1.00  0.00    -0.137 A  
HETATM   12  C   UNL     1      -8.778  11.790  66.619  1.00  0.00    -0.186 A  
HETATM   13  C   UNL     1      -7.771  10.919  66.203  1.00  0.00    -0.133 A  
BRANCH  11  14
HETATM   14  O   UNL     1      -7.165   8.864  64.968  1.00  0.00    -0.088 OA 
BRANCH  14  15
HETATM   15  C   UNL     1      -7.427   7.496  65.082  1.00  0.00    -0.085 C  
HETATM   16  O   UNL     1      -7.609   6.728  64.146  1.00  0.00    -0.091 OA 
BRANCH  15  17
HETATM   17  C   UNL     1      -7.460   7.120  66.476  1.00  0.00    -0.088 A  
HETATM   18  C   UNL     1      -6.509   7.273  67.471  1.00  0.00    -0.055 A  
HETATM   19  C   UNL     1      -7.056   6.719  68.652  1.00  0.00    -0.082 A  
HETATM   20  C   UNL     1      -8.310   6.266  68.315  1.00  0.00    -0.115 A  
HETATM   21  O   UNL     1      -8.566   6.504  67.003  1.00  0.00    -0.112 OA 
ENDBRANCH  15  17
ENDBRANCH  14  15
ENDBRANCH  11  14
ENDBRANCH   2   8
TORSDOF 4
ENDMDL
MODEL      141
REMARK 921   NORMALIZED FREE ENERGY PREDICTED BY IDOCK:   -3.95 KCAL/MOL
REMARK 922        TOTAL FREE ENERGY PREDICTED BY IDOCK:   -5.38 KCAL/MOL
REMARK 923 INTER-LIGAND FREE ENERGY PREDICTED BY IDOCK:   -4.93 KCAL/MOL
REMARK 924 INTRA-LIGAND FREE ENERGY PREDICTED BY IDOCK:   -0.45 KCAL/MOL
REMARK 927      BINDING AFFINITY PREDICTED BY RF-SCORE:    0.00 PKD
ROOT
HETATM    1  C   UNL     1     -12.332  14.590  64.316  1.00  0.00    -0.369 C  
HETATM    2  N   UNL     1     -11.580  14.500  65.560  1.00  0.00    -0.347 N  
HETATM    3 CL   UNL     1     -11.919  14.154  69.038  1.00  0.00    -0.376 Cl 
HETATM    4  C   UNL     1     -11.784  13.429  66.440  1.00  0.00    -0.368 C  
HETATM    5 CL   UNL     1     -10.543  11.729  68.178  1.00  0.00    -0.215 Cl 
HETATM    6  C   UNL     1     -10.959  13.406  67.741  1.00  0.00    -0.262 C  
HETATM    7  O   UNL     1     -12.608  12.546  66.178  1.00  0.00    -0.397 OA 
ENDROOT
BRANCH   2   8
HETATM    8  C   UNL     1     -10.658  15.535  65.816  1.00  0.00    -0.356 A  
HETATM    9  C   UNL     1      -9.295  15.316  65.601  1.00  0.00    -0.130 A  
HETATM   10  C   UNL     1      -8.373  16.275  66.017  1.00  0.00    -0.099 A  
HETATM   11  C   UNL     1      -8.819  17.451  66.625  1.00  0.00    -0.254 A  
HETATM   12  C   UNL     1     -11.105  16.725  66.395  1.00  0.00     0.316 A  
HETATM   13  C   UNL     1     -10.181  17.683  66.815  1.00  0.00    -0.335 A  
BRANCH  11  14
HETATM   14  O   UNL     1      -7.807  18.304  67.117  1.00  0.00    -0.213 OA 
BRANCH  14  15
HETATM   15  C   UNL     1      -7.476  18.397  68.472  1.00  0.00    -0.293 C  
HETATM   16  O   UNL     1      -7.619  19.392  69.171  1.00  0.00    -0.354 OA 
BRANCH  15  17
HETATM   17  C   UNL     1      -6.931  17.140  68.928  1.00  0.00    -0.232 A  
HETATM   18  C   UNL     1      -5.622  16.690  68.970  1.00  0.00    -0.135 A  
HETATM   19  C   UNL     1      -5.654  15.379  69.501  1.00  0.00    -0.103 A  
HETATM   20  C   UNL     1      -6.976  15.104  69.759  1.00  0.00    -0.174 A  
HETATM   21  O   UNL     1      -7.758  16.162  69.419  1.00  0.00    -0.236 OA 
ENDBRANCH  15  17
ENDBRANCH  14  15
ENDBRANCH  11  14
ENDBRANCH   2   8
TORSDOF 4
ENDMDL
MODEL      142
REMARK 921   NORMALIZED FREE ENERGY PREDICTED BY IDOCK:   -3.94 KCAL/MOL
REMARK 922        TOTAL FREE ENERGY PREDICTED BY IDOCK:   -5.37 KCAL/MOL
REMARK 923 INTER-LIGAND FREE ENERGY PREDICTED BY IDOCK:   -4.71 KCAL/MOL
REMARK 924 INTRA-LIGAND FREE ENERGY PREDICTED BY IDOCK:   -0.66 KCAL/MOL
REMARK 927      BINDING AFFINITY PREDICTED BY RF-SCORE:    0.00 PKD
ROOT
HETATM    1  C   UNL     1      -9.659   4.173  69.088  1.00  0.00    -0.172 C  
HETATM    2  N   UNL     1      -9.754   4.795  70.402  1.00  0.00    -0.199 N  
HETATM    3 CL   UNL     1     -11.492   4.684  73.451  1.00  0.00    -0.399 Cl 
HETATM    4  C   UNL     1      -9.677   4.019  71.566  1.00  0.00    -0.176 C  
HETATM    5 CL   UNL     1      -8.747   3.967  74.131  1.00  0.00    -0.092 Cl 
HETATM    6  C   UNL     1      -9.796   4.745  72.919  1.00  0.00    -0.151 C  
HETATM    7  O   UNL     1      -9.531   2.793  71.497  1.00  0.00    -0.118 OA 
ENDROOT
BRANCH   2   8
HETATM    8  C   UNL     1      -9.927   6.193  70.426  1.00  0.00    -0.181 A  
HETATM    9  C   UNL     1     -11.217   6.731  70.398  1.00  0.00    -0.378 A  
HETATM   10  C   UNL     1     -11.383   8.107  70.248  1.00  0.00    -0.132 A  
HETATM   11  C   UNL     1     -10.263   8.936  70.144  1.00  0.00    -0.196 A  
HETATM   12  C   UNL     1      -8.808   7.027  70.354  1.00  0.00    -0.155 A  
HETATM   13  C   UNL     1      -8.975   8.403  70.199  1.00  0.00    -0.142 A  
BRANCH  11  14
HETATM   14  O   UNL     1     -10.534  10.294  69.875  1.00  0.00    -0.257 OA 
BRANCH  14  15
HETATM   15  C   UNL     1     -11.291  10.721  68.780  1.00  0.00    -0.288 C  
HETATM   16  O   UNL     1     -12.436  11.154  68.833  1.00  0.00    -0.460 OA 
BRANCH  15  17
HETATM   17  C   UNL     1     -10.523  10.567  67.567  1.00  0.00    -0.239 A  
HETATM   18  C   UNL     1     -10.404   9.488  66.708  1.00  0.00    -0.298 A  
HETATM   19  C   UNL     1      -9.513   9.876  65.680  1.00  0.00    -0.295 A  
HETATM   20  C   UNL     1      -9.144  11.169  65.963  1.00  0.00    -0.203 A  
HETATM   21  O   UNL     1      -9.749  11.599  67.101  1.00  0.00    -0.180 OA 
ENDBRANCH  15  17
ENDBRANCH  14  15
ENDBRANCH  11  14
ENDBRANCH   2   8
TORSDOF 4
ENDMDL
MODEL      143
REMARK 921   NORMALIZED FREE ENERGY PREDICTED BY IDOCK:   -3.93 KCAL/MOL
REMARK 922        TOTAL FREE ENERGY PREDICTED BY IDOCK:   -5.36 KCAL/MOL
REMARK 923 INTER-LIGAND FREE ENERGY PREDICTED BY IDOCK:   -4.94 KCAL/MOL
REMARK 924 INTRA-LIGAND FREE ENERGY PREDICTED BY IDOCK:   -0.42 KCAL/MOL
REMARK 927      BINDING AFFINITY PREDICTED BY RF-SCORE:    0.00 PKD
ROOT
HETATM    1  C   UNL     1      -9.348   6.816  67.510  1.00  0.00    -0.124 C  
HETATM    2  N   UNL     1      -8.904   7.735  66.471  1.00  0.00    -0.146 N  
HETATM    3 CL   UNL     1      -6.100   8.737  64.609  1.00  0.00    -0.065 Cl 
HETATM    4  C   UNL     1      -8.240   7.258  65.333  1.00  0.00    -0.137 C  
HETATM    5 CL   UNL     1      -7.936   7.606  62.643  1.00  0.00    -0.134 Cl 
HETATM    6  C   UNL     1      -7.791   8.290  64.282  1.00  0.00    -0.144 C  
HETATM    7  O   UNL     1      -8.018   6.050  65.193  1.00  0.00    -0.109 OA 
ENDROOT
BRANCH   2   8
HETATM    8  C   UNL     1      -9.174   9.102  66.681  1.00  0.00    -0.164 A  
HETATM    9  C   UNL     1      -8.269   9.882  67.404  1.00  0.00    -0.118 A  
HETATM   10  C   UNL     1      -8.618  11.185  67.759  1.00  0.00    -0.131 A  
HETATM   11  C   UNL     1      -9.857  11.703  67.374  1.00  0.00    -0.183 A  
HETATM   12  C   UNL     1     -10.400   9.632  66.270  1.00  0.00    -0.230 A  
HETATM   13  C   UNL     1     -10.750  10.934  66.629  1.00  0.00    -0.289 A  
BRANCH  11  14
HETATM   14  O   UNL     1     -10.165  12.984  67.881  1.00  0.00    -0.222 OA 
BRANCH  14  15
HETATM   15  C   UNL     1     -11.436  13.560  67.785  1.00  0.00    -0.315 C  
HETATM   16  O   UNL     1     -12.275  13.582  68.676  1.00  0.00    -0.323 OA 
BRANCH  15  17
HETATM   17  C   UNL     1     -11.617  14.122  66.467  1.00  0.00    -0.375 A  
HETATM   18  C   UNL     1     -12.549  13.831  65.486  1.00  0.00    -0.551 A  
HETATM   19  C   UNL     1     -12.265  14.674  64.385  1.00  0.00    -0.473 A  
HETATM   20  C   UNL     1     -11.183  15.435  64.758  1.00  0.00    -0.395 A  
HETATM   21  O   UNL     1     -10.783  15.112  66.015  1.00  0.00    -0.310 OA 
ENDBRANCH  15  17
ENDBRANCH  14  15
ENDBRANCH  11  14
ENDBRANCH   2   8
TORSDOF 4
ENDMDL
MODEL      144
REMARK 921   NORMALIZED FREE ENERGY PREDICTED BY IDOCK:   -3.93 KCAL/MOL
REMARK 922        TOTAL FREE ENERGY PREDICTED BY IDOCK:   -5.36 KCAL/MOL
REMARK 923 INTER-LIGAND FREE ENERGY PREDICTED BY IDOCK:   -4.82 KCAL/MOL
REMARK 924 INTRA-LIGAND FREE ENERGY PREDICTED BY IDOCK:   -0.54 KCAL/MOL
REMARK 927      BINDING AFFINITY PREDICTED BY RF-SCORE:    0.00 PKD
ROOT
HETATM    1  C   UNL     1      -7.500   6.350  67.436  1.00  0.00    -0.088 C  
HETATM    2  N   UNL     1      -7.732   7.745  67.786  1.00  0.00    -0.119 N  
HETATM    3 CL   UNL     1      -9.357   9.837  70.090  1.00  0.00    -0.280 Cl 
HETATM    4  C   UNL     1      -7.454   8.212  69.078  1.00  0.00    -0.088 C  
HETATM    5 CL   UNL     1      -6.513  10.341  70.503  1.00  0.00    -0.125 Cl 
HETATM    6  C   UNL     1      -7.734   9.697  69.376  1.00  0.00    -0.101 C  
HETATM    7  O   UNL     1      -7.010   7.448  69.943  1.00  0.00    -0.057 OA 
ENDROOT
BRANCH   2   8
HETATM    8  C   UNL     1      -8.245   8.573  66.768  1.00  0.00    -0.105 A  
HETATM    9  C   UNL     1      -7.365   9.262  65.929  1.00  0.00    -0.094 A  
HETATM   10  C   UNL     1      -7.869  10.210  65.039  1.00  0.00    -0.140 A  
HETATM   11  C   UNL     1      -9.244  10.449  64.981  1.00  0.00    -0.214 A  
HETATM   12  C   UNL     1      -9.622   8.790  66.687  1.00  0.00    -0.283 A  
HETATM   13  C   UNL     1     -10.125   9.742  65.799  1.00  0.00    -0.308 A  
BRANCH  11  14
HETATM   14  O   UNL     1      -9.643  11.509  64.138  1.00  0.00    -0.221 OA 
BRANCH  14  15
HETATM   15  C   UNL     1     -10.958  11.980  64.070  1.00  0.00    -0.381 C  
HETATM   16  O   UNL     1     -11.808  11.601  63.275  1.00  0.00    -0.359 OA 
BRANCH  15  17
HETATM   17  C   UNL     1     -11.164  12.993  65.079  1.00  0.00    -0.297 A  
HETATM   18  C   UNL     1     -12.239  13.217  65.921  1.00  0.00    -0.497 A  
HETATM   19  C   UNL     1     -11.920  14.351  66.705  1.00  0.00    -0.414 A  
HETATM   20  C   UNL     1     -10.668  14.751  66.303  1.00  0.00    -0.313 A  
HETATM   21  O   UNL     1     -10.199  13.937  65.321  1.00  0.00    -0.336 OA 
ENDBRANCH  15  17
ENDBRANCH  14  15
ENDBRANCH  11  14
ENDBRANCH   2   8
TORSDOF 4
ENDMDL
MODEL      145
REMARK 921   NORMALIZED FREE ENERGY PREDICTED BY IDOCK:   -3.91 KCAL/MOL
REMARK 922        TOTAL FREE ENERGY PREDICTED BY IDOCK:   -5.33 KCAL/MOL
REMARK 923 INTER-LIGAND FREE ENERGY PREDICTED BY IDOCK:   -4.74 KCAL/MOL
REMARK 924 INTRA-LIGAND FREE ENERGY PREDICTED BY IDOCK:   -0.59 KCAL/MOL
REMARK 927      BINDING AFFINITY PREDICTED BY RF-SCORE:    0.00 PKD
ROOT
HETATM    1  C   UNL     1     -11.940  12.383  64.504  1.00  0.00    -0.402 C  
HETATM    2  N   UNL     1     -11.407  12.292  65.857  1.00  0.00    -0.344 N  
HETATM    3 CL   UNL     1      -9.571  14.044  68.283  1.00  0.00    -0.220 Cl 
HETATM    4  C   UNL     1     -11.698  13.281  66.806  1.00  0.00    -0.385 C  
HETATM    5 CL   UNL     1     -12.228  13.723  69.446  1.00  0.00    -0.363 Cl 
HETATM    6  C   UNL     1     -11.091  13.123  68.212  1.00  0.00    -0.266 C  
HETATM    7  O   UNL     1     -12.409  14.249  66.511  1.00  0.00    -0.445 OA 
ENDROOT
BRANCH   2   8
HETATM    8  C   UNL     1     -10.597  11.175  66.141  1.00  0.00    -0.248 A  
HETATM    9  C   UNL     1     -11.146  10.073  66.803  1.00  0.00     0.117 A  
HETATM   10  C   UNL     1     -10.308   9.047  67.235  1.00  0.00    -0.342 A  
HETATM   11  C   UNL     1      -8.935   9.119  66.989  1.00  0.00    -0.123 A  
HETATM   12  C   UNL     1      -9.228  11.230  65.867  1.00  0.00    -0.229 A  
HETATM   13  C   UNL     1      -8.390  10.204  66.305  1.00  0.00    -0.130 A  
BRANCH  11  14
HETATM   14  O   UNL     1      -8.158   8.093  67.570  1.00  0.00    -0.119 OA 
BRANCH  14  15
HETATM   15  C   UNL     1      -7.477   8.241  68.782  1.00  0.00    -0.096 C  
HETATM   16  O   UNL     1      -6.263   8.332  68.908  1.00  0.00    -0.042 OA 
BRANCH  15  17
HETATM   17  C   UNL     1      -8.424   8.264  69.873  1.00  0.00    -0.127 A  
HETATM   18  C   UNL     1      -8.740   9.272  70.768  1.00  0.00    -0.272 A  
HETATM   19  C   UNL     1      -9.730   8.755  71.637  1.00  0.00    -0.366 A  
HETATM   20  C   UNL     1      -9.967   7.467  71.220  1.00  0.00    -0.187 A  
HETATM   21  O   UNL     1      -9.185   7.159  70.154  1.00  0.00    -0.155 OA 
ENDBRANCH  15  17
ENDBRANCH  14  15
ENDBRANCH  11  14
ENDBRANCH   2   8
TORSDOF 4
ENDMDL
MODEL      146
REMARK 921   NORMALIZED FREE ENERGY PREDICTED BY IDOCK:   -3.91 KCAL/MOL
REMARK 922        TOTAL FREE ENERGY PREDICTED BY IDOCK:   -5.33 KCAL/MOL
REMARK 923 INTER-LIGAND FREE ENERGY PREDICTED BY IDOCK:   -4.85 KCAL/MOL
REMARK 924 INTRA-LIGAND FREE ENERGY PREDICTED BY IDOCK:   -0.48 KCAL/MOL
REMARK 927      BINDING AFFINITY PREDICTED BY RF-SCORE:    0.00 PKD
ROOT
HETATM    1  C   UNL     1      -6.802   8.808  67.827  1.00  0.00    -0.070 C  
HETATM    2  N   UNL     1      -8.016   8.035  68.048  1.00  0.00    -0.126 N  
HETATM    3 CL   UNL     1     -10.070   5.557  66.643  1.00  0.00    -0.213 Cl 
HETATM    4  C   UNL     1      -7.991   6.635  67.987  1.00  0.00    -0.110 C  
HETATM    5 CL   UNL     1      -9.017   4.357  69.085  1.00  0.00    -0.137 Cl 
HETATM    6  C   UNL     1      -9.316   5.886  68.221  1.00  0.00    -0.116 C  
HETATM    7  O   UNL     1      -6.939   6.033  67.743  1.00  0.00    -0.065 OA 
ENDROOT
BRANCH   2   8
HETATM    8  C   UNL     1      -9.190   8.767  68.315  1.00  0.00    -0.140 A  
HETATM    9  C   UNL     1      -9.903   9.340  67.258  1.00  0.00    -0.236 A  
HETATM   10  C   UNL     1     -10.961  10.205  67.535  1.00  0.00    -0.319 A  
HETATM   11  C   UNL     1     -11.309  10.477  68.861  1.00  0.00    -0.251 A  
HETATM   12  C   UNL     1      -9.559   9.016  69.639  1.00  0.00    -0.175 A  
HETATM   13  C   UNL     1     -10.615   9.885  69.915  1.00  0.00    -0.312 A  
BRANCH  11  14
HETATM   14  O   UNL     1     -12.312  11.454  69.038  1.00  0.00    -0.407 OA 
BRANCH  14  15
HETATM   15  C   UNL     1     -12.231  12.469  69.996  1.00  0.00    -0.192 C  
HETATM   16  O   UNL     1     -12.433  12.330  71.196  1.00  0.00    -0.343 OA 
BRANCH  15  17
HETATM   17  C   UNL     1     -11.879  13.716  69.358  1.00  0.00    -0.339 A  
HETATM   18  C   UNL     1     -11.462  14.918  69.902  1.00  0.00    -0.321 A  
HETATM   19  C   UNL     1     -11.261  15.811  68.824  1.00  0.00    -0.342 A  
HETATM   20  C   UNL     1     -11.561  15.104  67.683  1.00  0.00    -0.277 A  
HETATM   21  O   UNL     1     -11.934  13.835  67.993  1.00  0.00    -0.361 OA 
ENDBRANCH  15  17
ENDBRANCH  14  15
ENDBRANCH  11  14
ENDBRANCH   2   8
TORSDOF 4
ENDMDL
MODEL      147
REMARK 921   NORMALIZED FREE ENERGY PREDICTED BY IDOCK:   -3.90 KCAL/MOL
REMARK 922        TOTAL FREE ENERGY PREDICTED BY IDOCK:   -5.32 KCAL/MOL
REMARK 923 INTER-LIGAND FREE ENERGY PREDICTED BY IDOCK:   -4.80 KCAL/MOL
REMARK 924 INTRA-LIGAND FREE ENERGY PREDICTED BY IDOCK:   -0.52 KCAL/MOL
REMARK 927      BINDING AFFINITY PREDICTED BY RF-SCORE:    0.00 PKD
ROOT
HETATM    1  C   UNL     1     -12.140  12.026  70.518  1.00  0.00    -0.311 C  
HETATM    2  N   UNL     1     -11.907  10.588  70.526  1.00  0.00    -0.319 N  
HETATM    3 CL   UNL     1     -11.175   7.866  72.620  1.00  0.00    -0.431 Cl 
HETATM    4  C   UNL     1     -12.650   9.750  71.368  1.00  0.00    -0.386 C  
HETATM    5 CL   UNL     1     -13.835   7.299  71.561  1.00  0.00    -0.488 Cl 
HETATM    6  C   UNL     1     -12.341   8.242  71.329  1.00  0.00    -0.263 C  
HETATM    7  O   UNL     1     -13.513  10.217  72.121  1.00  0.00    -0.411 OA 
ENDROOT
BRANCH   2   8
HETATM    8  C   UNL     1     -10.908  10.107  69.657  1.00  0.00    -0.263 A  
HETATM    9  C   UNL     1      -9.620   9.874  70.146  1.00  0.00    -0.237 A  
HETATM   10  C   UNL     1      -8.594   9.565  69.253  1.00  0.00    -0.149 A  
HETATM   11  C   UNL     1      -8.865   9.474  67.886  1.00  0.00    -0.119 A  
HETATM   12  C   UNL     1     -11.183   9.985  68.293  1.00  0.00    -0.195 A  
HETATM   13  C   UNL     1     -10.155   9.681  67.400  1.00  0.00    -0.257 A  
BRANCH  11  14
HETATM   14  O   UNL     1      -7.741   9.276  67.055  1.00  0.00    -0.094 OA 
BRANCH  14  15
HETATM   15  C   UNL     1      -7.357  10.179  66.058  1.00  0.00    -0.118 C  
HETATM   16  O   UNL     1      -7.509  10.014  64.854  1.00  0.00    -0.131 OA 
BRANCH  15  17
HETATM   17  C   UNL     1      -6.743  11.339  66.661  1.00  0.00    -0.132 A  
HETATM   18  C   UNL     1      -5.410  11.635  66.888  1.00  0.00    -0.125 A  
HETATM   19  C   UNL     1      -5.370  12.901  67.518  1.00  0.00    -0.057 A  
HETATM   20  C   UNL     1      -6.678  13.309  67.635  1.00  0.00    -0.166 A  
HETATM   21  O   UNL     1      -7.517  12.374  67.119  1.00  0.00    -0.148 OA 
ENDBRANCH  15  17
ENDBRANCH  14  15
ENDBRANCH  11  14
ENDBRANCH   2   8
TORSDOF 4
ENDMDL
MODEL      148
REMARK 921   NORMALIZED FREE ENERGY PREDICTED BY IDOCK:   -3.88 KCAL/MOL
REMARK 922        TOTAL FREE ENERGY PREDICTED BY IDOCK:   -5.30 KCAL/MOL
REMARK 923 INTER-LIGAND FREE ENERGY PREDICTED BY IDOCK:   -5.26 KCAL/MOL
REMARK 924 INTRA-LIGAND FREE ENERGY PREDICTED BY IDOCK:   -0.03 KCAL/MOL
REMARK 927      BINDING AFFINITY PREDICTED BY RF-SCORE:    0.00 PKD
ROOT
HETATM    1  C   UNL     1     -12.161   8.554  71.761  1.00  0.00    -0.334 C  
HETATM    2  N   UNL     1     -11.405   8.409  70.524  1.00  0.00    -0.249 N  
HETATM    3 CL   UNL     1      -8.496   7.000  69.151  1.00  0.00    -0.128 Cl 
HETATM    4  C   UNL     1     -11.035   7.139  70.059  1.00  0.00    -0.262 C  
HETATM    5 CL   UNL     1     -10.694   5.620  67.818  1.00  0.00    -0.276 Cl 
HETATM    6  C   UNL     1     -10.228   7.066  68.750  1.00  0.00    -0.176 C  
HETATM    7  O   UNL     1     -11.341   6.122  70.691  1.00  0.00    -0.325 OA 
ENDROOT
BRANCH   2   8
HETATM    8  C   UNL     1     -11.074   9.598  69.845  1.00  0.00    -0.235 A  
HETATM    9  C   UNL     1      -9.735   9.978  69.728  1.00  0.00    -0.259 A  
HETATM   10  C   UNL     1      -9.421  11.234  69.211  1.00  0.00     0.176 A  
HETATM   11  C   UNL     1     -10.444  12.092  68.798  1.00  0.00    -0.183 A  
HETATM   12  C   UNL     1     -12.094  10.444  69.403  1.00  0.00    -0.085 A  
HETATM   13  C   UNL     1     -11.780  11.703  68.889  1.00  0.00    -0.397 A  
BRANCH  11  14
HETATM   14  O   UNL     1     -10.032  13.383  68.403  1.00  0.00    -0.235 OA 
BRANCH  14  15
HETATM   15  C   UNL     1     -10.928  14.422  68.130  1.00  0.00    -0.254 C  
HETATM   16  O   UNL     1     -11.290  14.772  67.013  1.00  0.00    -0.338 OA 
BRANCH  15  17
HETATM   17  C   UNL     1     -11.360  15.030  69.366  1.00  0.00    -0.297 A  
HETATM   18  C   UNL     1     -10.656  15.776  70.295  1.00  0.00    -0.297 A  
HETATM   19  C   UNL     1     -11.565  16.117  71.325  1.00  0.00    -0.470 A  
HETATM   20  C   UNL     1     -12.772  15.567  70.964  1.00  0.00    -0.467 A  
HETATM   21  O   UNL     1     -12.661  14.909  69.781  1.00  0.00    -0.174 OA 
ENDBRANCH  15  17
ENDBRANCH  14  15
ENDBRANCH  11  14
ENDBRANCH   2   8
TORSDOF 4
ENDMDL
MODEL      149
REMARK 921   NORMALIZED FREE ENERGY PREDICTED BY IDOCK:   -3.88 KCAL/MOL
REMARK 922        TOTAL FREE ENERGY PREDICTED BY IDOCK:   -5.29 KCAL/MOL
REMARK 923 INTER-LIGAND FREE ENERGY PREDICTED BY IDOCK:   -4.93 KCAL/MOL
REMARK 924 INTRA-LIGAND FREE ENERGY PREDICTED BY IDOCK:   -0.37 KCAL/MOL
REMARK 927      BINDING AFFINITY PREDICTED BY RF-SCORE:    0.00 PKD
ROOT
HETATM    1  C   UNL     1      -9.330   8.316  65.716  1.00  0.00    -0.031 C  
HETATM    2  N   UNL     1      -9.157   7.066  66.444  1.00  0.00    -0.160 N  
HETATM    3 CL   UNL     1      -9.734   3.606  66.271  1.00  0.00    -0.147 Cl 
HETATM    4  C   UNL     1      -8.512   5.976  65.844  1.00  0.00    -0.143 C  
HETATM    5 CL   UNL     1      -6.829   3.877  66.305  1.00  0.00    -0.056 Cl 
HETATM    6  C   UNL     1      -8.376   4.683  66.670  1.00  0.00    -0.106 C  
HETATM    7  O   UNL     1      -8.081   6.056  64.688  1.00  0.00    -0.129 OA 
ENDROOT
BRANCH   2   8
HETATM    8  C   UNL     1      -9.672   7.023  67.754  1.00  0.00    -0.135 A  
HETATM    9  C   UNL     1     -10.953   6.512  67.977  1.00  0.00    -0.368 A  
HETATM   10  C   UNL     1     -11.527   6.628  69.243  1.00  0.00    -0.253 A  
HETATM   11  C   UNL     1     -10.812   7.237  70.278  1.00  0.00    -0.245 A  
HETATM   12  C   UNL     1      -8.946   7.602  68.798  1.00  0.00    -0.133 A  
HETATM   13  C   UNL     1      -9.523   7.723  70.063  1.00  0.00    -0.161 A  
BRANCH  11  14
HETATM   14  O   UNL     1     -11.521   7.414  71.485  1.00  0.00    -0.252 OA 
BRANCH  14  15
HETATM   15  C   UNL     1     -12.817   7.937  71.541  1.00  0.00    -0.317 C  
HETATM   16  O   UNL     1     -13.841   7.283  71.691  1.00  0.00    -0.384 OA 
BRANCH  15  17
HETATM   17  C   UNL     1     -12.770   9.372  71.388  1.00  0.00    -0.345 A  
HETATM   18  C   UNL     1     -12.158  10.154  70.423  1.00  0.00    -0.332 A  
HETATM   19  C   UNL     1     -12.421  11.504  70.758  1.00  0.00    -0.444 A  
HETATM   20  C   UNL     1     -13.183  11.470  71.903  1.00  0.00    -0.374 A  
HETATM   21  O   UNL     1     -13.402  10.187  72.292  1.00  0.00    -0.415 OA 
ENDBRANCH  15  17
ENDBRANCH  14  15
ENDBRANCH  11  14
ENDBRANCH   2   8
TORSDOF 4
ENDMDL
MODEL      150
REMARK 921   NORMALIZED FREE ENERGY PREDICTED BY IDOCK:   -3.86 KCAL/MOL
REMARK 922        TOTAL FREE ENERGY PREDICTED BY IDOCK:   -5.27 KCAL/MOL
REMARK 923 INTER-LIGAND FREE ENERGY PREDICTED BY IDOCK:   -5.80 KCAL/MOL
REMARK 924 INTRA-LIGAND FREE ENERGY PREDICTED BY IDOCK:    0.52 KCAL/MOL
REMARK 927      BINDING AFFINITY PREDICTED BY RF-SCORE:    0.00 PKD
ROOT
HETATM    1  C   UNL     1      -9.855  16.068  69.491  1.00  0.00    -0.235 C  
HETATM    2  N   UNL     1     -11.035  15.241  69.703  1.00  0.00    -0.266 N  
HETATM    3 CL   UNL     1     -12.594  13.097  72.007  1.00  0.00    -0.144 Cl 
HETATM    4  C   UNL     1     -11.830  15.411  70.845  1.00  0.00    -0.356 C  
HETATM    5 CL   UNL     1     -14.395  15.381  71.777  1.00  0.00    -0.637 Cl 
HETATM    6  C   UNL     1     -13.056  14.493  71.006  1.00  0.00    -0.366 C  
HETATM    7  O   UNL     1     -11.542  16.264  71.692  1.00  0.00    -0.458 OA 
ENDROOT
BRANCH   2   8
HETATM    8  C   UNL     1     -11.316  14.279  68.713  1.00  0.00    -0.275 A  
HETATM    9  C   UNL     1     -11.027  12.933  68.955  1.00  0.00    -0.271 A  
HETATM   10  C   UNL     1     -11.143  12.010  67.916  1.00  0.00    -0.289 A  
HETATM   11  C   UNL     1     -11.564  12.433  66.653  1.00  0.00    -0.385 A  
HETATM   12  C   UNL     1     -11.767  14.695  67.458  1.00  0.00    -0.403 A  
HETATM   13  C   UNL     1     -11.879  13.771  66.418  1.00  0.00    -0.434 A  
BRANCH  11  14
HETATM   14  O   UNL     1     -11.535  11.449  65.641  1.00  0.00    -0.104 OA 
BRANCH  14  15
HETATM   15  C   UNL     1     -10.384  10.727  65.308  1.00  0.00    -0.258 C  
HETATM   16  O   UNL     1      -9.701  10.904  64.308  1.00  0.00    -0.244 OA 
BRANCH  15  17
HETATM   17  C   UNL     1     -10.124   9.732  66.321  1.00  0.00    -0.243 A  
HETATM   18  C   UNL     1     -10.995   9.034  67.140  1.00  0.00     0.096 A  
HETATM   19  C   UNL     1     -10.205   8.188  67.955  1.00  0.00    -0.263 A  
HETATM   20  C   UNL     1      -8.901   8.412  67.584  1.00  0.00    -0.136 A  
HETATM   21  O   UNL     1      -8.839   9.341  66.596  1.00  0.00    -0.125 OA 
ENDBRANCH  15  17
ENDBRANCH  14  15
ENDBRANCH  11  14
ENDBRANCH   2   8
TORSDOF 4
ENDMDL
MODEL      151
REMARK 921   NORMALIZED FREE ENERGY PREDICTED BY IDOCK:   -3.84 KCAL/MOL
REMARK 922        TOTAL FREE ENERGY PREDICTED BY IDOCK:   -5.25 KCAL/MOL
REMARK 923 INTER-LIGAND FREE ENERGY PREDICTED BY IDOCK:   -4.70 KCAL/MOL
REMARK 924 INTRA-LIGAND FREE ENERGY PREDICTED BY IDOCK:   -0.55 KCAL/MOL
REMARK 927      BINDING AFFINITY PREDICTED BY RF-SCORE:    0.00 PKD
ROOT
HETATM    1  C   UNL     1      -9.859  10.352  63.697  1.00  0.00    -0.223 C  
HETATM    2  N   UNL     1      -9.995  11.226  64.854  1.00  0.00    -0.257 N  
HETATM    3 CL   UNL     1      -9.405  14.494  65.998  1.00  0.00    -0.252 Cl 
HETATM    4  C   UNL     1     -10.658  12.456  64.745  1.00  0.00    -0.300 C  
HETATM    5 CL   UNL     1     -12.308  14.201  66.042  1.00  0.00    -0.476 Cl 
HETATM    6  C   UNL     1     -10.752  13.332  66.008  1.00  0.00    -0.277 C  
HETATM    7  O   UNL     1     -11.136  12.821  63.665  1.00  0.00    -0.432 OA 
ENDROOT
BRANCH   2   8
HETATM    8  C   UNL     1      -9.427  10.769  66.060  1.00  0.00    -0.194 A  
HETATM    9  C   UNL     1      -8.055  10.923  66.280  1.00  0.00    -0.165 A  
HETATM   10  C   UNL     1      -7.467  10.319  67.391  1.00  0.00    -0.094 A  
HETATM   11  C   UNL     1      -8.254   9.583  68.280  1.00  0.00    -0.113 A  
HETATM   12  C   UNL     1     -10.217  10.059  66.967  1.00  0.00    -0.295 A  
HETATM   13  C   UNL     1      -9.627   9.450  68.075  1.00  0.00    -0.156 A  
BRANCH  11  14
HETATM   14  O   UNL     1      -7.550   8.912  69.303  1.00  0.00    -0.079 OA 
BRANCH  14  15
HETATM   15  C   UNL     1      -7.337   9.460  70.572  1.00  0.00    -0.133 C  
HETATM   16  O   UNL     1      -6.698  10.478  70.807  1.00  0.00    -0.343 OA 
BRANCH  15  17
HETATM   17  C   UNL     1      -7.978   8.639  71.571  1.00  0.00    -0.136 A  
HETATM   18  C   UNL     1      -9.283   8.639  72.032  1.00  0.00    -0.338 A  
HETATM   19  C   UNL     1      -9.370   7.633  73.023  1.00  0.00    -0.265 A  
HETATM   20  C   UNL     1      -8.118   7.072  73.107  1.00  0.00    -0.101 A  
HETATM   21  O   UNL     1      -7.268   7.670  72.233  1.00  0.00    -0.069 OA 
ENDBRANCH  15  17
ENDBRANCH  14  15
ENDBRANCH  11  14
ENDBRANCH   2   8
TORSDOF 4
ENDMDL
MODEL      152
REMARK 921   NORMALIZED FREE ENERGY PREDICTED BY IDOCK:   -3.83 KCAL/MOL
REMARK 922        TOTAL FREE ENERGY PREDICTED BY IDOCK:   -5.24 KCAL/MOL
REMARK 923 INTER-LIGAND FREE ENERGY PREDICTED BY IDOCK:   -4.78 KCAL/MOL
REMARK 924 INTRA-LIGAND FREE ENERGY PREDICTED BY IDOCK:   -0.46 KCAL/MOL
REMARK 927      BINDING AFFINITY PREDICTED BY RF-SCORE:    0.00 PKD
ROOT
HETATM    1  C   UNL     1     -10.533   4.432  65.454  1.00  0.00    -0.193 C  
HETATM    2  N   UNL     1      -9.799   4.541  66.707  1.00  0.00    -0.209 N  
HETATM    3 CL   UNL     1      -9.387   3.066  69.867  1.00  0.00    -0.225 Cl 
HETATM    4  C   UNL     1      -9.082   3.447  67.211  1.00  0.00    -0.175 C  
HETATM    5 CL   UNL     1      -6.813   2.713  68.538  1.00  0.00    -0.040 Cl 
HETATM    6  C   UNL     1      -8.338   3.634  68.547  1.00  0.00    -0.078 C  
HETATM    7  O   UNL     1      -9.064   2.371  66.603  1.00  0.00    -0.136 OA 
ENDROOT
BRANCH   2   8
HETATM    8  C   UNL     1      -9.857   5.785  67.365  1.00  0.00    -0.138 A  
HETATM    9  C   UNL     1      -8.812   6.700  67.208  1.00  0.00    -0.116 A  
HETATM   10  C   UNL     1      -8.787   7.853  67.992  1.00  0.00    -0.124 A  
HETATM   11  C   UNL     1      -9.812   8.092  68.911  1.00  0.00    -0.175 A  
HETATM   12  C   UNL     1     -10.897   6.041  68.262  1.00  0.00    -0.366 A  
HETATM   13  C   UNL     1     -10.868   7.193  69.050  1.00  0.00    -0.172 A  
BRANCH  11  14
HETATM   14  O   UNL     1      -9.635   9.221  69.739  1.00  0.00    -0.170 OA 
BRANCH  14  15
HETATM   15  C   UNL     1     -10.497   9.541  70.793  1.00  0.00    -0.314 C  
HETATM   16  O   UNL     1     -11.373  10.396  70.758  1.00  0.00    -0.330 OA 
BRANCH  15  17
HETATM   17  C   UNL     1     -10.195   8.714  71.937  1.00  0.00    -0.334 A  
HETATM   18  C   UNL     1     -10.984   7.807  72.624  1.00  0.00    -0.422 A  
HETATM   19  C   UNL     1     -10.191   7.282  73.672  1.00  0.00    -0.393 A  
HETATM   20  C   UNL     1      -8.964   7.891  73.562  1.00  0.00    -0.281 A  
HETATM   21  O   UNL     1      -8.953   8.757  72.516  1.00  0.00    -0.386 OA 
ENDBRANCH  15  17
ENDBRANCH  14  15
ENDBRANCH  11  14
ENDBRANCH   2   8
TORSDOF 4
ENDMDL
MODEL      153
REMARK 921   NORMALIZED FREE ENERGY PREDICTED BY IDOCK:   -3.82 KCAL/MOL
REMARK 922        TOTAL FREE ENERGY PREDICTED BY IDOCK:   -5.22 KCAL/MOL
REMARK 923 INTER-LIGAND FREE ENERGY PREDICTED BY IDOCK:   -4.76 KCAL/MOL
REMARK 924 INTRA-LIGAND FREE ENERGY PREDICTED BY IDOCK:   -0.46 KCAL/MOL
REMARK 927      BINDING AFFINITY PREDICTED BY RF-SCORE:    0.00 PKD
ROOT
HETATM    1  C   UNL     1      -8.559   7.660  65.526  1.00  0.00    -0.092 C  
HETATM    2  N   UNL     1      -9.253   8.815  66.078  1.00  0.00    -0.208 N  
HETATM    3 CL   UNL     1      -9.113  12.313  66.363  1.00  0.00    -0.194 Cl 
HETATM    4  C   UNL     1      -9.601   9.898  65.259  1.00  0.00    -0.295 C  
HETATM    5 CL   UNL     1     -11.512  11.788  64.787  1.00  0.00    -0.322 Cl 
HETATM    6  C   UNL     1     -10.324  11.088  65.915  1.00  0.00    -0.257 C  
HETATM    7  O   UNL     1      -9.322   9.891  64.054  1.00  0.00    -0.269 OA 
ENDROOT
BRANCH   2   8
HETATM    8  C   UNL     1      -9.541   8.778  67.457  1.00  0.00    -0.152 A  
HETATM    9  C   UNL     1     -10.827   8.437  67.886  1.00  0.00    -0.037 A  
HETATM   10  C   UNL     1     -11.157   8.567  69.234  1.00  0.00     0.129 A  
HETATM   11  C   UNL     1     -10.198   9.019  70.144  1.00  0.00    -0.197 A  
HETATM   12  C   UNL     1      -8.574   9.199  68.374  1.00  0.00    -0.129 A  
HETATM   13  C   UNL     1      -8.907   9.334  69.722  1.00  0.00    -0.174 A  
BRANCH  11  14
HETATM   14  O   UNL     1     -10.661   9.231  71.461  1.00  0.00    -0.334 OA 
BRANCH  14  15
HETATM   15  C   UNL     1     -11.717   8.509  72.026  1.00  0.00    -0.362 C  
HETATM   16  O   UNL     1     -12.889   8.862  72.045  1.00  0.00    -0.343 OA 
BRANCH  15  17
HETATM   17  C   UNL     1     -11.216   7.281  72.597  1.00  0.00    -0.313 A  
HETATM   18  C   UNL     1     -11.092   6.017  72.044  1.00  0.00    -0.325 A  
HETATM   19  C   UNL     1     -10.550   5.180  73.047  1.00  0.00    -0.278 A  
HETATM   20  C   UNL     1     -10.366   5.978  74.151  1.00  0.00    -0.288 A  
HETATM   21  O   UNL     1     -10.763   7.251  73.891  1.00  0.00    -0.318 OA 
ENDBRANCH  15  17
ENDBRANCH  14  15
ENDBRANCH  11  14
ENDBRANCH   2   8
TORSDOF 4
ENDMDL
MODEL      154
REMARK 921   NORMALIZED FREE ENERGY PREDICTED BY IDOCK:   -3.80 KCAL/MOL
REMARK 922        TOTAL FREE ENERGY PREDICTED BY IDOCK:   -5.19 KCAL/MOL
REMARK 923 INTER-LIGAND FREE ENERGY PREDICTED BY IDOCK:   -4.91 KCAL/MOL
REMARK 924 INTRA-LIGAND FREE ENERGY PREDICTED BY IDOCK:   -0.29 KCAL/MOL
REMARK 927      BINDING AFFINITY PREDICTED BY RF-SCORE:    0.00 PKD
ROOT
HETATM    1  C   UNL     1      -7.969   9.730  64.202  1.00  0.00    -0.143 C  
HETATM    2  N   UNL     1      -9.081  10.488  64.760  1.00  0.00    -0.198 N  
HETATM    3 CL   UNL     1     -10.394  13.728  65.091  1.00  0.00    -0.378 Cl 
HETATM    4  C   UNL     1      -9.837  11.346  63.949  1.00  0.00    -0.300 C  
HETATM    5 CL   UNL     1     -12.353  12.291  63.475  1.00  0.00    -0.658 Cl 
HETATM    6  C   UNL     1     -10.991  12.122  64.611  1.00  0.00    -0.312 C  
HETATM    7  O   UNL     1      -9.572  11.475  62.749  1.00  0.00    -0.358 OA 
ENDROOT
BRANCH   2   8
HETATM    8  C   UNL     1      -9.338  10.312  66.134  1.00  0.00    -0.170 A  
HETATM    9  C   UNL     1      -8.478  10.880  67.077  1.00  0.00    -0.134 A  
HETATM   10  C   UNL     1      -8.633  10.562  68.426  1.00  0.00    -0.132 A  
HETATM   11  C   UNL     1      -9.654   9.696  68.823  1.00  0.00    -0.152 A  
HETATM   12  C   UNL     1     -10.378   9.471  66.537  1.00  0.00    -0.263 A  
HETATM   13  C   UNL     1     -10.530   9.149  67.886  1.00  0.00    -0.293 A  
BRANCH  11  14
HETATM   14  O   UNL     1      -9.654   9.342  70.190  1.00  0.00    -0.204 OA 
BRANCH  14  15
HETATM   15  C   UNL     1      -9.321   8.065  70.650  1.00  0.00    -0.158 C  
HETATM   16  O   UNL     1      -9.620   7.012  70.100  1.00  0.00    -0.165 OA 
BRANCH  15  17
HETATM   17  C   UNL     1      -8.574   8.170  71.881  1.00  0.00    -0.152 A  
HETATM   18  C   UNL     1      -7.220   8.358  72.098  1.00  0.00    -0.119 A  
HETATM   19  C   UNL     1      -7.026   8.377  73.500  1.00  0.00    -0.127 A  
HETATM   20  C   UNL     1      -8.270   8.206  74.059  1.00  0.00    -0.253 A  
HETATM   21  O   UNL     1      -9.215   8.082  73.091  1.00  0.00    -0.238 OA 
ENDBRANCH  15  17
ENDBRANCH  14  15
ENDBRANCH  11  14
ENDBRANCH   2   8
TORSDOF 4
ENDMDL
MODEL      155
REMARK 921   NORMALIZED FREE ENERGY PREDICTED BY IDOCK:   -3.79 KCAL/MOL
REMARK 922        TOTAL FREE ENERGY PREDICTED BY IDOCK:   -5.19 KCAL/MOL
REMARK 923 INTER-LIGAND FREE ENERGY PREDICTED BY IDOCK:   -4.79 KCAL/MOL
REMARK 924 INTRA-LIGAND FREE ENERGY PREDICTED BY IDOCK:   -0.40 KCAL/MOL
REMARK 927      BINDING AFFINITY PREDICTED BY RF-SCORE:    0.00 PKD
ROOT
HETATM    1  C   UNL     1      -7.855   3.847  67.401  1.00  0.00    -0.087 C  
HETATM    2  N   UNL     1      -8.717   4.214  66.286  1.00  0.00    -0.113 N  
HETATM    3 CL   UNL     1      -8.827   4.503  62.788  1.00  0.00    -0.119 Cl 
HETATM    4  C   UNL     1      -8.918   3.329  65.217  1.00  0.00    -0.142 C  
HETATM    5 CL   UNL     1     -10.758   2.410  63.424  1.00  0.00    -0.212 Cl 
HETATM    6  C   UNL     1      -9.834   3.790  64.069  1.00  0.00    -0.179 C  
HETATM    7  O   UNL     1      -8.363   2.224  65.202  1.00  0.00    -0.086 OA 
ENDROOT
BRANCH   2   8
HETATM    8  C   UNL     1      -9.319   5.486  66.347  1.00  0.00    -0.152 A  
HETATM    9  C   UNL     1      -8.602   6.611  65.931  1.00  0.00    -0.153 A  
HETATM   10  C   UNL     1      -9.131   7.882  66.153  1.00  0.00    -0.210 A  
HETATM   11  C   UNL     1     -10.377   8.019  66.770  1.00  0.00    -0.290 A  
HETATM   12  C   UNL     1     -10.579   5.624  66.935  1.00  0.00    -0.367 A  
HETATM   13  C   UNL     1     -11.106   6.896  67.160  1.00  0.00    -0.362 A  
BRANCH  11  14
HETATM   14  O   UNL     1     -10.771   9.343  67.058  1.00  0.00    -0.229 OA 
BRANCH  14  15
HETATM   15  C   UNL     1     -10.760   9.882  68.348  1.00  0.00    -0.232 C  
HETATM   16  O   UNL     1     -10.411   9.289  69.362  1.00  0.00    -0.208 OA 
BRANCH  15  17
HETATM   17  C   UNL     1     -11.229  11.247  68.311  1.00  0.00    -0.267 A  
HETATM   18  C   UNL     1     -11.588  12.103  69.338  1.00  0.00    -0.381 A  
HETATM   19  C   UNL     1     -11.983  13.323  68.739  1.00  0.00    -0.335 A  
HETATM   20  C   UNL     1     -11.838  13.146  67.383  1.00  0.00    -0.361 A  
HETATM   21  O   UNL     1     -11.381  11.895  67.112  1.00  0.00    -0.300 OA 
ENDBRANCH  15  17
ENDBRANCH  14  15
ENDBRANCH  11  14
ENDBRANCH   2   8
TORSDOF 4
ENDMDL
MODEL      156
REMARK 921   NORMALIZED FREE ENERGY PREDICTED BY IDOCK:   -3.77 KCAL/MOL
REMARK 922        TOTAL FREE ENERGY PREDICTED BY IDOCK:   -5.16 KCAL/MOL
REMARK 923 INTER-LIGAND FREE ENERGY PREDICTED BY IDOCK:   -5.30 KCAL/MOL
REMARK 924 INTRA-LIGAND FREE ENERGY PREDICTED BY IDOCK:    0.14 KCAL/MOL
REMARK 927      BINDING AFFINITY PREDICTED BY RF-SCORE:    0.00 PKD
ROOT
HETATM    1  C   UNL     1      -6.521  17.052  68.510  1.00  0.00    -0.164 C  
HETATM    2  N   UNL     1      -7.782  17.201  67.797  1.00  0.00    -0.175 N  
HETATM    3 CL   UNL     1     -11.034  18.499  68.070  1.00  0.00    -0.152 Cl 
HETATM    4  C   UNL     1      -8.368  18.465  67.642  1.00  0.00    -0.251 C  
HETATM    5 CL   UNL     1      -9.790  20.047  65.932  1.00  0.00    -0.491 Cl 
HETATM    6  C   UNL     1      -9.707  18.544  66.885  1.00  0.00    -0.322 C  
HETATM    7  O   UNL     1      -7.826  19.473  68.110  1.00  0.00    -0.294 OA 
ENDROOT
BRANCH   2   8
HETATM    8  C   UNL     1      -8.363  16.022  67.290  1.00  0.00    -0.181 A  
HETATM    9  C   UNL     1      -8.952  16.032  66.023  1.00  0.00    -0.345 A  
HETATM   10  C   UNL     1      -9.676  14.919  65.595  1.00  0.00    -0.326 A  
HETATM   11  C   UNL     1      -9.790  13.802  66.427  1.00  0.00    -0.298 A  
HETATM   12  C   UNL     1      -8.452  14.892  68.107  1.00  0.00    -0.146 A  
HETATM   13  C   UNL     1      -9.180  13.781  67.680  1.00  0.00    -0.207 A  
BRANCH  11  14
HETATM   14  O   UNL     1     -10.639  12.777  65.955  1.00  0.00    -0.262 OA 
BRANCH  14  15
HETATM   15  C   UNL     1     -10.327  11.967  64.859  1.00  0.00    -0.278 C  
HETATM   16  O   UNL     1     -10.631  12.199  63.696  1.00  0.00    -0.386 OA 
BRANCH  15  17
HETATM   17  C   UNL     1      -9.594  10.806  65.305  1.00  0.00    -0.229 A  
HETATM   18  C   UNL     1     -10.025   9.671  65.969  1.00  0.00    -0.344 A  
HETATM   19  C   UNL     1      -8.888   8.853  66.170  1.00  0.00    -0.193 A  
HETATM   20  C   UNL     1      -7.829   9.530  65.612  1.00  0.00    -0.101 A  
HETATM   21  O   UNL     1      -8.244  10.711  65.084  1.00  0.00    -0.159 OA 
ENDBRANCH  15  17
ENDBRANCH  14  15
ENDBRANCH  11  14
ENDBRANCH   2   8
TORSDOF 4
ENDMDL
MODEL      157
REMARK 921   NORMALIZED FREE ENERGY PREDICTED BY IDOCK:   -3.77 KCAL/MOL
REMARK 922        TOTAL FREE ENERGY PREDICTED BY IDOCK:   -5.16 KCAL/MOL
REMARK 923 INTER-LIGAND FREE ENERGY PREDICTED BY IDOCK:   -4.89 KCAL/MOL
REMARK 924 INTRA-LIGAND FREE ENERGY PREDICTED BY IDOCK:   -0.27 KCAL/MOL
REMARK 927      BINDING AFFINITY PREDICTED BY RF-SCORE:    0.00 PKD
ROOT
HETATM    1  C   UNL     1      -9.207   4.489  68.308  1.00  0.00    -0.132 C  
HETATM    2  N   UNL     1      -9.696   5.610  69.100  1.00  0.00    -0.137 N  
HETATM    3 CL   UNL     1     -12.445   6.757  70.960  1.00  0.00    -0.389 Cl 
HETATM    4  C   UNL     1     -10.173   5.408  70.402  1.00  0.00    -0.262 C  
HETATM    5 CL   UNL     1     -10.287   6.488  72.906  1.00  0.00    -0.214 Cl 
HETATM    6  C   UNL     1     -10.682   6.639  71.175  1.00  0.00    -0.234 C  
HETATM    7  O   UNL     1     -10.190   4.276  70.899  1.00  0.00    -0.140 OA 
ENDROOT
BRANCH   2   8
HETATM    8  C   UNL     1      -9.662   6.877  68.486  1.00  0.00    -0.138 A  
HETATM    9  C   UNL     1      -8.873   7.891  69.036  1.00  0.00    -0.145 A  
HETATM   10  C   UNL     1      -8.973   9.187  68.532  1.00  0.00    -0.133 A  
HETATM   11  C   UNL     1      -9.846   9.457  67.474  1.00  0.00    -0.173 A  
HETATM   12  C   UNL     1     -10.510   7.142  67.408  1.00  0.00    -0.354 A  
HETATM   13  C   UNL     1     -10.614   8.441  66.908  1.00  0.00    -0.285 A  
BRANCH  11  14
HETATM   14  O   UNL     1      -9.965  10.817  67.116  1.00  0.00    -0.184 OA 
BRANCH  14  15
HETATM   15  C   UNL     1     -10.953  11.661  67.633  1.00  0.00    -0.239 C  
HETATM   16  O   UNL     1     -12.141  11.383  67.736  1.00  0.00    -0.637 OA 
BRANCH  15  17
HETATM   17  C   UNL     1     -10.364  12.921  68.022  1.00  0.00    -0.227 A  
HETATM   18  C   UNL     1     -10.952  14.079  68.501  1.00  0.00    -0.274 A  
HETATM   19  C   UNL     1      -9.910  15.012  68.714  1.00  0.00    -0.233 A  
HETATM   20  C   UNL     1      -8.747  14.371  68.361  1.00  0.00    -0.180 A  
HETATM   21  O   UNL     1      -9.007  13.105  67.943  1.00  0.00    -0.181 OA 
ENDBRANCH  15  17
ENDBRANCH  14  15
ENDBRANCH  11  14
ENDBRANCH   2   8
TORSDOF 4
ENDMDL
MODEL      158
REMARK 921   NORMALIZED FREE ENERGY PREDICTED BY IDOCK:   -3.77 KCAL/MOL
REMARK 922        TOTAL FREE ENERGY PREDICTED BY IDOCK:   -5.16 KCAL/MOL
REMARK 923 INTER-LIGAND FREE ENERGY PREDICTED BY IDOCK:   -5.14 KCAL/MOL
REMARK 924 INTRA-LIGAND FREE ENERGY PREDICTED BY IDOCK:   -0.02 KCAL/MOL
REMARK 927      BINDING AFFINITY PREDICTED BY RF-SCORE:    0.00 PKD
ROOT
HETATM    1  C   UNL     1     -12.386  12.869  64.991  1.00  0.00    -0.485 C  
HETATM    2  N   UNL     1     -11.675  12.711  66.252  1.00  0.00    -0.385 N  
HETATM    3 CL   UNL     1      -9.259  14.189  68.327  1.00  0.00    -0.194 Cl 
HETATM    4  C   UNL     1     -11.672  13.741  67.203  1.00  0.00    -0.385 C  
HETATM    5 CL   UNL     1     -11.729  14.280  69.877  1.00  0.00    -0.351 Cl 
HETATM    6  C   UNL     1     -10.891  13.506  68.509  1.00  0.00    -0.264 C  
HETATM    7  O   UNL     1     -12.269  14.801  66.985  1.00  0.00    -0.231 OA 
ENDROOT
BRANCH   2   8
HETATM    8  C   UNL     1     -11.005  11.488  66.449  1.00  0.00    -0.284 A  
HETATM    9  C   UNL     1     -10.231  10.950  65.417  1.00  0.00    -0.339 A  
HETATM   10  C   UNL     1      -9.712   9.663  65.549  1.00  0.00    -0.372 A  
HETATM   11  C   UNL     1      -9.953   8.931  66.715  1.00  0.00    -0.267 A  
HETATM   12  C   UNL     1     -11.219  10.767  67.627  1.00  0.00    -0.370 A  
HETATM   13  C   UNL     1     -10.702   9.477  67.756  1.00  0.00    -0.302 A  
BRANCH  11  14
HETATM   14  O   UNL     1      -9.488   7.598  66.705  1.00  0.00    -0.177 OA 
BRANCH  14  15
HETATM   15  C   UNL     1      -8.198   7.234  67.103  1.00  0.00    -0.118 C  
HETATM   16  O   UNL     1      -7.169   7.478  66.486  1.00  0.00    -0.072 OA 
BRANCH  15  17
HETATM   17  C   UNL     1      -8.260   6.517  68.355  1.00  0.00    -0.114 A  
HETATM   18  C   UNL     1      -7.962   6.928  69.643  1.00  0.00    -0.125 A  
HETATM   19  C   UNL     1      -8.188   5.819  70.492  1.00  0.00    -0.118 A  
HETATM   20  C   UNL     1      -8.617   4.798  69.678  1.00  0.00    -0.082 A  
HETATM   21  O   UNL     1      -8.666   5.208  68.384  1.00  0.00    -0.101 OA 
ENDBRANCH  15  17
ENDBRANCH  14  15
ENDBRANCH  11  14
ENDBRANCH   2   8
TORSDOF 4
ENDMDL
MODEL      159
REMARK 921   NORMALIZED FREE ENERGY PREDICTED BY IDOCK:   -3.76 KCAL/MOL
REMARK 922        TOTAL FREE ENERGY PREDICTED BY IDOCK:   -5.14 KCAL/MOL
REMARK 923 INTER-LIGAND FREE ENERGY PREDICTED BY IDOCK:   -4.74 KCAL/MOL
REMARK 924 INTRA-LIGAND FREE ENERGY PREDICTED BY IDOCK:   -0.40 KCAL/MOL
REMARK 927      BINDING AFFINITY PREDICTED BY RF-SCORE:    0.00 PKD
ROOT
HETATM    1  C   UNL     1     -11.901  11.253  69.280  1.00  0.00    -0.354 C  
HETATM    2  N   UNL     1     -11.122  10.054  69.003  1.00  0.00    -0.209 N  
HETATM    3 CL   UNL     1     -11.031   7.146  67.036  1.00  0.00    -0.410 Cl 
HETATM    4  C   UNL     1     -10.725   9.747  67.694  1.00  0.00    -0.274 C  
HETATM    5 CL   UNL     1      -8.710   8.695  66.185  1.00  0.00    -0.164 Cl 
HETATM    6  C   UNL     1      -9.913   8.457  67.478  1.00  0.00    -0.200 C  
HETATM    7  O   UNL     1     -11.033  10.487  66.753  1.00  0.00    -0.193 OA 
ENDROOT
BRANCH   2   8
HETATM    8  C   UNL     1     -10.804   9.240  70.109  1.00  0.00    -0.242 A  
HETATM    9  C   UNL     1     -11.760   8.354  70.613  1.00  0.00    -0.159 A  
HETATM   10  C   UNL     1     -11.507   7.679  71.806  1.00  0.00    -0.302 A  
HETATM   11  C   UNL     1     -10.297   7.879  72.475  1.00  0.00    -0.285 A  
HETATM   12  C   UNL     1      -9.582   9.415  70.763  1.00  0.00    -0.322 A  
HETATM   13  C   UNL     1      -9.331   8.742  71.959  1.00  0.00    -0.322 A  
BRANCH  11  14
HETATM   14  O   UNL     1     -10.184   7.245  73.732  1.00  0.00    -0.343 OA 
BRANCH  14  15
HETATM   15  C   UNL     1     -10.115   5.857  73.885  1.00  0.00    -0.236 C  
HETATM   16  O   UNL     1     -11.070   5.091  73.855  1.00  0.00    -0.285 OA 
BRANCH  15  17
HETATM   17  C   UNL     1      -8.743   5.457  74.093  1.00  0.00    -0.119 A  
HETATM   18  C   UNL     1      -8.212   4.248  74.507  1.00  0.00    -0.090 A  
HETATM   19  C   UNL     1      -6.806   4.408  74.550  1.00  0.00    -0.066 A  
HETATM   20  C   UNL     1      -6.559   5.701  74.154  1.00  0.00    -0.079 A  
HETATM   21  O   UNL     1      -7.722   6.345  73.873  1.00  0.00    -0.089 OA 
ENDBRANCH  15  17
ENDBRANCH  14  15
ENDBRANCH  11  14
ENDBRANCH   2   8
TORSDOF 4
ENDMDL
MODEL      160
REMARK 921   NORMALIZED FREE ENERGY PREDICTED BY IDOCK:   -3.75 KCAL/MOL
REMARK 922        TOTAL FREE ENERGY PREDICTED BY IDOCK:   -5.14 KCAL/MOL
REMARK 923 INTER-LIGAND FREE ENERGY PREDICTED BY IDOCK:   -4.65 KCAL/MOL
REMARK 924 INTRA-LIGAND FREE ENERGY PREDICTED BY IDOCK:   -0.49 KCAL/MOL
REMARK 927      BINDING AFFINITY PREDICTED BY RF-SCORE:    0.00 PKD
ROOT
HETATM    1  C   UNL     1     -12.658  15.158  64.743  1.00  0.00     0.145 C  
HETATM    2  N   UNL     1     -11.755  14.203  65.371  1.00  0.00    -0.336 N  
HETATM    3 CL   UNL     1     -11.657  11.276  67.308  1.00  0.00    -0.266 Cl 
HETATM    4  C   UNL     1     -11.876  12.831  65.112  1.00  0.00    -0.391 C  
HETATM    5 CL   UNL     1     -10.472  10.519  64.751  1.00  0.00    -0.306 Cl 
HETATM    6  C   UNL     1     -10.892  11.881  65.820  1.00  0.00    -0.295 C  
HETATM    7  O   UNL     1     -12.752  12.408  64.349  1.00  0.00    -0.626 OA 
ENDROOT
BRANCH   2   8
HETATM    8  C   UNL     1     -10.780  14.734  66.237  1.00  0.00    -0.313 A  
HETATM    9  C   UNL     1      -9.540  15.127  65.725  1.00  0.00    -0.344 A  
HETATM   10  C   UNL     1      -8.519  15.489  66.603  1.00  0.00    -0.314 A  
HETATM   11  C   UNL     1      -8.748  15.472  67.981  1.00  0.00    -0.163 A  
HETATM   12  C   UNL     1     -11.017  14.749  67.614  1.00  0.00    -0.292 A  
HETATM   13  C   UNL     1      -9.993  15.106  68.492  1.00  0.00    -0.223 A  
BRANCH  11  14
HETATM   14  O   UNL     1      -7.621  15.737  68.788  1.00  0.00    -0.150 OA 
BRANCH  14  15
HETATM   15  C   UNL     1      -6.956  14.750  69.522  1.00  0.00    -0.176 C  
HETATM   16  O   UNL     1      -6.580  14.861  70.683  1.00  0.00    -0.050 OA 
BRANCH  15  17
HETATM   17  C   UNL     1      -6.769  13.576  68.702  1.00  0.00    -0.094 A  
HETATM   18  C   UNL     1      -7.559  12.450  68.552  1.00  0.00    -0.122 A  
HETATM   19  C   UNL     1      -6.899  11.604  67.629  1.00  0.00    -0.094 A  
HETATM   20  C   UNL     1      -5.750  12.263  67.264  1.00  0.00    -0.131 A  
HETATM   21  O   UNL     1      -5.660  13.457  67.904  1.00  0.00    -0.111 OA 
ENDBRANCH  15  17
ENDBRANCH  14  15
ENDBRANCH  11  14
ENDBRANCH   2   8
TORSDOF 4
ENDMDL
MODEL      161
REMARK 921   NORMALIZED FREE ENERGY PREDICTED BY IDOCK:   -3.70 KCAL/MOL
REMARK 922        TOTAL FREE ENERGY PREDICTED BY IDOCK:   -5.08 KCAL/MOL
REMARK 923 INTER-LIGAND FREE ENERGY PREDICTED BY IDOCK:   -4.56 KCAL/MOL
REMARK 924 INTRA-LIGAND FREE ENERGY PREDICTED BY IDOCK:   -0.52 KCAL/MOL
REMARK 927      BINDING AFFINITY PREDICTED BY RF-SCORE:    0.00 PKD
ROOT
HETATM    1  C   UNL     1      -8.340   3.235  67.215  1.00  0.00    -0.088 C  
HETATM    2  N   UNL     1      -9.068   3.812  66.093  1.00  0.00    -0.142 N  
HETATM    3 CL   UNL     1      -8.896   4.419  62.639  1.00  0.00    -0.110 Cl 
HETATM    4  C   UNL     1      -9.307   3.060  64.935  1.00  0.00    -0.147 C  
HETATM    5 CL   UNL     1     -11.123   2.561  62.960  1.00  0.00    -0.222 Cl 
HETATM    6  C   UNL     1     -10.074   3.741  63.787  1.00  0.00    -0.202 C  
HETATM    7  O   UNL     1      -8.902   1.895  64.846  1.00  0.00    -0.107 OA 
ENDROOT
BRANCH   2   8
HETATM    8  C   UNL     1      -9.501   5.145  66.242  1.00  0.00    -0.156 A  
HETATM    9  C   UNL     1      -8.617   6.193  65.974  1.00  0.00    -0.145 A  
HETATM   10  C   UNL     1      -8.990   7.500  66.286  1.00  0.00    -0.199 A  
HETATM   11  C   UNL     1     -10.246   7.751  66.845  1.00  0.00    -0.303 A  
HETATM   12  C   UNL     1     -10.768   5.401  66.771  1.00  0.00    -0.289 A  
HETATM   13  C   UNL     1     -11.139   6.709  67.088  1.00  0.00    -0.427 A  
BRANCH  11  14
HETATM   14  O   UNL     1     -10.481   9.087  67.235  1.00  0.00    -0.261 OA 
BRANCH  14  15
HETATM   15  C   UNL     1      -9.749   9.733  68.236  1.00  0.00    -0.145 C  
HETATM   16  O   UNL     1      -8.745  10.411  68.055  1.00  0.00    -0.121 OA 
BRANCH  15  17
HETATM   17  C   UNL     1     -10.350   9.475  69.523  1.00  0.00    -0.217 A  
HETATM   18  C   UNL     1     -11.155  10.274  70.316  1.00  0.00    -0.388 A  
HETATM   19  C   UNL     1     -11.455   9.530  71.481  1.00  0.00    -0.466 A  
HETATM   20  C   UNL     1     -10.824   8.318  71.332  1.00  0.00    -0.239 A  
HETATM   21  O   UNL     1     -10.153   8.272  70.151  1.00  0.00    -0.186 OA 
ENDBRANCH  15  17
ENDBRANCH  14  15
ENDBRANCH  11  14
ENDBRANCH   2   8
TORSDOF 4
ENDMDL
MODEL      162
REMARK 921   NORMALIZED FREE ENERGY PREDICTED BY IDOCK:   -3.69 KCAL/MOL
REMARK 922        TOTAL FREE ENERGY PREDICTED BY IDOCK:   -5.07 KCAL/MOL
REMARK 923 INTER-LIGAND FREE ENERGY PREDICTED BY IDOCK:   -4.91 KCAL/MOL
REMARK 924 INTRA-LIGAND FREE ENERGY PREDICTED BY IDOCK:   -0.16 KCAL/MOL
REMARK 927      BINDING AFFINITY PREDICTED BY RF-SCORE:    0.00 PKD
ROOT
HETATM    1  C   UNL     1     -11.004  11.051  69.031  1.00  0.00    -0.233 C  
HETATM    2  N   UNL     1     -10.065  11.220  67.931  1.00  0.00    -0.174 N  
HETATM    3 CL   UNL     1      -6.896  10.259  66.761  1.00  0.00    -0.084 Cl 
HETATM    4  C   UNL     1      -9.546  10.105  67.258  1.00  0.00    -0.159 C  
HETATM    5 CL   UNL     1      -8.774   9.158  64.818  1.00  0.00    -0.211 Cl 
HETATM    6  C   UNL     1      -8.550  10.362  66.112  1.00  0.00    -0.144 C  
HETATM    7  O   UNL     1      -9.874   8.960  67.590  1.00  0.00    -0.164 OA 
ENDROOT
BRANCH   2   8
HETATM    8  C   UNL     1      -9.717  12.544  67.597  1.00  0.00    -0.196 A  
HETATM    9  C   UNL     1     -10.304  13.154  66.486  1.00  0.00    -0.284 A  
HETATM   10  C   UNL     1      -9.834  14.395  66.056  1.00  0.00    -0.342 A  
HETATM   11  C   UNL     1      -8.796  15.023  66.749  1.00  0.00    -0.268 A  
HETATM   12  C   UNL     1      -8.700  13.188  68.307  1.00  0.00    -0.165 A  
HETATM   13  C   UNL     1      -8.227  14.427  67.874  1.00  0.00    -0.157 A  
BRANCH  11  14
HETATM   14  O   UNL     1      -8.311  16.214  66.168  1.00  0.00    -0.318 OA 
BRANCH  14  15
HETATM   15  C   UNL     1      -7.110  16.819  66.550  1.00  0.00    -0.219 C  
HETATM   16  O   UNL     1      -6.043  16.240  66.711  1.00  0.00    -0.316 OA 
BRANCH  15  17
HETATM   17  C   UNL     1      -7.315  18.236  66.737  1.00  0.00    -0.212 A  
HETATM   18  C   UNL     1      -7.240  19.013  67.880  1.00  0.00    -0.261 A  
HETATM   19  C   UNL     1      -7.543  20.341  67.497  1.00  0.00    -0.341 A  
HETATM   20  C   UNL     1      -7.780  20.302  66.143  1.00  0.00    -0.188 A  
HETATM   21  O   UNL     1      -7.644  19.035  65.672  1.00  0.00    -0.474 OA 
ENDBRANCH  15  17
ENDBRANCH  14  15
ENDBRANCH  11  14
ENDBRANCH   2   8
TORSDOF 4
ENDMDL
MODEL      163
REMARK 921   NORMALIZED FREE ENERGY PREDICTED BY IDOCK:   -3.68 KCAL/MOL
REMARK 922        TOTAL FREE ENERGY PREDICTED BY IDOCK:   -5.05 KCAL/MOL
REMARK 923 INTER-LIGAND FREE ENERGY PREDICTED BY IDOCK:   -4.60 KCAL/MOL
REMARK 924 INTRA-LIGAND FREE ENERGY PREDICTED BY IDOCK:   -0.46 KCAL/MOL
REMARK 927      BINDING AFFINITY PREDICTED BY RF-SCORE:    0.00 PKD
ROOT
HETATM    1  C   UNL     1     -13.194   6.849  71.215  1.00  0.00    -0.158 C  
HETATM    2  N   UNL     1     -11.746   6.975  71.115  1.00  0.00    -0.307 N  
HETATM    3 CL   UNL     1      -9.151   9.277  70.569  1.00  0.00    -0.283 Cl 
HETATM    4  C   UNL     1     -11.055   7.905  71.904  1.00  0.00    -0.267 C  
HETATM    5 CL   UNL     1      -8.752   8.338  73.303  1.00  0.00    -0.310 Cl 
HETATM    6  C   UNL     1      -9.526   7.988  71.737  1.00  0.00    -0.169 C  
HETATM    7  O   UNL     1     -11.662   8.635  72.695  1.00  0.00    -0.325 OA 
ENDROOT
BRANCH   2   8
HETATM    8  C   UNL     1     -11.102   6.125  70.194  1.00  0.00    -0.378 A  
HETATM    9  C   UNL     1     -10.333   5.056  70.661  1.00  0.00    -0.278 A  
HETATM   10  C   UNL     1      -9.559   4.324  69.761  1.00  0.00    -0.279 A  
HETATM   11  C   UNL     1      -9.572   4.653  68.404  1.00  0.00    -0.151 A  
HETATM   12  C   UNL     1     -11.138   6.433  68.832  1.00  0.00    -0.420 A  
HETATM   13  C   UNL     1     -10.360   5.703  67.933  1.00  0.00    -0.260 A  
BRANCH  11  14
HETATM   14  O   UNL     1      -8.667   3.934  67.594  1.00  0.00    -0.098 OA 
BRANCH  14  15
HETATM   15  C   UNL     1      -8.997   2.734  66.957  1.00  0.00    -0.156 C  
HETATM   16  O   UNL     1      -9.136   1.651  67.510  1.00  0.00    -0.123 OA 
BRANCH  15  17
HETATM   17  C   UNL     1      -9.144   2.961  65.538  1.00  0.00    -0.147 A  
HETATM   18  C   UNL     1      -9.017   4.122  64.795  1.00  0.00    -0.140 A  
HETATM   19  C   UNL     1      -9.276   3.779  63.447  1.00  0.00    -0.112 A  
HETATM   20  C   UNL     1      -9.540   2.430  63.441  1.00  0.00    -0.103 A  
HETATM   21  O   UNL     1      -9.461   1.923  64.699  1.00  0.00    -0.134 OA 
ENDBRANCH  15  17
ENDBRANCH  14  15
ENDBRANCH  11  14
ENDBRANCH   2   8
TORSDOF 4
ENDMDL
MODEL      164
REMARK 921   NORMALIZED FREE ENERGY PREDICTED BY IDOCK:   -3.67 KCAL/MOL
REMARK 922        TOTAL FREE ENERGY PREDICTED BY IDOCK:   -5.03 KCAL/MOL
REMARK 923 INTER-LIGAND FREE ENERGY PREDICTED BY IDOCK:   -4.60 KCAL/MOL
REMARK 924 INTRA-LIGAND FREE ENERGY PREDICTED BY IDOCK:   -0.44 KCAL/MOL
REMARK 927      BINDING AFFINITY PREDICTED BY RF-SCORE:    0.00 PKD
ROOT
HETATM    1  C   UNL     1     -11.622   6.006  72.326  1.00  0.00    -0.307 C  
HETATM    2  N   UNL     1     -10.436   6.646  71.774  1.00  0.00    -0.208 N  
HETATM    3 CL   UNL     1      -7.422   8.221  72.648  1.00  0.00    -0.157 Cl 
HETATM    4  C   UNL     1      -9.155   6.213  72.143  1.00  0.00    -0.141 C  
HETATM    5 CL   UNL     1      -6.615   5.799  71.235  1.00  0.00    -0.044 Cl 
HETATM    6  C   UNL     1      -7.948   6.944  71.526  1.00  0.00    -0.104 C  
HETATM    7  O   UNL     1      -9.010   5.284  72.946  1.00  0.00    -0.121 OA 
ENDROOT
BRANCH   2   8
HETATM    8  C   UNL     1     -10.654   7.704  70.870  1.00  0.00    -0.213 A  
HETATM    9  C   UNL     1     -10.572   7.467  69.495  1.00  0.00    -0.244 A  
HETATM   10  C   UNL     1     -10.616   8.544  68.610  1.00  0.00    -0.154 A  
HETATM   11  C   UNL     1     -10.759   9.843  69.102  1.00  0.00    -0.224 A  
HETATM   12  C   UNL     1     -10.829   9.001  71.358  1.00  0.00    -0.400 A  
HETATM   13  C   UNL     1     -10.868  10.078  70.472  1.00  0.00    -0.380 A  
BRANCH  11  14
HETATM   14  O   UNL     1     -10.672  10.871  68.139  1.00  0.00    -0.186 OA 
BRANCH  14  15
HETATM   15  C   UNL     1      -9.661  11.837  68.139  1.00  0.00    -0.192 C  
HETATM   16  O   UNL     1      -8.493  11.641  68.449  1.00  0.00    -0.151 OA 
BRANCH  15  17
HETATM   17  C   UNL     1     -10.203  13.110  67.724  1.00  0.00    -0.231 A  
HETATM   18  C   UNL     1     -11.170  13.411  66.780  1.00  0.00    -0.332 A  
HETATM   19  C   UNL     1     -11.311  14.819  66.770  1.00  0.00    -0.347 A  
HETATM   20  C   UNL     1     -10.430  15.297  67.711  1.00  0.00    -0.253 A  
HETATM   21  O   UNL     1      -9.755  14.273  68.296  1.00  0.00    -0.209 OA 
ENDBRANCH  15  17
ENDBRANCH  14  15
ENDBRANCH  11  14
ENDBRANCH   2   8
TORSDOF 4
ENDMDL
MODEL      165
REMARK 921   NORMALIZED FREE ENERGY PREDICTED BY IDOCK:   -3.66 KCAL/MOL
REMARK 922        TOTAL FREE ENERGY PREDICTED BY IDOCK:   -5.03 KCAL/MOL
REMARK 923 INTER-LIGAND FREE ENERGY PREDICTED BY IDOCK:   -4.51 KCAL/MOL
REMARK 924 INTRA-LIGAND FREE ENERGY PREDICTED BY IDOCK:   -0.52 KCAL/MOL
REMARK 927      BINDING AFFINITY PREDICTED BY RF-SCORE:    0.00 PKD
ROOT
HETATM    1  C   UNL     1     -12.156   8.986  71.566  1.00  0.00    -0.340 C  
HETATM    2  N   UNL     1     -11.085   8.390  70.779  1.00  0.00    -0.254 N  
HETATM    3 CL   UNL     1      -8.152   6.474  71.010  1.00  0.00    -0.118 Cl 
HETATM    4  C   UNL     1     -10.793   7.024  70.892  1.00  0.00    -0.241 C  
HETATM    5 CL   UNL     1     -10.014   4.809  69.502  1.00  0.00    -0.292 Cl 
HETATM    6  C   UNL     1      -9.640   6.467  70.036  1.00  0.00    -0.159 C  
HETATM    7  O   UNL     1     -11.435   6.304  71.664  1.00  0.00    -0.282 OA 
ENDROOT
BRANCH   2   8
HETATM    8  C   UNL     1     -10.378   9.255  69.921  1.00  0.00    -0.220 A  
HETATM    9  C   UNL     1     -10.888   9.537  68.650  1.00  0.00    -0.177 A  
HETATM   10  C   UNL     1     -10.107  10.250  67.741  1.00  0.00    -0.213 A  
HETATM   11  C   UNL     1      -8.834  10.690  68.113  1.00  0.00    -0.134 A  
HETATM   12  C   UNL     1      -9.118   9.723  70.301  1.00  0.00    -0.208 A  
HETATM   13  C   UNL     1      -8.335  10.432  69.389  1.00  0.00    -0.152 A  
BRANCH  11  14
HETATM   14  O   UNL     1      -8.076  11.296  67.087  1.00  0.00    -0.137 OA 
BRANCH  14  15
HETATM   15  C   UNL     1      -7.673  12.634  67.122  1.00  0.00    -0.091 C  
HETATM   16  O   UNL     1      -6.514  13.028  67.086  1.00  0.00    -0.224 OA 
BRANCH  15  17
HETATM   17  C   UNL     1      -8.833  13.490  67.216  1.00  0.00    -0.224 A  
HETATM   18  C   UNL     1      -9.215  14.381  68.204  1.00  0.00    -0.199 A  
HETATM   19  C   UNL     1     -10.443  14.950  67.793  1.00  0.00    -0.255 A  
HETATM   20  C   UNL     1     -10.739  14.380  66.577  1.00  0.00    -0.306 A  
HETATM   21  O   UNL     1      -9.772  13.497  66.217  1.00  0.00    -0.285 OA 
ENDBRANCH  15  17
ENDBRANCH  14  15
ENDBRANCH  11  14
ENDBRANCH   2   8
TORSDOF 4
ENDMDL
MODEL      166
REMARK 921   NORMALIZED FREE ENERGY PREDICTED BY IDOCK:   -3.66 KCAL/MOL
REMARK 922        TOTAL FREE ENERGY PREDICTED BY IDOCK:   -5.03 KCAL/MOL
REMARK 923 INTER-LIGAND FREE ENERGY PREDICTED BY IDOCK:   -4.38 KCAL/MOL
REMARK 924 INTRA-LIGAND FREE ENERGY PREDICTED BY IDOCK:   -0.64 KCAL/MOL
REMARK 927      BINDING AFFINITY PREDICTED BY RF-SCORE:    0.00 PKD
ROOT
HETATM    1  C   UNL     1      -6.524  20.547  68.131  1.00  0.00    -0.304 C  
HETATM    2  N   UNL     1      -7.414  19.432  67.838  1.00  0.00    -0.263 N  
HETATM    3 CL   UNL     1     -10.545  18.046  68.617  1.00  0.00    -0.218 Cl 
HETATM    4  C   UNL     1      -8.735  19.661  67.431  1.00  0.00    -0.310 C  
HETATM    5 CL   UNL     1     -10.730  18.769  65.796  1.00  0.00    -0.410 Cl 
HETATM    6  C   UNL     1      -9.619  18.432  67.148  1.00  0.00    -0.295 C  
HETATM    7  O   UNL     1      -9.169  20.813  67.317  1.00  0.00    -0.364 OA 
ENDROOT
BRANCH   2   8
HETATM    8  C   UNL     1      -6.874  18.139  67.990  1.00  0.00    -0.208 A  
HETATM    9  C   UNL     1      -6.410  17.447  66.867  1.00  0.00    -0.217 A  
HETATM   10  C   UNL     1      -6.039  16.109  66.992  1.00  0.00    -0.002 A  
HETATM   11  C   UNL     1      -6.116  15.479  68.237  1.00  0.00    -0.118 A  
HETATM   12  C   UNL     1      -6.921  17.516  69.239  1.00  0.00    -0.172 A  
HETATM   13  C   UNL     1      -6.553  16.176  69.362  1.00  0.00    -0.197 A  
BRANCH  11  14
HETATM   14  O   UNL     1      -5.834  14.096  68.237  1.00  0.00    -0.097 OA 
BRANCH  14  15
HETATM   15  C   UNL     1      -6.671  13.144  68.826  1.00  0.00    -0.100 C  
HETATM   16  O   UNL     1      -6.394  12.466  69.808  1.00  0.00    -0.128 OA 
BRANCH  15  17
HETATM   17  C   UNL     1      -7.915  13.070  68.097  1.00  0.00    -0.154 A  
HETATM   18  C   UNL     1      -9.094  13.778  68.257  1.00  0.00    -0.195 A  
HETATM   19  C   UNL     1      -9.997  13.301  67.278  1.00  0.00    -0.231 A  
HETATM   20  C   UNL     1      -9.319  12.336  66.573  1.00  0.00    -0.230 A  
HETATM   21  O   UNL     1      -8.058  12.188  67.057  1.00  0.00    -0.172 OA 
ENDBRANCH  15  17
ENDBRANCH  14  15
ENDBRANCH  11  14
ENDBRANCH   2   8
TORSDOF 4
ENDMDL
MODEL      167
REMARK 921   NORMALIZED FREE ENERGY PREDICTED BY IDOCK:   -3.66 KCAL/MOL
REMARK 922        TOTAL FREE ENERGY PREDICTED BY IDOCK:   -5.02 KCAL/MOL
REMARK 923 INTER-LIGAND FREE ENERGY PREDICTED BY IDOCK:   -4.94 KCAL/MOL
REMARK 924 INTRA-LIGAND FREE ENERGY PREDICTED BY IDOCK:   -0.08 KCAL/MOL
REMARK 927      BINDING AFFINITY PREDICTED BY RF-SCORE:    0.00 PKD
ROOT
HETATM    1  C   UNL     1     -11.453  15.259  69.876  1.00  0.00    -0.304 C  
HETATM    2  N   UNL     1     -11.271  14.326  68.772  1.00  0.00    -0.249 N  
HETATM    3 CL   UNL     1     -12.734  13.163  65.799  1.00  0.00    -0.341 Cl 
HETATM    4  C   UNL     1     -11.324  14.773  67.445  1.00  0.00    -0.351 C  
HETATM    5 CL   UNL     1     -10.250  14.443  64.958  1.00  0.00    -0.439 Cl 
HETATM    6  C   UNL     1     -11.132  13.728  66.330  1.00  0.00    -0.308 C  
HETATM    7  O   UNL     1     -11.528  15.965  67.189  1.00  0.00    -0.054 OA 
ENDROOT
BRANCH   2   8
HETATM    8  C   UNL     1     -11.048  12.978  69.116  1.00  0.00    -0.192 A  
HETATM    9  C   UNL     1      -9.850  12.360  68.750  1.00  0.00    -0.005 A  
HETATM   10  C   UNL     1      -9.702  10.986  68.937  1.00  0.00    -0.184 A  
HETATM   11  C   UNL     1     -10.743  10.245  69.502  1.00  0.00    -0.249 A  
HETATM   12  C   UNL     1     -12.076  12.241  69.710  1.00  0.00    -0.298 A  
HETATM   13  C   UNL     1     -11.929  10.865  69.892  1.00  0.00    -0.430 A  
BRANCH  11  14
HETATM   14  O   UNL     1     -10.544   8.848  69.539  1.00  0.00    -0.230 OA 
BRANCH  14  15
HETATM   15  C   UNL     1     -11.030   8.032  70.566  1.00  0.00    -0.247 C  
HETATM   16  O   UNL     1     -12.212   7.854  70.831  1.00  0.00    -0.243 OA 
BRANCH  15  17
HETATM   17  C   UNL     1      -9.924   7.434  71.276  1.00  0.00    -0.187 A  
HETATM   18  C   UNL     1      -9.084   7.962  72.241  1.00  0.00    -0.217 A  
HETATM   19  C   UNL     1      -8.167   6.943  72.592  1.00  0.00    -0.115 A  
HETATM   20  C   UNL     1      -8.502   5.850  71.828  1.00  0.00    -0.131 A  
HETATM   21  O   UNL     1      -9.564   6.134  71.030  1.00  0.00    -0.173 OA 
ENDBRANCH  15  17
ENDBRANCH  14  15
ENDBRANCH  11  14
ENDBRANCH   2   8
TORSDOF 4
ENDMDL
MODEL      168
REMARK 921   NORMALIZED FREE ENERGY PREDICTED BY IDOCK:   -3.65 KCAL/MOL
REMARK 922        TOTAL FREE ENERGY PREDICTED BY IDOCK:   -5.01 KCAL/MOL
REMARK 923 INTER-LIGAND FREE ENERGY PREDICTED BY IDOCK:   -4.72 KCAL/MOL
REMARK 924 INTRA-LIGAND FREE ENERGY PREDICTED BY IDOCK:   -0.29 KCAL/MOL
REMARK 927      BINDING AFFINITY PREDICTED BY RF-SCORE:    0.00 PKD
ROOT
HETATM    1  C   UNL     1     -10.580   4.028  64.417  1.00  0.00    -0.186 C  
HETATM    2  N   UNL     1      -9.771   4.184  65.618  1.00  0.00    -0.189 N  
HETATM    3 CL   UNL     1      -9.304   2.960  68.876  1.00  0.00    -0.231 Cl 
HETATM    4  C   UNL     1      -9.116   3.082  66.185  1.00  0.00    -0.141 C  
HETATM    5 CL   UNL     1      -6.842   2.281  67.463  1.00  0.00    -0.039 Cl 
HETATM    6  C   UNL     1      -8.288   3.322  67.461  1.00  0.00    -0.087 C  
HETATM    7  O   UNL     1      -9.216   1.959  65.678  1.00  0.00    -0.100 OA 
ENDROOT
BRANCH   2   8
HETATM    8  C   UNL     1      -9.695   5.481  66.162  1.00  0.00    -0.123 A  
HETATM    9  C   UNL     1     -10.787   6.002  66.863  1.00  0.00    -0.396 A  
HETATM   10  C   UNL     1     -10.777   7.342  67.249  1.00  0.00    -0.391 A  
HETATM   11  C   UNL     1      -9.673   8.144  66.950  1.00  0.00    -0.226 A  
HETATM   12  C   UNL     1      -8.579   6.277  65.892  1.00  0.00    -0.150 A  
HETATM   13  C   UNL     1      -8.572   7.618  66.275  1.00  0.00    -0.153 A  
BRANCH  11  14
HETATM   14  O   UNL     1      -9.808   9.511  67.275  1.00  0.00    -0.159 OA 
BRANCH  14  15
HETATM   15  C   UNL     1     -10.806  10.000  68.124  1.00  0.00    -0.255 C  
HETATM   16  O   UNL     1     -11.785  10.645  67.771  1.00  0.00    -0.503 OA 
BRANCH  15  17
HETATM   17  C   UNL     1     -10.505   9.638  69.489  1.00  0.00    -0.224 A  
HETATM   18  C   UNL     1      -9.288   9.473  70.128  1.00  0.00    -0.286 A  
HETATM   19  C   UNL     1      -9.571   9.106  71.465  1.00  0.00    -0.278 A  
HETATM   20  C   UNL     1     -10.941   9.073  71.569  1.00  0.00    -0.348 A  
HETATM   21  O   UNL     1     -11.517   9.395  70.382  1.00  0.00    -0.256 OA 
ENDBRANCH  15  17
ENDBRANCH  14  15
ENDBRANCH  11  14
ENDBRANCH   2   8
TORSDOF 4
ENDMDL
MODEL      169
REMARK 921   NORMALIZED FREE ENERGY PREDICTED BY IDOCK:   -3.63 KCAL/MOL
REMARK 922        TOTAL FREE ENERGY PREDICTED BY IDOCK:   -4.99 KCAL/MOL
REMARK 923 INTER-LIGAND FREE ENERGY PREDICTED BY IDOCK:   -4.78 KCAL/MOL
REMARK 924 INTRA-LIGAND FREE ENERGY PREDICTED BY IDOCK:   -0.21 KCAL/MOL
REMARK 927      BINDING AFFINITY PREDICTED BY RF-SCORE:    0.00 PKD
ROOT
HETATM    1  C   UNL     1     -10.817  17.536  67.777  1.00  0.00    -0.249 C  
HETATM    2  N   UNL     1      -9.892  16.559  68.334  1.00  0.00    -0.229 N  
HETATM    3 CL   UNL     1      -6.826  14.942  67.769  1.00  0.00    -0.175 Cl 
HETATM    4  C   UNL     1      -8.542  16.884  68.527  1.00  0.00    -0.251 C  
HETATM    5 CL   UNL     1      -6.398  16.532  70.178  1.00  0.00    -0.029 Cl 
HETATM    6  C   UNL     1      -7.622  15.797  69.111  1.00  0.00    -0.212 C  
HETATM    7  O   UNL     1      -8.114  18.004  68.224  1.00  0.00    -0.272 OA 
ENDROOT
BRANCH   2   8
HETATM    8  C   UNL     1     -10.427  15.296  68.656  1.00  0.00    -0.235 A  
HETATM    9  C   UNL     1     -10.081  14.182  67.886  1.00  0.00    -0.235 A  
HETATM   10  C   UNL     1     -10.741  12.972  68.095  1.00  0.00    -0.258 A  
HETATM   11  C   UNL     1     -11.727  12.879  69.081  1.00  0.00    -0.324 A  
HETATM   12  C   UNL     1     -11.390  15.192  69.662  1.00  0.00    -0.302 A  
HETATM   13  C   UNL     1     -12.054  13.982  69.868  1.00  0.00    -0.406 A  
BRANCH  11  14
HETATM   14  O   UNL     1     -12.419  11.649  69.135  1.00  0.00    -0.208 OA 
BRANCH  14  15
HETATM   15  C   UNL     1     -12.643  10.949  70.324  1.00  0.00    -0.265 C  
HETATM   16  O   UNL     1     -13.572  11.143  71.098  1.00  0.00     0.183 OA 
BRANCH  15  17
HETATM   17  C   UNL     1     -11.607   9.960  70.510  1.00  0.00    -0.309 A  
HETATM   18  C   UNL     1     -10.431   9.748  69.811  1.00  0.00    -0.278 A  
HETATM   19  C   UNL     1      -9.790   8.638  70.410  1.00  0.00    -0.207 A  
HETATM   20  C   UNL     1     -10.605   8.240  71.444  1.00  0.00    -0.223 A  
HETATM   21  O   UNL     1     -11.705   9.033  71.515  1.00  0.00    -0.296 OA 
ENDBRANCH  15  17
ENDBRANCH  14  15
ENDBRANCH  11  14
ENDBRANCH   2   8
TORSDOF 4
ENDMDL
MODEL      170
REMARK 921   NORMALIZED FREE ENERGY PREDICTED BY IDOCK:   -3.62 KCAL/MOL
REMARK 922        TOTAL FREE ENERGY PREDICTED BY IDOCK:   -4.98 KCAL/MOL
REMARK 923 INTER-LIGAND FREE ENERGY PREDICTED BY IDOCK:   -4.43 KCAL/MOL
REMARK 924 INTRA-LIGAND FREE ENERGY PREDICTED BY IDOCK:   -0.55 KCAL/MOL
REMARK 927      BINDING AFFINITY PREDICTED BY RF-SCORE:    0.00 PKD
ROOT
HETATM    1  C   UNL     1     -11.402  10.168  70.550  1.00  0.00    -0.338 C  
HETATM    2  N   UNL     1     -10.896  10.775  69.326  1.00  0.00    -0.227 N  
HETATM    3 CL   UNL     1     -11.866  12.550  66.455  1.00  0.00    -0.457 Cl 
HETATM    4  C   UNL     1     -11.173  12.117  69.029  1.00  0.00    -0.260 C  
HETATM    5 CL   UNL     1     -10.149  14.393  67.927  1.00  0.00    -0.226 Cl 
HETATM    6  C   UNL     1     -10.614  12.687  67.712  1.00  0.00    -0.220 C  
HETATM    7  O   UNL     1     -11.853  12.805  69.798  1.00  0.00    -0.315 OA 
ENDROOT
BRANCH   2   8
HETATM    8  C   UNL     1     -10.133   9.947  68.480  1.00  0.00    -0.168 A  
HETATM    9  C   UNL     1     -10.763   9.244  67.449  1.00  0.00    -0.263 A  
HETATM   10  C   UNL     1     -10.041   8.296  66.725  1.00  0.00    -0.373 A  
HETATM   11  C   UNL     1      -8.695   8.070  67.024  1.00  0.00    -0.128 A  
HETATM   12  C   UNL     1      -8.779   9.742  68.756  1.00  0.00    -0.128 A  
HETATM   13  C   UNL     1      -8.059   8.790  68.034  1.00  0.00    -0.107 A  
BRANCH  11  14
HETATM   14  O   UNL     1      -8.086   7.010  66.318  1.00  0.00    -0.106 OA 
BRANCH  14  15
HETATM   15  C   UNL     1      -8.214   5.669  66.692  1.00  0.00    -0.105 C  
HETATM   16  O   UNL     1      -7.745   5.166  67.706  1.00  0.00    -0.086 OA 
BRANCH  15  17
HETATM   17  C   UNL     1      -8.980   4.957  65.696  1.00  0.00    -0.146 A  
HETATM   18  C   UNL     1     -10.279   4.480  65.733  1.00  0.00    -0.289 A  
HETATM   19  C   UNL     1     -10.522   3.850  64.489  1.00  0.00    -0.221 A  
HETATM   20  C   UNL     1      -9.363   3.984  63.762  1.00  0.00    -0.143 A  
HETATM   21  O   UNL     1      -8.424   4.652  64.481  1.00  0.00    -0.123 OA 
ENDBRANCH  15  17
ENDBRANCH  14  15
ENDBRANCH  11  14
ENDBRANCH   2   8
TORSDOF 4
ENDMDL
MODEL      171
REMARK 921   NORMALIZED FREE ENERGY PREDICTED BY IDOCK:   -3.62 KCAL/MOL
REMARK 922        TOTAL FREE ENERGY PREDICTED BY IDOCK:   -4.98 KCAL/MOL
REMARK 923 INTER-LIGAND FREE ENERGY PREDICTED BY IDOCK:   -4.60 KCAL/MOL
REMARK 924 INTRA-LIGAND FREE ENERGY PREDICTED BY IDOCK:   -0.38 KCAL/MOL
REMARK 927      BINDING AFFINITY PREDICTED BY RF-SCORE:    0.00 PKD
ROOT
HETATM    1  C   UNL     1     -12.333  12.144  64.386  1.00  0.00    -0.330 C  
HETATM    2  N   UNL     1     -11.579  12.352  65.614  1.00  0.00    -0.375 N  
HETATM    3 CL   UNL     1      -9.590  14.678  67.337  1.00  0.00    -0.212 Cl 
HETATM    4  C   UNL     1     -11.825  13.472  66.421  1.00  0.00    -0.394 C  
HETATM    5 CL   UNL     1     -11.963  14.348  69.002  1.00  0.00    -0.354 Cl 
HETATM    6  C   UNL     1     -10.981  13.631  67.700  1.00  0.00    -0.267 C  
HETATM    7  O   UNL     1     -12.684  14.302  66.102  1.00  0.00    -0.401 OA 
ENDROOT
BRANCH   2   8
HETATM    8  C   UNL     1     -10.607  11.382  65.929  1.00  0.00    -0.263 A  
HETATM    9  C   UNL     1      -9.434  11.308  65.173  1.00  0.00    -0.242 A  
HETATM   10  C   UNL     1      -8.556  10.243  65.373  1.00  0.00    -0.169 A  
HETATM   11  C   UNL     1      -8.846   9.274  66.336  1.00  0.00    -0.146 A  
HETATM   12  C   UNL     1     -10.879  10.430  66.914  1.00  0.00    -0.229 A  
HETATM   13  C   UNL     1     -10.002   9.362  67.110  1.00  0.00    -0.263 A  
BRANCH  11  14
HETATM   14  O   UNL     1      -7.960   8.175  66.380  1.00  0.00    -0.100 OA 
BRANCH  14  15
HETATM   15  C   UNL     1      -8.378   6.865  66.633  1.00  0.00    -0.118 C  
HETATM   16  O   UNL     1      -8.623   6.399  67.738  1.00  0.00    -0.117 OA 
BRANCH  15  17
HETATM   17  C   UNL     1      -8.470   6.135  65.390  1.00  0.00    -0.138 A  
HETATM   18  C   UNL     1      -8.916   4.850  65.133  1.00  0.00    -0.152 A  
HETATM   19  C   UNL     1      -8.782   4.638  63.741  1.00  0.00    -0.140 A  
HETATM   20  C   UNL     1      -8.269   5.804  63.226  1.00  0.00    -0.075 A  
HETATM   21  O   UNL     1      -8.078   6.718  64.213  1.00  0.00    -0.113 OA 
ENDBRANCH  15  17
ENDBRANCH  14  15
ENDBRANCH  11  14
ENDBRANCH   2   8
TORSDOF 4
ENDMDL
MODEL      172
REMARK 921   NORMALIZED FREE ENERGY PREDICTED BY IDOCK:   -3.62 KCAL/MOL
REMARK 922        TOTAL FREE ENERGY PREDICTED BY IDOCK:   -4.97 KCAL/MOL
REMARK 923 INTER-LIGAND FREE ENERGY PREDICTED BY IDOCK:   -4.50 KCAL/MOL
REMARK 924 INTRA-LIGAND FREE ENERGY PREDICTED BY IDOCK:   -0.47 KCAL/MOL
REMARK 927      BINDING AFFINITY PREDICTED BY RF-SCORE:    0.00 PKD
ROOT
HETATM    1  C   UNL     1     -11.075  14.460  69.943  1.00  0.00    -0.121 C  
HETATM    2  N   UNL     1     -11.024  14.108  68.530  1.00  0.00    -0.245 N  
HETATM    3 CL   UNL     1     -12.908  14.073  65.567  1.00  0.00    -0.534 Cl 
HETATM    4  C   UNL     1     -11.355  15.051  67.548  1.00  0.00    -0.333 C  
HETATM    5 CL   UNL     1     -10.733  15.948  65.046  1.00  0.00    -0.454 Cl 
HETATM    6  C   UNL     1     -11.288  14.603  66.076  1.00  0.00    -0.344 C  
HETATM    7  O   UNL     1     -11.699  16.196  67.863  1.00  0.00    -0.099 OA 
ENDROOT
BRANCH   2   8
HETATM    8  C   UNL     1     -10.633  12.790  68.223  1.00  0.00    -0.238 A  
HETATM    9  C   UNL     1      -9.311  12.529  67.854  1.00  0.00    -0.200 A  
HETATM   10  C   UNL     1      -8.968  11.261  67.386  1.00  0.00    -0.144 A  
HETATM   11  C   UNL     1      -9.941  10.262  67.306  1.00  0.00    -0.190 A  
HETATM   12  C   UNL     1     -11.598  11.781  68.173  1.00  0.00    -0.391 A  
HETATM   13  C   UNL     1     -11.255  10.514  67.699  1.00  0.00    -0.338 A  
BRANCH  11  14
HETATM   14  O   UNL     1      -9.524   9.053  66.708  1.00  0.00    -0.158 OA 
BRANCH  14  15
HETATM   15  C   UNL     1      -8.857   8.997  65.480  1.00  0.00    -0.194 C  
HETATM   16  O   UNL     1      -9.258   9.484  64.431  1.00  0.00    -0.231 OA 
BRANCH  15  17
HETATM   17  C   UNL     1      -7.620   8.267  65.631  1.00  0.00    -0.083 A  
HETATM   18  C   UNL     1      -7.385   6.975  66.069  1.00  0.00    -0.075 A  
HETATM   19  C   UNL     1      -5.985   6.774  66.029  1.00  0.00    -0.034 A  
HETATM   20  C   UNL     1      -5.445   7.949  65.563  1.00  0.00    -0.029 A  
HETATM   21  O   UNL     1      -6.423   8.859  65.317  1.00  0.00    -0.066 OA 
ENDBRANCH  15  17
ENDBRANCH  14  15
ENDBRANCH  11  14
ENDBRANCH   2   8
TORSDOF 4
ENDMDL
MODEL      173
REMARK 921   NORMALIZED FREE ENERGY PREDICTED BY IDOCK:   -3.60 KCAL/MOL
REMARK 922        TOTAL FREE ENERGY PREDICTED BY IDOCK:   -4.95 KCAL/MOL
REMARK 923 INTER-LIGAND FREE ENERGY PREDICTED BY IDOCK:   -4.40 KCAL/MOL
REMARK 924 INTRA-LIGAND FREE ENERGY PREDICTED BY IDOCK:   -0.55 KCAL/MOL
REMARK 927      BINDING AFFINITY PREDICTED BY RF-SCORE:    0.00 PKD
ROOT
HETATM    1  C   UNL     1     -11.168  11.462  69.439  1.00  0.00    -0.268 C  
HETATM    2  N   UNL     1     -11.246  10.066  69.850  1.00  0.00    -0.263 N  
HETATM    3 CL   UNL     1     -10.976   7.928  72.622  1.00  0.00    -0.409 Cl 
HETATM    4  C   UNL     1     -12.094   9.678  70.897  1.00  0.00    -0.300 C  
HETATM    5 CL   UNL     1     -13.759   7.702  71.775  1.00  0.00    -0.412 Cl 
HETATM    6  C   UNL     1     -12.117   8.187  71.282  1.00  0.00    -0.288 C  
HETATM    7  O   UNL     1     -12.786  10.513  71.491  1.00  0.00    -0.387 OA 
ENDROOT
BRANCH   2   8
HETATM    8  C   UNL     1     -10.433   9.156  69.147  1.00  0.00    -0.217 A  
HETATM    9  C   UNL     1      -9.232   8.721  69.714  1.00  0.00    -0.155 A  
HETATM   10  C   UNL     1      -8.349   7.960  68.949  1.00  0.00    -0.127 A  
HETATM   11  C   UNL     1      -8.679   7.624  67.634  1.00  0.00    -0.122 A  
HETATM   12  C   UNL     1     -10.776   8.792  67.842  1.00  0.00    -0.171 A  
HETATM   13  C   UNL     1      -9.889   8.034  67.076  1.00  0.00    -0.295 A  
BRANCH  11  14
HETATM   14  O   UNL     1      -7.671   6.956  66.906  1.00  0.00    -0.096 OA 
BRANCH  14  15
HETATM   15  C   UNL     1      -7.937   5.921  66.003  1.00  0.00    -0.108 C  
HETATM   16  O   UNL     1      -7.857   6.004  64.784  1.00  0.00    -0.098 OA 
BRANCH  15  17
HETATM   17  C   UNL     1      -8.330   4.734  66.726  1.00  0.00    -0.106 A  
HETATM   18  C   UNL     1      -9.313   3.798  66.450  1.00  0.00    -0.197 A  
HETATM   19  C   UNL     1      -9.276   2.843  67.493  1.00  0.00    -0.233 A  
HETATM   20  C   UNL     1      -8.270   3.244  68.341  1.00  0.00    -0.072 A  
HETATM   21  O   UNL     1      -7.690   4.385  67.887  1.00  0.00    -0.079 OA 
ENDBRANCH  15  17
ENDBRANCH  14  15
ENDBRANCH  11  14
ENDBRANCH   2   8
TORSDOF 4
ENDMDL
MODEL      174
REMARK 921   NORMALIZED FREE ENERGY PREDICTED BY IDOCK:   -3.60 KCAL/MOL
REMARK 922        TOTAL FREE ENERGY PREDICTED BY IDOCK:   -4.95 KCAL/MOL
REMARK 923 INTER-LIGAND FREE ENERGY PREDICTED BY IDOCK:   -4.55 KCAL/MOL
REMARK 924 INTRA-LIGAND FREE ENERGY PREDICTED BY IDOCK:   -0.40 KCAL/MOL
REMARK 927      BINDING AFFINITY PREDICTED BY RF-SCORE:    0.00 PKD
ROOT
HETATM    1  C   UNL     1      -8.232   7.424  72.324  1.00  0.00    -0.101 C  
HETATM    2  N   UNL     1      -8.564   7.021  70.965  1.00  0.00    -0.133 N  
HETATM    3 CL   UNL     1      -7.354   5.266  68.174  1.00  0.00    -0.071 Cl 
HETATM    4  C   UNL     1      -8.499   5.673  70.585  1.00  0.00    -0.126 C  
HETATM    5 CL   UNL     1      -9.685   3.748  69.056  1.00  0.00    -0.177 Cl 
HETATM    6  C   UNL     1      -8.855   5.323  69.128  1.00  0.00    -0.099 C  
HETATM    7  O   UNL     1      -8.156   4.805  71.396  1.00  0.00    -0.097 OA 
ENDROOT
BRANCH   2   8
HETATM    8  C   UNL     1      -8.941   8.047  70.077  1.00  0.00    -0.144 A  
HETATM    9  C   UNL     1      -7.959   8.745  69.370  1.00  0.00    -0.100 A  
HETATM   10  C   UNL     1      -8.317   9.870  68.627  1.00  0.00    -0.110 A  
HETATM   11  C   UNL     1      -9.653  10.277  68.582  1.00  0.00    -0.168 A  
HETATM   12  C   UNL     1     -10.281   8.437  70.005  1.00  0.00    -0.202 A  
HETATM   13  C   UNL     1     -10.638   9.566  69.266  1.00  0.00    -0.236 A  
BRANCH  11  14
HETATM   14  O   UNL     1      -9.896  11.491  67.905  1.00  0.00    -0.176 OA 
BRANCH  14  15
HETATM   15  C   UNL     1     -11.131  11.816  67.334  1.00  0.00    -0.282 C  
HETATM   16  O   UNL     1     -12.134  12.146  67.954  1.00  0.00    -0.502 OA 
BRANCH  15  17
HETATM   17  C   UNL     1     -11.051  11.695  65.898  1.00  0.00    -0.264 A  
HETATM   18  C   UNL     1     -11.743  12.359  64.900  1.00  0.00    -0.418 A  
HETATM   19  C   UNL     1     -11.279  11.846  63.665  1.00  0.00    -0.522 A  
HETATM   20  C   UNL     1     -10.327  10.905  63.977  1.00  0.00    -0.349 A  
HETATM   21  O   UNL     1     -10.179  10.806  65.324  1.00  0.00    -0.271 OA 
ENDBRANCH  15  17
ENDBRANCH  14  15
ENDBRANCH  11  14
ENDBRANCH   2   8
TORSDOF 4
ENDMDL
MODEL      175
REMARK 921   NORMALIZED FREE ENERGY PREDICTED BY IDOCK:   -3.58 KCAL/MOL
REMARK 922        TOTAL FREE ENERGY PREDICTED BY IDOCK:   -4.93 KCAL/MOL
REMARK 923 INTER-LIGAND FREE ENERGY PREDICTED BY IDOCK:   -4.99 KCAL/MOL
REMARK 924 INTRA-LIGAND FREE ENERGY PREDICTED BY IDOCK:    0.06 KCAL/MOL
REMARK 927      BINDING AFFINITY PREDICTED BY RF-SCORE:    0.00 PKD
ROOT
HETATM    1  C   UNL     1     -12.388   9.418  71.824  1.00  0.00    -0.394 C  
HETATM    2  N   UNL     1     -11.513   8.967  70.750  1.00  0.00    -0.277 N  
HETATM    3 CL   UNL     1      -8.469   7.344  70.094  1.00  0.00    -0.136 Cl 
HETATM    4  C   UNL     1     -11.086   7.633  70.692  1.00  0.00    -0.257 C  
HETATM    5 CL   UNL     1     -10.511   5.569  69.002  1.00  0.00    -0.306 Cl 
HETATM    6  C   UNL     1     -10.153   7.231  69.534  1.00  0.00    -0.182 C  
HETATM    7  O   UNL     1     -11.442   6.819  71.551  1.00  0.00    -0.260 OA 
ENDROOT
BRANCH   2   8
HETATM    8  C   UNL     1     -11.129   9.934  69.801  1.00  0.00    -0.254 A  
HETATM    9  C   UNL     1      -9.777  10.248  69.640  1.00  0.00    -0.216 A  
HETATM   10  C   UNL     1      -9.414  11.322  68.829  1.00  0.00    -0.147 A  
HETATM   11  C   UNL     1     -10.401  12.062  68.172  1.00  0.00    -0.198 A  
HETATM   12  C   UNL     1     -12.112  10.655  69.118  1.00  0.00    -0.152 A  
HETATM   13  C   UNL     1     -11.748  11.733  68.310  1.00  0.00    -0.377 A  
BRANCH  11  14
HETATM   14  O   UNL     1      -9.943  13.200  67.472  1.00  0.00    -0.217 OA 
BRANCH  14  15
HETATM   15  C   UNL     1      -9.929  13.286  66.077  1.00  0.00    -0.292 C  
HETATM   16  O   UNL     1     -10.157  14.298  65.426  1.00  0.00    -0.346 OA 
BRANCH  15  17
HETATM   17  C   UNL     1      -9.612  11.996  65.512  1.00  0.00    -0.159 A  
HETATM   18  C   UNL     1     -10.412  11.089  64.837  1.00  0.00    -0.371 A  
HETATM   19  C   UNL     1      -9.594   9.981  64.511  1.00  0.00    -0.346 A  
HETATM   20  C   UNL     1      -8.343  10.276  64.999  1.00  0.00    -0.168 A  
HETATM   21  O   UNL     1      -8.341  11.491  65.604  1.00  0.00     0.064 OA 
ENDBRANCH  15  17
ENDBRANCH  14  15
ENDBRANCH  11  14
ENDBRANCH   2   8
TORSDOF 4
ENDMDL
MODEL      176
REMARK 921   NORMALIZED FREE ENERGY PREDICTED BY IDOCK:   -3.58 KCAL/MOL
REMARK 922        TOTAL FREE ENERGY PREDICTED BY IDOCK:   -4.93 KCAL/MOL
REMARK 923 INTER-LIGAND FREE ENERGY PREDICTED BY IDOCK:   -4.38 KCAL/MOL
REMARK 924 INTRA-LIGAND FREE ENERGY PREDICTED BY IDOCK:   -0.55 KCAL/MOL
REMARK 927      BINDING AFFINITY PREDICTED BY RF-SCORE:    0.00 PKD
ROOT
HETATM    1  C   UNL     1      -8.579   5.232  65.667  1.00  0.00    -0.143 C  
HETATM    2  N   UNL     1      -8.482   6.679  65.800  1.00  0.00    -0.146 N  
HETATM    3 CL   UNL     1      -6.209   9.356  65.833  1.00  0.00    -0.062 Cl 
HETATM    4  C   UNL     1      -7.825   7.442  64.825  1.00  0.00    -0.126 C  
HETATM    5 CL   UNL     1      -7.867   9.814  63.476  1.00  0.00    -0.133 Cl 
HETATM    6  C   UNL     1      -7.752   8.965  65.039  1.00  0.00    -0.103 C  
HETATM    7  O   UNL     1      -7.315   6.899  63.838  1.00  0.00    -0.067 OA 
ENDROOT
BRANCH   2   8
HETATM    8  C   UNL     1      -9.072   7.248  66.946  1.00  0.00    -0.141 A  
HETATM    9  C   UNL     1     -10.288   7.925  66.834  1.00  0.00    -0.400 A  
HETATM   10  C   UNL     1     -10.783   8.633  67.928  1.00  0.00    -0.158 A  
HETATM   11  C   UNL     1     -10.069   8.644  69.130  1.00  0.00    -0.199 A  
HETATM   12  C   UNL     1      -8.375   7.234  68.157  1.00  0.00    -0.124 A  
HETATM   13  C   UNL     1      -8.869   7.946  69.251  1.00  0.00    -0.142 A  
BRANCH  11  14
HETATM   14  O   UNL     1     -10.589   9.484  70.138  1.00  0.00    -0.217 OA 
BRANCH  14  15
HETATM   15  C   UNL     1     -11.724   9.165  70.890  1.00  0.00    -0.284 C  
HETATM   16  O   UNL     1     -12.795   9.757  70.844  1.00  0.00    -0.305 OA 
BRANCH  15  17
HETATM   17  C   UNL     1     -11.444   8.032  71.739  1.00  0.00    -0.277 A  
HETATM   18  C   UNL     1     -10.602   7.914  72.832  1.00  0.00    -0.434 A  
HETATM   19  C   UNL     1     -10.701   6.577  73.286  1.00  0.00    -0.300 A  
HETATM   20  C   UNL     1     -11.601   5.957  72.452  1.00  0.00    -0.288 A  
HETATM   21  O   UNL     1     -12.058   6.827  71.514  1.00  0.00    -0.328 OA 
ENDBRANCH  15  17
ENDBRANCH  14  15
ENDBRANCH  11  14
ENDBRANCH   2   8
TORSDOF 4
ENDMDL
MODEL      177
REMARK 921   NORMALIZED FREE ENERGY PREDICTED BY IDOCK:   -3.58 KCAL/MOL
REMARK 922        TOTAL FREE ENERGY PREDICTED BY IDOCK:   -4.92 KCAL/MOL
REMARK 923 INTER-LIGAND FREE ENERGY PREDICTED BY IDOCK:   -5.13 KCAL/MOL
REMARK 924 INTRA-LIGAND FREE ENERGY PREDICTED BY IDOCK:    0.21 KCAL/MOL
REMARK 927      BINDING AFFINITY PREDICTED BY RF-SCORE:    0.00 PKD
ROOT
HETATM    1  C   UNL     1      -8.733  16.371  66.103  1.00  0.00    -0.312 C  
HETATM    2  N   UNL     1      -9.575  15.186  66.012  1.00  0.00    -0.312 N  
HETATM    3 CL   UNL     1     -12.898  14.070  66.229  1.00  0.00    -0.239 Cl 
HETATM    4  C   UNL     1     -10.678  15.160  65.146  1.00  0.00    -0.422 C  
HETATM    5 CL   UNL     1     -12.125  13.577  63.459  1.00  0.00    -0.501 Cl 
HETATM    6  C   UNL     1     -11.528  13.876  65.111  1.00  0.00    -0.321 C  
HETATM    7  O   UNL     1     -10.955  16.142  64.449  1.00  0.00    -0.612 OA 
ENDROOT
BRANCH   2   8
HETATM    8  C   UNL     1      -9.222  14.097  66.832  1.00  0.00    -0.257 A  
HETATM    9  C   UNL     1      -8.649  14.332  68.085  1.00  0.00    -0.172 A  
HETATM   10  C   UNL     1      -8.143  13.260  68.819  1.00  0.00     0.063 A  
HETATM   11  C   UNL     1      -8.228  11.963  68.306  1.00  0.00    -0.157 A  
HETATM   12  C   UNL     1      -9.334  12.796  66.335  1.00  0.00    -0.196 A  
HETATM   13  C   UNL     1      -8.823  11.725  67.068  1.00  0.00    -0.182 A  
BRANCH  11  14
HETATM   14  O   UNL     1      -7.582  10.965  69.067  1.00  0.00    -0.117 OA 
BRANCH  14  15
HETATM   15  C   UNL     1      -7.832   9.599  68.906  1.00  0.00    -0.081 C  
HETATM   16  O   UNL     1      -7.266   8.863  68.107  1.00  0.00    -0.077 OA 
BRANCH  15  17
HETATM   17  C   UNL     1      -8.868   9.181  69.822  1.00  0.00    -0.160 A  
HETATM   18  C   UNL     1      -8.855   9.064  71.201  1.00  0.00    -0.282 A  
HETATM   19  C   UNL     1     -10.135   8.604  71.588  1.00  0.00    -0.365 A  
HETATM   20  C   UNL     1     -10.859   8.473  70.426  1.00  0.00    -0.234 A  
HETATM   21  O   UNL     1     -10.105   8.821  69.352  1.00  0.00    -0.192 OA 
ENDBRANCH  15  17
ENDBRANCH  14  15
ENDBRANCH  11  14
ENDBRANCH   2   8
TORSDOF 4
ENDMDL
MODEL      178
REMARK 921   NORMALIZED FREE ENERGY PREDICTED BY IDOCK:   -3.56 KCAL/MOL
REMARK 922        TOTAL FREE ENERGY PREDICTED BY IDOCK:   -4.91 KCAL/MOL
REMARK 923 INTER-LIGAND FREE ENERGY PREDICTED BY IDOCK:   -5.06 KCAL/MOL
REMARK 924 INTRA-LIGAND FREE ENERGY PREDICTED BY IDOCK:    0.16 KCAL/MOL
REMARK 927      BINDING AFFINITY PREDICTED BY RF-SCORE:    0.00 PKD
ROOT
HETATM    1  C   UNL     1     -12.609  12.614  64.862  1.00  0.00    -0.450 C  
HETATM    2  N   UNL     1     -11.753  13.012  65.971  1.00  0.00    -0.372 N  
HETATM    3 CL   UNL     1      -8.576  14.282  66.761  1.00  0.00    -0.173 Cl 
HETATM    4  C   UNL     1     -11.166  14.284  65.997  1.00  0.00    -0.324 C  
HETATM    5 CL   UNL     1     -10.443  16.352  67.625  1.00  0.00    -0.296 Cl 
HETATM    6  C   UNL     1     -10.265  14.631  67.197  1.00  0.00    -0.256 C  
HETATM    7  O   UNL     1     -11.361  15.088  65.078  1.00  0.00    -0.370 OA 
ENDROOT
BRANCH   2   8
HETATM    8  C   UNL     1     -11.556  12.058  66.989  1.00  0.00    -0.317 A  
HETATM    9  C   UNL     1     -12.010  12.325  68.283  1.00  0.00    -0.259 A  
HETATM   10  C   UNL     1     -11.663  11.462  69.322  1.00  0.00    -0.404 A  
HETATM   11  C   UNL     1     -10.883  10.333  69.058  1.00  0.00    -0.230 A  
HETATM   12  C   UNL     1     -10.803  10.913  66.721  1.00  0.00    -0.283 A  
HETATM   13  C   UNL     1     -10.453  10.052  67.763  1.00  0.00    -0.282 A  
BRANCH  11  14
HETATM   14  O   UNL     1     -10.486   9.590  70.191  1.00  0.00    -0.217 OA 
BRANCH  14  15
HETATM   15  C   UNL     1      -9.903   8.322  70.108  1.00  0.00    -0.184 C  
HETATM   16  O   UNL     1     -10.439   7.271  70.438  1.00  0.00    -0.213 OA 
BRANCH  15  17
HETATM   17  C   UNL     1      -8.564   8.434  69.580  1.00  0.00    -0.132 A  
HETATM   18  C   UNL     1      -8.014   7.940  68.410  1.00  0.00    -0.122 A  
HETATM   19  C   UNL     1      -6.656   8.337  68.393  1.00  0.00    -0.060 A  
HETATM   20  C   UNL     1      -6.455   9.056  69.547  1.00  0.00    -0.043 A  
HETATM   21  O   UNL     1      -7.601   9.123  70.273  1.00  0.00    -0.079 OA 
ENDBRANCH  15  17
ENDBRANCH  14  15
ENDBRANCH  11  14
ENDBRANCH   2   8
TORSDOF 4
ENDMDL
MODEL      179
REMARK 921   NORMALIZED FREE ENERGY PREDICTED BY IDOCK:   -3.56 KCAL/MOL
REMARK 922        TOTAL FREE ENERGY PREDICTED BY IDOCK:   -4.90 KCAL/MOL
REMARK 923 INTER-LIGAND FREE ENERGY PREDICTED BY IDOCK:   -4.84 KCAL/MOL
REMARK 924 INTRA-LIGAND FREE ENERGY PREDICTED BY IDOCK:   -0.05 KCAL/MOL
REMARK 927      BINDING AFFINITY PREDICTED BY RF-SCORE:    0.00 PKD
ROOT
HETATM    1  C   UNL     1     -11.758  12.791  70.158  1.00  0.00    -0.162 C  
HETATM    2  N   UNL     1     -11.811  11.338  70.243  1.00  0.00    -0.341 N  
HETATM    3 CL   UNL     1     -11.464   8.633  72.454  1.00  0.00    -0.418 Cl 
HETATM    4  C   UNL     1     -12.635  10.708  71.186  1.00  0.00    -0.423 C  
HETATM    5 CL   UNL     1     -14.258   8.557  71.616  1.00  0.00    -0.497 Cl 
HETATM    6  C   UNL     1     -12.631   9.169  71.223  1.00  0.00    -0.288 C  
HETATM    7  O   UNL     1     -13.328  11.375  71.963  1.00  0.00    -0.467 OA 
ENDROOT
BRANCH   2   8
HETATM    8  C   UNL     1     -10.997  10.624  69.341  1.00  0.00    -0.255 A  
HETATM    9  C   UNL     1     -11.409  10.465  68.015  1.00  0.00    -0.277 A  
HETATM   10  C   UNL     1     -10.693   9.617  67.172  1.00  0.00    -0.258 A  
HETATM   11  C   UNL     1      -9.563   8.949  67.653  1.00  0.00    -0.148 A  
HETATM   12  C   UNL     1      -9.850   9.981  69.811  1.00  0.00    -0.270 A  
HETATM   13  C   UNL     1      -9.136   9.128  68.968  1.00  0.00    -0.143 A  
BRANCH  11  14
HETATM   14  O   UNL     1      -8.979   8.023  66.762  1.00  0.00    -0.131 OA 
BRANCH  14  15
HETATM   15  C   UNL     1      -8.895   6.653  67.028  1.00  0.00    -0.114 C  
HETATM   16  O   UNL     1      -9.123   6.125  68.109  1.00  0.00    -0.114 OA 
BRANCH  15  17
HETATM   17  C   UNL     1      -8.489   5.949  65.834  1.00  0.00    -0.141 A  
HETATM   18  C   UNL     1      -8.043   6.429  64.615  1.00  0.00    -0.100 A  
HETATM   19  C   UNL     1      -7.792   5.304  63.796  1.00  0.00    -0.091 A  
HETATM   20  C   UNL     1      -8.090   4.201  64.561  1.00  0.00    -0.094 A  
HETATM   21  O   UNL     1      -8.511   4.579  65.796  1.00  0.00    -0.113 OA 
ENDBRANCH  15  17
ENDBRANCH  14  15
ENDBRANCH  11  14
ENDBRANCH   2   8
TORSDOF 4
ENDMDL
MODEL      180
REMARK 921   NORMALIZED FREE ENERGY PREDICTED BY IDOCK:   -3.55 KCAL/MOL
REMARK 922        TOTAL FREE ENERGY PREDICTED BY IDOCK:   -4.90 KCAL/MOL
REMARK 923 INTER-LIGAND FREE ENERGY PREDICTED BY IDOCK:   -4.61 KCAL/MOL
REMARK 924 INTRA-LIGAND FREE ENERGY PREDICTED BY IDOCK:   -0.29 KCAL/MOL
REMARK 927      BINDING AFFINITY PREDICTED BY RF-SCORE:    0.00 PKD
ROOT
HETATM    1  C   UNL     1     -10.750   4.348  65.162  1.00  0.00    -0.113 C  
HETATM    2  N   UNL     1      -9.974   4.663  66.354  1.00  0.00    -0.223 N  
HETATM    3 CL   UNL     1      -9.548   3.826  69.738  1.00  0.00    -0.269 Cl 
HETATM    4  C   UNL     1      -9.302   3.652  67.055  1.00  0.00    -0.198 C  
HETATM    5 CL   UNL     1      -7.037   3.067  68.461  1.00  0.00    -0.049 Cl 
HETATM    6  C   UNL     1      -8.511   4.058  68.312  1.00  0.00    -0.093 C  
HETATM    7  O   UNL     1      -9.360   2.477  66.676  1.00  0.00    -0.092 OA 
ENDROOT
BRANCH   2   8
HETATM    8  C   UNL     1      -9.947   6.015  66.750  1.00  0.00    -0.174 A  
HETATM    9  C   UNL     1      -8.997   6.878  66.197  1.00  0.00    -0.157 A  
HETATM   10  C   UNL     1      -8.858   8.166  66.713  1.00  0.00    -0.156 A  
HETATM   11  C   UNL     1      -9.678   8.587  67.763  1.00  0.00    -0.162 A  
HETATM   12  C   UNL     1     -10.787   6.448  67.779  1.00  0.00    -0.418 A  
HETATM   13  C   UNL     1     -10.644   7.735  68.298  1.00  0.00    -0.169 A  
BRANCH  11  14
HETATM   14  O   UNL     1      -9.381   9.860  68.294  1.00  0.00    -0.131 OA 
BRANCH  14  15
HETATM   15  C   UNL     1     -10.297  10.614  69.034  1.00  0.00    -0.218 C  
HETATM   16  O   UNL     1     -10.655  10.370  70.180  1.00  0.00    -0.273 OA 
BRANCH  15  17
HETATM   17  C   UNL     1     -10.767  11.725  68.242  1.00  0.00    -0.214 A  
HETATM   18  C   UNL     1     -10.484  13.078  68.332  1.00  0.00    -0.261 A  
HETATM   19  C   UNL     1     -11.223  13.722  67.312  1.00  0.00    -0.329 A  
HETATM   20  C   UNL     1     -11.908  12.730  66.653  1.00  0.00    -0.393 A  
HETATM   21  O   UNL     1     -11.639  11.518  67.205  1.00  0.00    -0.516 OA 
ENDBRANCH  15  17
ENDBRANCH  14  15
ENDBRANCH  11  14
ENDBRANCH   2   8
TORSDOF 4
ENDMDL
MODEL      181
REMARK 921   NORMALIZED FREE ENERGY PREDICTED BY IDOCK:   -3.55 KCAL/MOL
REMARK 922        TOTAL FREE ENERGY PREDICTED BY IDOCK:   -4.89 KCAL/MOL
REMARK 923 INTER-LIGAND FREE ENERGY PREDICTED BY IDOCK:   -4.42 KCAL/MOL
REMARK 924 INTRA-LIGAND FREE ENERGY PREDICTED BY IDOCK:   -0.48 KCAL/MOL
REMARK 927      BINDING AFFINITY PREDICTED BY RF-SCORE:    0.00 PKD
ROOT
HETATM    1  C   UNL     1      -9.268   9.545  66.147  1.00  0.00    -0.177 C  
HETATM    2  N   UNL     1      -9.465  10.067  67.493  1.00  0.00    -0.147 N  
HETATM    3 CL   UNL     1     -11.515   9.827  70.334  1.00  0.00    -0.327 Cl 
HETATM    4  C   UNL     1      -9.552   9.198  68.589  1.00  0.00    -0.152 C  
HETATM    5 CL   UNL     1      -8.898   8.888  71.221  1.00  0.00    -0.284 Cl 
HETATM    6  C   UNL     1      -9.771   9.823  69.980  1.00  0.00    -0.250 C  
HETATM    7  O   UNL     1      -9.467   7.975  68.433  1.00  0.00    -0.144 OA 
ENDROOT
BRANCH   2   8
HETATM    8  C   UNL     1      -9.564  11.467  67.617  1.00  0.00    -0.169 A  
HETATM    9  C   UNL     1     -10.739  12.114  67.227  1.00  0.00    -0.264 A  
HETATM   10  C   UNL     1     -10.773  13.508  67.187  1.00  0.00    -0.282 A  
HETATM   11  C   UNL     1      -9.643  14.242  67.555  1.00  0.00    -0.216 A  
HETATM   12  C   UNL     1      -8.445  12.203  68.014  1.00  0.00    -0.170 A  
HETATM   13  C   UNL     1      -8.479  13.597  67.970  1.00  0.00    -0.174 A  
BRANCH  11  14
HETATM   14  O   UNL     1      -9.737  15.638  67.367  1.00  0.00    -0.221 OA 
BRANCH  14  15
HETATM   15  C   UNL     1      -8.845  16.366  66.574  1.00  0.00    -0.281 C  
HETATM   16  O   UNL     1      -8.851  16.402  65.350  1.00  0.00    -0.128 OA 
BRANCH  15  17
HETATM   17  C   UNL     1      -7.904  17.067  67.416  1.00  0.00    -0.171 A  
HETATM   18  C   UNL     1      -8.093  17.733  68.614  1.00  0.00    -0.277 A  
HETATM   19  C   UNL     1      -6.833  18.247  69.003  1.00  0.00    -0.264 A  
HETATM   20  C   UNL     1      -5.947  17.861  68.026  1.00  0.00    -0.165 A  
HETATM   21  O   UNL     1      -6.582  17.145  67.062  1.00  0.00    -0.155 OA 
ENDBRANCH  15  17
ENDBRANCH  14  15
ENDBRANCH  11  14
ENDBRANCH   2   8
TORSDOF 4
ENDMDL
MODEL      182
REMARK 921   NORMALIZED FREE ENERGY PREDICTED BY IDOCK:   -3.55 KCAL/MOL
REMARK 922        TOTAL FREE ENERGY PREDICTED BY IDOCK:   -4.89 KCAL/MOL
REMARK 923 INTER-LIGAND FREE ENERGY PREDICTED BY IDOCK:   -4.39 KCAL/MOL
REMARK 924 INTRA-LIGAND FREE ENERGY PREDICTED BY IDOCK:   -0.50 KCAL/MOL
REMARK 927      BINDING AFFINITY PREDICTED BY RF-SCORE:    0.00 PKD
ROOT
HETATM    1  C   UNL     1      -7.857  12.463  66.967  1.00  0.00    -0.085 C  
HETATM    2  N   UNL     1      -9.284  12.195  67.070  1.00  0.00    -0.195 N  
HETATM    3 CL   UNL     1     -12.364  13.636  67.946  1.00  0.00    -0.158 Cl 
HETATM    4  C   UNL     1     -10.215  13.026  66.431  1.00  0.00    -0.280 C  
HETATM    5 CL   UNL     1     -12.594  13.061  65.095  1.00  0.00    -0.545 Cl 
HETATM    6  C   UNL     1     -11.708  12.685  66.594  1.00  0.00    -0.398 C  
HETATM    7  O   UNL     1      -9.839  14.001  65.771  1.00  0.00    -0.301 OA 
ENDROOT
BRANCH   2   8
HETATM    8  C   UNL     1      -9.661  11.076  67.839  1.00  0.00    -0.172 A  
HETATM    9  C   UNL     1     -10.058  11.251  69.167  1.00  0.00    -0.093 A  
HETATM   10  C   UNL     1     -10.263  10.134  69.975  1.00  0.00    -0.271 A  
HETATM   11  C   UNL     1     -10.087   8.852  69.447  1.00  0.00    -0.202 A  
HETATM   12  C   UNL     1      -9.517   9.793  67.304  1.00  0.00    -0.183 A  
HETATM   13  C   UNL     1      -9.717   8.675  68.115  1.00  0.00    -0.178 A  
BRANCH  11  14
HETATM   14  O   UNL     1     -10.201   7.792  70.372  1.00  0.00    -0.194 OA 
BRANCH  14  15
HETATM   15  C   UNL     1     -10.510   6.480  70.000  1.00  0.00    -0.212 C  
HETATM   16  O   UNL     1     -11.569   6.113  69.507  1.00  0.00    -0.396 OA 
BRANCH  15  17
HETATM   17  C   UNL     1      -9.391   5.615  70.291  1.00  0.00    -0.152 A  
HETATM   18  C   UNL     1      -8.124   5.566  69.736  1.00  0.00    -0.101 A  
HETATM   19  C   UNL     1      -7.429   4.519  70.386  1.00  0.00    -0.050 A  
HETATM   20  C   UNL     1      -8.307   3.992  71.304  1.00  0.00    -0.080 A  
HETATM   21  O   UNL     1      -9.496   4.648  71.257  1.00  0.00    -0.141 OA 
ENDBRANCH  15  17
ENDBRANCH  14  15
ENDBRANCH  11  14
ENDBRANCH   2   8
TORSDOF 4
ENDMDL
MODEL      183
REMARK 921   NORMALIZED FREE ENERGY PREDICTED BY IDOCK:   -3.55 KCAL/MOL
REMARK 922        TOTAL FREE ENERGY PREDICTED BY IDOCK:   -4.88 KCAL/MOL
REMARK 923 INTER-LIGAND FREE ENERGY PREDICTED BY IDOCK:   -4.74 KCAL/MOL
REMARK 924 INTRA-LIGAND FREE ENERGY PREDICTED BY IDOCK:   -0.14 KCAL/MOL
REMARK 927      BINDING AFFINITY PREDICTED BY RF-SCORE:    0.00 PKD
ROOT
HETATM    1  C   UNL     1     -11.997  11.556  68.776  1.00  0.00    -0.271 C  
HETATM    2  N   UNL     1     -11.593  12.820  69.378  1.00  0.00    -0.297 N  
HETATM    3 CL   UNL     1     -12.820  15.871  70.608  1.00  0.00    -0.276 Cl 
HETATM    4  C   UNL     1     -12.167  13.252  70.581  1.00  0.00    -0.338 C  
HETATM    5 CL   UNL     1     -11.662  14.542  72.933  1.00  0.00     0.089 Cl 
HETATM    6  C   UNL     1     -11.698  14.603  71.152  1.00  0.00    -0.277 C  
HETATM    7  O   UNL     1     -13.027  12.570  71.150  1.00  0.00    -0.271 OA 
ENDROOT
BRANCH   2   8
HETATM    8  C   UNL     1     -10.616  13.563  68.687  1.00  0.00    -0.244 A  
HETATM    9  C   UNL     1      -9.264  13.252  68.854  1.00  0.00     0.261 A  
HETATM   10  C   UNL     1      -8.295  14.094  68.310  1.00  0.00    -0.157 A  
HETATM   11  C   UNL     1      -8.682  15.226  67.589  1.00  0.00    -0.172 A  
HETATM   12  C   UNL     1     -11.002  14.678  67.939  1.00  0.00    -0.283 A  
HETATM   13  C   UNL     1     -10.031  15.522  67.398  1.00  0.00    -0.234 A  
BRANCH  11  14
HETATM   14  O   UNL     1      -7.631  16.076  67.181  1.00  0.00    -0.169 OA 
BRANCH  14  15
HETATM   15  C   UNL     1      -7.380  17.319  67.771  1.00  0.00    -0.171 C  
HETATM   16  O   UNL     1      -6.411  17.591  68.468  1.00  0.00    -0.169 OA 
BRANCH  15  17
HETATM   17  C   UNL     1      -8.443  18.239  67.442  1.00  0.00    -0.249 A  
HETATM   18  C   UNL     1      -8.704  18.929  66.271  1.00  0.00    -0.260 A  
HETATM   19  C   UNL     1      -9.870  19.699  66.497  1.00  0.00    -0.523 A  
HETATM   20  C   UNL     1     -10.258  19.431  67.788  1.00  0.00    -0.419 A  
HETATM   21  O   UNL     1      -9.405  18.548  68.369  1.00  0.00    -0.312 OA 
ENDBRANCH  15  17
ENDBRANCH  14  15
ENDBRANCH  11  14
ENDBRANCH   2   8
TORSDOF 4
ENDMDL
MODEL      184
REMARK 921   NORMALIZED FREE ENERGY PREDICTED BY IDOCK:   -3.54 KCAL/MOL
REMARK 922        TOTAL FREE ENERGY PREDICTED BY IDOCK:   -4.88 KCAL/MOL
REMARK 923 INTER-LIGAND FREE ENERGY PREDICTED BY IDOCK:   -4.43 KCAL/MOL
REMARK 924 INTRA-LIGAND FREE ENERGY PREDICTED BY IDOCK:   -0.45 KCAL/MOL
REMARK 927      BINDING AFFINITY PREDICTED BY RF-SCORE:    0.00 PKD
ROOT
HETATM    1  C   UNL     1     -11.406   8.016  72.616  1.00  0.00    -0.405 C  
HETATM    2  N   UNL     1     -10.776   6.841  72.028  1.00  0.00    -0.214 N  
HETATM    3 CL   UNL     1      -8.066   4.634  72.364  1.00  0.00    -0.104 Cl 
HETATM    4  C   UNL     1     -10.500   5.712  72.812  1.00  0.00    -0.211 C  
HETATM    5 CL   UNL     1     -10.431   2.984  72.811  1.00  0.00    -0.234 Cl 
HETATM    6  C   UNL     1      -9.824   4.512  72.124  1.00  0.00    -0.177 C  
HETATM    7  O   UNL     1     -10.783   5.696  74.015  1.00  0.00    -0.264 OA 
ENDROOT
BRANCH   2   8
HETATM    8  C   UNL     1     -10.467   6.912  70.655  1.00  0.00    -0.210 A  
HETATM    9  C   UNL     1     -11.327   6.328  69.721  1.00  0.00    -0.506 A  
HETATM   10  C   UNL     1     -10.936   6.248  68.386  1.00  0.00    -0.409 A  
HETATM   11  C   UNL     1      -9.700   6.765  67.990  1.00  0.00    -0.124 A  
HETATM   12  C   UNL     1      -9.245   7.457  70.253  1.00  0.00    -0.154 A  
HETATM   13  C   UNL     1      -8.853   7.372  68.916  1.00  0.00    -0.131 A  
BRANCH  11  14
HETATM   14  O   UNL     1      -9.344   6.529  66.645  1.00  0.00    -0.150 OA 
BRANCH  14  15
HETATM   15  C   UNL     1      -8.508   5.481  66.247  1.00  0.00    -0.122 C  
HETATM   16  O   UNL     1      -7.449   5.177  66.781  1.00  0.00    -0.085 OA 
BRANCH  15  17
HETATM   17  C   UNL     1      -9.077   4.812  65.101  1.00  0.00    -0.155 A  
HETATM   18  C   UNL     1      -8.554   4.589  63.839  1.00  0.00    -0.126 A  
HETATM   19  C   UNL     1      -9.540   3.892  63.101  1.00  0.00    -0.148 A  
HETATM   20  C   UNL     1     -10.604   3.722  63.955  1.00  0.00    -0.261 A  
HETATM   21  O   UNL     1     -10.335   4.272  65.167  1.00  0.00    -0.241 OA 
ENDBRANCH  15  17
ENDBRANCH  14  15
ENDBRANCH  11  14
ENDBRANCH   2   8
TORSDOF 4
ENDMDL
MODEL      185
REMARK 921   NORMALIZED FREE ENERGY PREDICTED BY IDOCK:   -3.54 KCAL/MOL
REMARK 922        TOTAL FREE ENERGY PREDICTED BY IDOCK:   -4.88 KCAL/MOL
REMARK 923 INTER-LIGAND FREE ENERGY PREDICTED BY IDOCK:   -4.34 KCAL/MOL
REMARK 924 INTRA-LIGAND FREE ENERGY PREDICTED BY IDOCK:   -0.54 KCAL/MOL
REMARK 927      BINDING AFFINITY PREDICTED BY RF-SCORE:    0.00 PKD
ROOT
HETATM    1  C   UNL     1     -10.959  12.923  64.433  1.00  0.00    -0.371 C  
HETATM    2  N   UNL     1     -10.697  13.174  65.844  1.00  0.00    -0.271 N  
HETATM    3 CL   UNL     1      -8.765  15.110  68.047  1.00  0.00    -0.162 Cl 
HETATM    4  C   UNL     1     -10.778  14.473  66.364  1.00  0.00    -0.309 C  
HETATM    5 CL   UNL     1     -11.518  15.939  68.544  1.00  0.00    -0.381 Cl 
HETATM    6  C   UNL     1     -10.477  14.663  67.862  1.00  0.00    -0.242 C  
HETATM    7  O   UNL     1     -11.071  15.427  65.634  1.00  0.00    -0.322 OA 
ENDROOT
BRANCH   2   8
HETATM    8  C   UNL     1     -10.360  12.056  66.631  1.00  0.00    -0.208 A  
HETATM    9  C   UNL     1      -9.029  11.637  66.704  1.00  0.00    -0.189 A  
HETATM   10  C   UNL     1      -8.723  10.434  67.340  1.00  0.00    -0.125 A  
HETATM   11  C   UNL     1      -9.743   9.670  67.912  1.00  0.00    -0.146 A  
HETATM   12  C   UNL     1     -11.375  11.306  67.231  1.00  0.00    -0.329 A  
HETATM   13  C   UNL     1     -11.068  10.100  67.863  1.00  0.00    -0.303 A  
BRANCH  11  14
HETATM   14  O   UNL     1      -9.348   8.415  68.425  1.00  0.00    -0.136 OA 
BRANCH  14  15
HETATM   15  C   UNL     1      -9.784   7.199  67.891  1.00  0.00    -0.138 C  
HETATM   16  O   UNL     1     -10.929   6.768  67.948  1.00  0.00    -0.252 OA 
BRANCH  15  17
HETATM   17  C   UNL     1      -8.677   6.517  67.264  1.00  0.00    -0.110 A  
HETATM   18  C   UNL     1      -7.373   6.929  67.048  1.00  0.00    -0.086 A  
HETATM   19  C   UNL     1      -6.710   5.870  66.384  1.00  0.00    -0.057 A  
HETATM   20  C   UNL     1      -7.642   4.870  66.238  1.00  0.00    -0.087 A  
HETATM   21  O   UNL     1      -8.834   5.248  66.768  1.00  0.00    -0.112 OA 
ENDBRANCH  15  17
ENDBRANCH  14  15
ENDBRANCH  11  14
ENDBRANCH   2   8
TORSDOF 4
ENDMDL
MODEL      186
REMARK 921   NORMALIZED FREE ENERGY PREDICTED BY IDOCK:   -3.53 KCAL/MOL
REMARK 922        TOTAL FREE ENERGY PREDICTED BY IDOCK:   -4.87 KCAL/MOL
REMARK 923 INTER-LIGAND FREE ENERGY PREDICTED BY IDOCK:   -4.36 KCAL/MOL
REMARK 924 INTRA-LIGAND FREE ENERGY PREDICTED BY IDOCK:   -0.51 KCAL/MOL
REMARK 927      BINDING AFFINITY PREDICTED BY RF-SCORE:    0.00 PKD
ROOT
HETATM    1  C   UNL     1      -6.269   5.182  73.703  1.00  0.00    -0.055 C  
HETATM    2  N   UNL     1      -7.612   5.324  73.158  1.00  0.00    -0.095 N  
HETATM    3 CL   UNL     1     -10.007   3.754  71.126  1.00  0.00    -0.209 Cl 
HETATM    4  C   UNL     1      -8.566   4.313  73.339  1.00  0.00    -0.093 C  
HETATM    5 CL   UNL     1     -11.215   3.828  73.781  1.00  0.00    -0.286 Cl 
HETATM    6  C   UNL     1      -9.962   4.530  72.726  1.00  0.00    -0.160 C  
HETATM    7  O   UNL     1      -8.282   3.284  73.962  1.00  0.00    -0.072 OA 
ENDROOT
BRANCH   2   8
HETATM    8  C   UNL     1      -7.883   6.512  72.451  1.00  0.00    -0.101 A  
HETATM    9  C   UNL     1      -8.341   7.638  73.140  1.00  0.00    -0.184 A  
HETATM   10  C   UNL     1      -8.772   8.753  72.422  1.00  0.00    -0.027 A  
HETATM   11  C   UNL     1      -8.725   8.742  71.026  1.00  0.00    -0.202 A  
HETATM   12  C   UNL     1      -7.807   6.515  71.056  1.00  0.00    -0.110 A  
HETATM   13  C   UNL     1      -8.242   7.630  70.338  1.00  0.00    -0.122 A  
BRANCH  11  14
HETATM   14  O   UNL     1      -9.293   9.867  70.390  1.00  0.00    -0.193 OA 
BRANCH  14  15
HETATM   15  C   UNL     1     -10.484   9.813  69.659  1.00  0.00    -0.242 C  
HETATM   16  O   UNL     1     -10.566   9.651  68.448  1.00  0.00    -0.214 OA 
BRANCH  15  17
HETATM   17  C   UNL     1     -11.609   9.985  70.547  1.00  0.00    -0.323 A  
HETATM   18  C   UNL     1     -12.383  11.102  70.811  1.00  0.00    -0.504 A  
HETATM   19  C   UNL     1     -13.348  10.716  71.772  1.00  0.00    -0.437 A  
HETATM   20  C   UNL     1     -13.114   9.388  72.035  1.00  0.00    -0.433 A  
HETATM   21  O   UNL     1     -12.066   8.934  71.299  1.00  0.00    -0.294 OA 
ENDBRANCH  15  17
ENDBRANCH  14  15
ENDBRANCH  11  14
ENDBRANCH   2   8
TORSDOF 4
ENDMDL
MODEL      187
REMARK 921   NORMALIZED FREE ENERGY PREDICTED BY IDOCK:   -3.51 KCAL/MOL
REMARK 922        TOTAL FREE ENERGY PREDICTED BY IDOCK:   -4.84 KCAL/MOL
REMARK 923 INTER-LIGAND FREE ENERGY PREDICTED BY IDOCK:   -4.46 KCAL/MOL
REMARK 924 INTRA-LIGAND FREE ENERGY PREDICTED BY IDOCK:   -0.38 KCAL/MOL
REMARK 927      BINDING AFFINITY PREDICTED BY RF-SCORE:    0.00 PKD
ROOT
HETATM    1  C   UNL     1     -11.917  12.146  69.847  1.00  0.00    -0.309 C  
HETATM    2  N   UNL     1     -11.339  10.810  69.792  1.00  0.00    -0.276 N  
HETATM    3 CL   UNL     1      -9.432   8.491  71.613  1.00  0.00    -0.286 Cl 
HETATM    4  C   UNL     1     -11.603   9.877  70.804  1.00  0.00    -0.349 C  
HETATM    5 CL   UNL     1     -12.047   7.233  71.311  1.00  0.00    -0.354 Cl 
HETATM    6  C   UNL     1     -10.949   8.488  70.684  1.00  0.00    -0.239 C  
HETATM    7  O   UNL     1     -12.328  10.173  71.761  1.00  0.00    -0.388 OA 
ENDROOT
BRANCH   2   8
HETATM    8  C   UNL     1     -10.515  10.525  68.686  1.00  0.00    -0.191 A  
HETATM    9  C   UNL     1      -9.250  11.111  68.597  1.00  0.00    -0.173 A  
HETATM   10  C   UNL     1      -8.509  10.967  67.424  1.00  0.00    -0.120 A  
HETATM   11  C   UNL     1      -9.028  10.225  66.360  1.00  0.00    -0.148 A  
HETATM   12  C   UNL     1     -11.019   9.757  67.633  1.00  0.00    -0.226 A  
HETATM   13  C   UNL     1     -10.278   9.617  66.458  1.00  0.00    -0.294 A  
BRANCH  11  14
HETATM   14  O   UNL     1      -8.257  10.237  65.177  1.00  0.00    -0.153 OA 
BRANCH  14  15
HETATM   15  C   UNL     1      -8.684   9.657  63.979  1.00  0.00    -0.219 C  
HETATM   16  O   UNL     1      -9.619  10.050  63.294  1.00  0.00    -0.270 OA 
BRANCH  15  17
HETATM   17  C   UNL     1      -7.860   8.512  63.672  1.00  0.00    -0.151 A  
HETATM   18  C   UNL     1      -7.870   7.230  64.194  1.00  0.00    -0.118 A  
HETATM   19  C   UNL     1      -6.842   6.510  63.541  1.00  0.00    -0.049 A  
HETATM   20  C   UNL     1      -6.268   7.388  62.653  1.00  0.00    -0.054 A  
HETATM   21  O   UNL     1      -6.875   8.601  62.721  1.00  0.00    -0.091 OA 
ENDBRANCH  15  17
ENDBRANCH  14  15
ENDBRANCH  11  14
ENDBRANCH   2   8
TORSDOF 4
ENDMDL
MODEL      188
REMARK 921   NORMALIZED FREE ENERGY PREDICTED BY IDOCK:   -3.50 KCAL/MOL
REMARK 922        TOTAL FREE ENERGY PREDICTED BY IDOCK:   -4.82 KCAL/MOL
REMARK 923 INTER-LIGAND FREE ENERGY PREDICTED BY IDOCK:   -4.45 KCAL/MOL
REMARK 924 INTRA-LIGAND FREE ENERGY PREDICTED BY IDOCK:   -0.37 KCAL/MOL
REMARK 927      BINDING AFFINITY PREDICTED BY RF-SCORE:    0.00 PKD
ROOT
HETATM    1  C   UNL     1     -10.313   6.919  73.710  1.00  0.00    -0.376 C  
HETATM    2  N   UNL     1     -10.096   5.959  72.636  1.00  0.00    -0.177 N  
HETATM    3 CL   UNL     1      -7.813   3.602  71.386  1.00  0.00    -0.059 Cl 
HETATM    4  C   UNL     1      -9.782   4.624  72.925  1.00  0.00    -0.136 C  
HETATM    5 CL   UNL     1     -10.165   2.042  72.129  1.00  0.00    -0.231 Cl 
HETATM    6  C   UNL     1      -9.556   3.670  71.737  1.00  0.00    -0.151 C  
HETATM    7  O   UNL     1      -9.682   4.239  74.095  1.00  0.00    -0.112 OA 
ENDROOT
BRANCH   2   8
HETATM    8  C   UNL     1     -10.214   6.449  71.320  1.00  0.00    -0.200 A  
HETATM    9  C   UNL     1     -11.398   6.238  70.608  1.00  0.00    -0.409 A  
HETATM   10  C   UNL     1     -11.452   6.568  69.254  1.00  0.00    -0.307 A  
HETATM   11  C   UNL     1     -10.332   7.122  68.628  1.00  0.00    -0.187 A  
HETATM   12  C   UNL     1      -9.106   7.031  70.700  1.00  0.00    -0.158 A  
HETATM   13  C   UNL     1      -9.159   7.357  69.344  1.00  0.00    -0.139 A  
BRANCH  11  14
HETATM   14  O   UNL     1     -10.445   7.309  67.234  1.00  0.00    -0.245 OA 
BRANCH  14  15
HETATM   15  C   UNL     1      -9.501   8.009  66.476  1.00  0.00    -0.214 C  
HETATM   16  O   UNL     1      -8.547   7.509  65.893  1.00  0.00    -0.144 OA 
BRANCH  15  17
HETATM   17  C   UNL     1      -9.813   9.419  66.490  1.00  0.00    -0.258 A  
HETATM   18  C   UNL     1     -10.834  10.108  67.122  1.00  0.00    -0.257 A  
HETATM   19  C   UNL     1     -10.675  11.474  66.791  1.00  0.00    -0.311 A  
HETATM   20  C   UNL     1      -9.565  11.544  65.983  1.00  0.00    -0.228 A  
HETATM   21  O   UNL     1      -9.034  10.308  65.795  1.00  0.00    -0.151 OA 
ENDBRANCH  15  17
ENDBRANCH  14  15
ENDBRANCH  11  14
ENDBRANCH   2   8
TORSDOF 4
ENDMDL
MODEL      189
REMARK 921   NORMALIZED FREE ENERGY PREDICTED BY IDOCK:   -3.47 KCAL/MOL
REMARK 922        TOTAL FREE ENERGY PREDICTED BY IDOCK:   -4.79 KCAL/MOL
REMARK 923 INTER-LIGAND FREE ENERGY PREDICTED BY IDOCK:   -4.36 KCAL/MOL
REMARK 924 INTRA-LIGAND FREE ENERGY PREDICTED BY IDOCK:   -0.43 KCAL/MOL
REMARK 927      BINDING AFFINITY PREDICTED BY RF-SCORE:    0.00 PKD
ROOT
HETATM    1  C   UNL     1      -6.299  19.426  68.513  1.00  0.00    -0.249 C  
HETATM    2  N   UNL     1      -7.497  18.812  67.959  1.00  0.00    -0.246 N  
HETATM    3 CL   UNL     1     -11.005  18.838  68.117  1.00  0.00    -0.034 Cl 
HETATM    4  C   UNL     1      -8.515  19.603  67.408  1.00  0.00    -0.305 C  
HETATM    5 CL   UNL     1     -10.374  19.741  65.415  1.00  0.00    -0.241 Cl 
HETATM    6  C   UNL     1      -9.757  18.884  66.850  1.00  0.00    -0.318 C  
HETATM    7  O   UNL     1      -8.413  20.835  67.387  1.00  0.00    -0.300 OA 
ENDROOT
BRANCH   2   8
HETATM    8  C   UNL     1      -7.568  17.406  68.013  1.00  0.00    -0.206 A  
HETATM    9  C   UNL     1      -7.111  16.648  66.932  1.00  0.00    -0.264 A  
HETATM   10  C   UNL     1      -7.339  15.272  66.914  1.00  0.00     0.090 A  
HETATM   11  C   UNL     1      -8.004  14.663  67.981  1.00  0.00    -0.136 A  
HETATM   12  C   UNL     1      -8.205  16.790  69.094  1.00  0.00    -0.098 A  
HETATM   13  C   UNL     1      -8.437  15.414  69.072  1.00  0.00    -0.229 A  
BRANCH  11  14
HETATM   14  O   UNL     1      -8.292  13.291  67.814  1.00  0.00    -0.145 OA 
BRANCH  14  15
HETATM   15  C   UNL     1      -9.587  12.799  67.619  1.00  0.00    -0.192 C  
HETATM   16  O   UNL     1     -10.043  11.783  68.127  1.00  0.00    -0.180 OA 
BRANCH  15  17
HETATM   17  C   UNL     1     -10.308  13.668  66.719  1.00  0.00    -0.268 A  
HETATM   18  C   UNL     1     -10.353  13.692  65.336  1.00  0.00    -0.345 A  
HETATM   19  C   UNL     1     -11.210  14.757  64.970  1.00  0.00    -0.399 A  
HETATM   20  C   UNL     1     -11.645  15.317  66.147  1.00  0.00     0.008 A  
HETATM   21  O   UNL     1     -11.108  14.667  67.212  1.00  0.00    -0.307 OA 
ENDBRANCH  15  17
ENDBRANCH  14  15
ENDBRANCH  11  14
ENDBRANCH   2   8
TORSDOF 4
ENDMDL
MODEL      190
REMARK 921   NORMALIZED FREE ENERGY PREDICTED BY IDOCK:   -3.46 KCAL/MOL
REMARK 922        TOTAL FREE ENERGY PREDICTED BY IDOCK:   -4.78 KCAL/MOL
REMARK 923 INTER-LIGAND FREE ENERGY PREDICTED BY IDOCK:   -4.17 KCAL/MOL
REMARK 924 INTRA-LIGAND FREE ENERGY PREDICTED BY IDOCK:   -0.61 KCAL/MOL
REMARK 927      BINDING AFFINITY PREDICTED BY RF-SCORE:    0.00 PKD
ROOT
HETATM    1  C   UNL     1      -9.957  10.611  65.299  1.00  0.00    -0.294 C  
HETATM    2  N   UNL     1      -9.205   9.476  65.815  1.00  0.00    -0.194 N  
HETATM    3 CL   UNL     1      -8.799   6.000  65.522  1.00  0.00    -0.126 Cl 
HETATM    4  C   UNL     1      -8.515   8.622  64.944  1.00  0.00    -0.161 C  
HETATM    5 CL   UNL     1      -6.252   7.125  64.649  1.00  0.00    -0.037 Cl 
HETATM    6  C   UNL     1      -7.750   7.437  65.562  1.00  0.00    -0.107 C  
HETATM    7  O   UNL     1      -8.534   8.817  63.723  1.00  0.00    -0.171 OA 
ENDROOT
BRANCH   2   8
HETATM    8  C   UNL     1      -9.220   9.293  67.212  1.00  0.00    -0.126 A  
HETATM    9  C   UNL     1     -10.340   8.722  67.823  1.00  0.00    -0.297 A  
HETATM   10  C   UNL     1     -10.425   8.700  69.214  1.00  0.00    -0.226 A  
HETATM   11  C   UNL     1      -9.387   9.231  69.983  1.00  0.00    -0.209 A  
HETATM   12  C   UNL     1      -8.168   9.794  67.983  1.00  0.00    -0.109 A  
HETATM   13  C   UNL     1      -8.257   9.776  69.375  1.00  0.00    -0.135 A  
BRANCH  11  14
HETATM   14  O   UNL     1      -9.620   9.271  71.375  1.00  0.00    -0.266 OA 
BRANCH  14  15
HETATM   15  C   UNL     1      -8.955   8.445  72.287  1.00  0.00    -0.233 C  
HETATM   16  O   UNL     1      -7.930   8.735  72.891  1.00  0.00    -0.391 OA 
BRANCH  15  17
HETATM   17  C   UNL     1      -9.655   7.188  72.405  1.00  0.00    -0.146 A  
HETATM   18  C   UNL     1     -10.987   6.922  72.671  1.00  0.00    -0.303 A  
HETATM   19  C   UNL     1     -11.132   5.514  72.683  1.00  0.00    -0.334 A  
HETATM   20  C   UNL     1      -9.885   5.001  72.418  1.00  0.00    -0.169 A  
HETATM   21  O   UNL     1      -8.983   6.003  72.246  1.00  0.00    -0.141 OA 
ENDBRANCH  15  17
ENDBRANCH  14  15
ENDBRANCH  11  14
ENDBRANCH   2   8
TORSDOF 4
ENDMDL
MODEL      191
REMARK 921   NORMALIZED FREE ENERGY PREDICTED BY IDOCK:   -3.46 KCAL/MOL
REMARK 922        TOTAL FREE ENERGY PREDICTED BY IDOCK:   -4.78 KCAL/MOL
REMARK 923 INTER-LIGAND FREE ENERGY PREDICTED BY IDOCK:   -4.34 KCAL/MOL
REMARK 924 INTRA-LIGAND FREE ENERGY PREDICTED BY IDOCK:   -0.44 KCAL/MOL
REMARK 927      BINDING AFFINITY PREDICTED BY RF-SCORE:    0.00 PKD
ROOT
HETATM    1  C   UNL     1     -12.840   6.749  71.231  1.00  0.00    -0.198 C  
HETATM    2  N   UNL     1     -11.420   6.994  71.024  1.00  0.00    -0.287 N  
HETATM    3 CL   UNL     1      -9.043   9.530  70.525  1.00  0.00    -0.300 Cl 
HETATM    4  C   UNL     1     -10.721   7.883  71.852  1.00  0.00    -0.237 C  
HETATM    5 CL   UNL     1      -8.332   8.336  73.091  1.00  0.00    -0.262 Cl 
HETATM    6  C   UNL     1      -9.223   8.099  71.566  1.00  0.00    -0.161 C  
HETATM    7  O   UNL     1     -11.299   8.476  72.769  1.00  0.00    -0.286 OA 
ENDROOT
BRANCH   2   8
HETATM    8  C   UNL     1     -10.809   6.299  69.961  1.00  0.00    -0.324 A  
HETATM    9  C   UNL     1     -11.087   6.669  68.643  1.00  0.00    -0.288 A  
HETATM   10  C   UNL     1     -10.621   5.876  67.595  1.00  0.00    -0.335 A  
HETATM   11  C   UNL     1      -9.868   4.732  67.871  1.00  0.00    -0.134 A  
HETATM   12  C   UNL     1     -10.029   5.172  70.234  1.00  0.00    -0.320 A  
HETATM   13  C   UNL     1      -9.567   4.376  69.185  1.00  0.00    -0.252 A  
BRANCH  11  14
HETATM   14  O   UNL     1      -9.545   3.932  66.753  1.00  0.00    -0.198 OA 
BRANCH  14  15
HETATM   15  C   UNL     1      -9.468   4.433  65.450  1.00  0.00    -0.175 C  
HETATM   16  O   UNL     1     -10.288   4.234  64.563  1.00  0.00    -0.165 OA 
BRANCH  15  17
HETATM   17  C   UNL     1      -8.266   5.220  65.302  1.00  0.00    -0.130 A  
HETATM   18  C   UNL     1      -6.939   4.881  65.505  1.00  0.00    -0.062 A  
HETATM   19  C   UNL     1      -6.171   6.035  65.222  1.00  0.00    -0.037 A  
HETATM   20  C   UNL     1      -7.069   7.010  64.856  1.00  0.00    -0.064 A  
HETATM   21  O   UNL     1      -8.338   6.528  64.899  1.00  0.00    -0.126 OA 
ENDBRANCH  15  17
ENDBRANCH  14  15
ENDBRANCH  11  14
ENDBRANCH   2   8
TORSDOF 4
ENDMDL
MODEL      192
REMARK 921   NORMALIZED FREE ENERGY PREDICTED BY IDOCK:   -3.45 KCAL/MOL
REMARK 922        TOTAL FREE ENERGY PREDICTED BY IDOCK:   -4.77 KCAL/MOL
REMARK 923 INTER-LIGAND FREE ENERGY PREDICTED BY IDOCK:   -4.54 KCAL/MOL
REMARK 924 INTRA-LIGAND FREE ENERGY PREDICTED BY IDOCK:   -0.23 KCAL/MOL
REMARK 927      BINDING AFFINITY PREDICTED BY RF-SCORE:    0.00 PKD
ROOT
HETATM    1  C   UNL     1     -11.449  15.264  69.882  1.00  0.00    -0.304 C  
HETATM    2  N   UNL     1     -11.212  14.370  68.757  1.00  0.00    -0.247 N  
HETATM    3 CL   UNL     1     -12.548  13.278  65.699  1.00  0.00    -0.507 Cl 
HETATM    4  C   UNL     1     -11.225  14.858  67.443  1.00  0.00    -0.338 C  
HETATM    5 CL   UNL     1     -10.059  14.624  64.987  1.00  0.00    -0.387 Cl 
HETATM    6  C   UNL     1     -10.977  13.851  66.305  1.00  0.00    -0.298 C  
HETATM    7  O   UNL     1     -11.441  16.054  67.217  1.00  0.00    -0.039 OA 
ENDROOT
BRANCH   2   8
HETATM    8  C   UNL     1     -10.978  13.016  69.067  1.00  0.00    -0.196 A  
HETATM    9  C   UNL     1      -9.749  12.435  68.744  1.00  0.00     0.031 A  
HETATM   10  C   UNL     1      -9.582  11.058  68.892  1.00  0.00    -0.174 A  
HETATM   11  C   UNL     1     -10.634  10.278  69.378  1.00  0.00    -0.237 A  
HETATM   12  C   UNL     1     -12.019  12.238  69.582  1.00  0.00    -0.347 A  
HETATM   13  C   UNL     1     -11.852  10.860  69.726  1.00  0.00    -0.419 A  
BRANCH  11  14
HETATM   14  O   UNL     1     -10.408   8.884  69.378  1.00  0.00    -0.204 OA 
BRANCH  14  15
HETATM   15  C   UNL     1      -9.131   8.316  69.427  1.00  0.00    -0.154 C  
HETATM   16  O   UNL     1      -8.336   8.437  70.351  1.00  0.00    -0.112 OA 
BRANCH  15  17
HETATM   17  C   UNL     1      -8.883   7.568  68.217  1.00  0.00    -0.125 A  
HETATM   18  C   UNL     1      -8.522   7.999  66.952  1.00  0.00    -0.124 A  
HETATM   19  C   UNL     1      -8.420   6.846  66.138  1.00  0.00    -0.136 A  
HETATM   20  C   UNL     1      -8.717   5.778  66.951  1.00  0.00    -0.110 A  
HETATM   21  O   UNL     1      -8.997   6.202  68.211  1.00  0.00    -0.116 OA 
ENDBRANCH  15  17
ENDBRANCH  14  15
ENDBRANCH  11  14
ENDBRANCH   2   8
TORSDOF 4
ENDMDL
MODEL      193
REMARK 921   NORMALIZED FREE ENERGY PREDICTED BY IDOCK:   -3.42 KCAL/MOL
REMARK 922        TOTAL FREE ENERGY PREDICTED BY IDOCK:   -4.73 KCAL/MOL
REMARK 923 INTER-LIGAND FREE ENERGY PREDICTED BY IDOCK:   -4.44 KCAL/MOL
REMARK 924 INTRA-LIGAND FREE ENERGY PREDICTED BY IDOCK:   -0.29 KCAL/MOL
REMARK 927      BINDING AFFINITY PREDICTED BY RF-SCORE:    0.00 PKD
ROOT
HETATM    1  C   UNL     1      -7.896   5.529  65.546  1.00  0.00    -0.099 C  
HETATM    2  N   UNL     1      -8.260   6.939  65.535  1.00  0.00    -0.131 N  
HETATM    3 CL   UNL     1      -7.098  10.141  64.679  1.00  0.00    -0.139 Cl 
HETATM    4  C   UNL     1      -8.178   7.687  64.352  1.00  0.00    -0.028 C  
HETATM    5 CL   UNL     1      -9.367   9.672  62.904  1.00  0.00    -0.172 Cl 
HETATM    6  C   UNL     1      -8.570   9.175  64.419  1.00  0.00    -0.181 C  
HETATM    7  O   UNL     1      -7.791   7.164  63.301  1.00  0.00    -0.124 OA 
ENDROOT
BRANCH   2   8
HETATM    8  C   UNL     1      -8.687   7.490  66.759  1.00  0.00    -0.133 A  
HETATM    9  C   UNL     1     -10.030   7.837  66.931  1.00  0.00    -0.331 A  
HETATM   10  C   UNL     1     -10.417   8.538  68.072  1.00  0.00    -0.249 A  
HETATM   11  C   UNL     1      -9.465   8.871  69.039  1.00  0.00    -0.156 A  
HETATM   12  C   UNL     1      -7.743   7.797  67.742  1.00  0.00    -0.122 A  
HETATM   13  C   UNL     1      -8.130   8.503  68.882  1.00  0.00    -0.119 A  
BRANCH  11  14
HETATM   14  O   UNL     1      -9.931   9.683  70.096  1.00  0.00    -0.230 OA 
BRANCH  14  15
HETATM   15  C   UNL     1     -11.240   9.627  70.584  1.00  0.00    -0.320 C  
HETATM   16  O   UNL     1     -11.829   8.608  70.923  1.00  0.00    -0.284 OA 
BRANCH  15  17
HETATM   17  C   UNL     1     -11.803  10.956  70.623  1.00  0.00    -0.352 A  
HETATM   18  C   UNL     1     -11.594  12.045  69.794  1.00  0.00    -0.348 A  
HETATM   19  C   UNL     1     -12.393  13.102  70.292  1.00  0.00    -0.319 A  
HETATM   20  C   UNL     1     -13.048  12.598  71.391  1.00  0.00    -0.216 A  
HETATM   21  O   UNL     1     -12.701  11.301  71.600  1.00  0.00    -0.387 OA 
ENDBRANCH  15  17
ENDBRANCH  14  15
ENDBRANCH  11  14
ENDBRANCH   2   8
TORSDOF 4
ENDMDL
MODEL      194
REMARK 921   NORMALIZED FREE ENERGY PREDICTED BY IDOCK:   -3.38 KCAL/MOL
REMARK 922        TOTAL FREE ENERGY PREDICTED BY IDOCK:   -4.68 KCAL/MOL
REMARK 923 INTER-LIGAND FREE ENERGY PREDICTED BY IDOCK:   -4.28 KCAL/MOL
REMARK 924 INTRA-LIGAND FREE ENERGY PREDICTED BY IDOCK:   -0.40 KCAL/MOL
REMARK 927      BINDING AFFINITY PREDICTED BY RF-SCORE:    0.00 PKD
ROOT
HETATM    1  C   UNL     1     -11.023   9.466  70.586  1.00  0.00    -0.290 C  
HETATM    2  N   UNL     1     -10.724   8.043  70.678  1.00  0.00    -0.224 N  
HETATM    3 CL   UNL     1      -8.870   5.666  72.479  1.00  0.00    -0.131 Cl 
HETATM    4  C   UNL     1     -10.891   7.356  71.888  1.00  0.00    -0.229 C  
HETATM    5 CL   UNL     1     -11.659   4.982  72.993  1.00  0.00    -0.359 Cl 
HETATM    6  C   UNL     1     -10.546   5.855  71.911  1.00  0.00    -0.231 C  
HETATM    7  O   UNL     1     -11.291   7.946  72.898  1.00  0.00    -0.406 OA 
ENDROOT
BRANCH   2   8
HETATM    8  C   UNL     1     -10.264   7.419  69.502  1.00  0.00    -0.204 A  
HETATM    9  C   UNL     1     -11.142   6.641  68.743  1.00  0.00    -0.297 A  
HETATM   10  C   UNL     1     -10.646   5.887  67.680  1.00  0.00    -0.335 A  
HETATM   11  C   UNL     1      -9.284   5.929  67.373  1.00  0.00    -0.108 A  
HETATM   12  C   UNL     1      -8.907   7.484  69.174  1.00  0.00    -0.136 A  
HETATM   13  C   UNL     1      -8.411   6.725  68.113  1.00  0.00    -0.121 A  
BRANCH  11  14
HETATM   14  O   UNL     1      -8.861   5.041  66.360  1.00  0.00    -0.113 OA 
BRANCH  14  15
HETATM   15  C   UNL     1      -9.152   3.673  66.371  1.00  0.00    -0.156 C  
HETATM   16  O   UNL     1      -9.107   2.946  67.355  1.00  0.00    -0.149 OA 
BRANCH  15  17
HETATM   17  C   UNL     1      -9.508   3.240  65.040  1.00  0.00    -0.145 A  
HETATM   18  C   UNL     1      -8.867   2.368  64.177  1.00  0.00    -0.099 A  
HETATM   19  C   UNL     1      -9.645   2.311  62.997  1.00  0.00    -0.091 A  
HETATM   20  C   UNL     1     -10.719   3.143  63.207  1.00  0.00    -0.235 A  
HETATM   21  O   UNL     1     -10.648   3.709  64.440  1.00  0.00    -0.219 OA 
ENDBRANCH  15  17
ENDBRANCH  14  15
ENDBRANCH  11  14
ENDBRANCH   2   8
TORSDOF 4
ENDMDL
MODEL      195
REMARK 921   NORMALIZED FREE ENERGY PREDICTED BY IDOCK:   -3.38 KCAL/MOL
REMARK 922        TOTAL FREE ENERGY PREDICTED BY IDOCK:   -4.68 KCAL/MOL
REMARK 923 INTER-LIGAND FREE ENERGY PREDICTED BY IDOCK:   -4.42 KCAL/MOL
REMARK 924 INTRA-LIGAND FREE ENERGY PREDICTED BY IDOCK:   -0.26 KCAL/MOL
REMARK 927      BINDING AFFINITY PREDICTED BY RF-SCORE:    0.00 PKD
ROOT
HETATM    1  C   UNL     1     -13.563   7.019  71.722  1.00  0.00    -0.212 C  
HETATM    2  N   UNL     1     -12.121   6.957  71.522  1.00  0.00    -0.339 N  
HETATM    3 CL   UNL     1      -9.047   6.838  73.215  1.00  0.00    -0.143 Cl 
HETATM    4  C   UNL     1     -11.359   5.954  72.136  1.00  0.00    -0.288 C  
HETATM    5 CL   UNL     1      -9.222   4.289  71.806  1.00  0.00    -0.166 Cl 
HETATM    6  C   UNL     1      -9.839   5.958  71.887  1.00  0.00    -0.162 C  
HETATM    7  O   UNL     1     -11.896   5.107  72.859  1.00  0.00    -0.256 OA 
ENDROOT
BRANCH   2   8
HETATM    8  C   UNL     1     -11.556   7.949  70.696  1.00  0.00    -0.204 A  
HETATM    9  C   UNL     1     -11.001   7.590  69.465  1.00  0.00    -0.127 A  
HETATM   10  C   UNL     1     -10.291   8.538  68.730  1.00  0.00    -0.233 A  
HETATM   11  C   UNL     1     -10.158   9.840  69.220  1.00  0.00    -0.198 A  
HETATM   12  C   UNL     1     -11.449   9.259  71.169  1.00  0.00    -0.403 A  
HETATM   13  C   UNL     1     -10.734  10.207  70.435  1.00  0.00    -0.329 A  
BRANCH  11  14
HETATM   14  O   UNL     1      -9.323  10.691  68.464  1.00  0.00    -0.155 OA 
BRANCH  14  15
HETATM   15  C   UNL     1      -8.197  10.240  67.770  1.00  0.00    -0.110 C  
HETATM   16  O   UNL     1      -7.143   9.882  68.281  1.00  0.00    -0.075 OA 
BRANCH  15  17
HETATM   17  C   UNL     1      -8.458  10.264  66.350  1.00  0.00    -0.130 A  
HETATM   18  C   UNL     1      -9.655  10.290  65.656  1.00  0.00    -0.289 A  
HETATM   19  C   UNL     1      -9.333  10.297  64.278  1.00  0.00    -0.328 A  
HETATM   20  C   UNL     1      -7.961  10.282  64.208  1.00  0.00    -0.132 A  
HETATM   21  O   UNL     1      -7.420  10.264  65.454  1.00  0.00    -0.140 OA 
ENDBRANCH  15  17
ENDBRANCH  14  15
ENDBRANCH  11  14
ENDBRANCH   2   8
TORSDOF 4
ENDMDL
MODEL      196
REMARK 921   NORMALIZED FREE ENERGY PREDICTED BY IDOCK:   -3.29 KCAL/MOL
REMARK 922        TOTAL FREE ENERGY PREDICTED BY IDOCK:   -4.57 KCAL/MOL
REMARK 923 INTER-LIGAND FREE ENERGY PREDICTED BY IDOCK:   -4.25 KCAL/MOL
REMARK 924 INTRA-LIGAND FREE ENERGY PREDICTED BY IDOCK:   -0.32 KCAL/MOL
REMARK 927      BINDING AFFINITY PREDICTED BY RF-SCORE:    0.00 PKD
ROOT
HETATM    1  C   UNL     1      -5.566   5.974  67.543  1.00  0.00    -0.009 C  
HETATM    2  N   UNL     1      -6.987   5.659  67.590  1.00  0.00    -0.064 N  
HETATM    3 CL   UNL     1      -9.696   4.572  65.637  1.00  0.00    -0.189 Cl 
HETATM    4  C   UNL     1      -7.458   4.418  67.140  1.00  0.00    -0.078 C  
HETATM    5 CL   UNL     1      -9.293   2.451  67.600  1.00  0.00    -0.216 Cl 
HETATM    6  C   UNL     1      -8.974   4.160  67.210  1.00  0.00    -0.128 C  
HETATM    7  O   UNL     1      -6.676   3.571  66.693  1.00  0.00    -0.047 OA 
ENDROOT
BRANCH   2   8
HETATM    8  C   UNL     1      -7.838   6.659  68.100  1.00  0.00    -0.110 A  
HETATM    9  C   UNL     1      -8.293   7.676  67.257  1.00  0.00    -0.115 A  
HETATM   10  C   UNL     1      -8.989   8.756  67.799  1.00  0.00    -0.140 A  
HETATM   11  C   UNL     1      -9.241   8.802  69.173  1.00  0.00    -0.149 A  
HETATM   12  C   UNL     1      -8.118   6.692  69.468  1.00  0.00    -0.126 A  
HETATM   13  C   UNL     1      -8.811   7.775  70.011  1.00  0.00    -0.142 A  
BRANCH  11  14
HETATM   14  O   UNL     1      -9.845   9.989  69.640  1.00  0.00    -0.214 OA 
BRANCH  14  15
HETATM   15  C   UNL     1     -11.213  10.251  69.518  1.00  0.00    -0.261 C  
HETATM   16  O   UNL     1     -11.747  10.811  68.568  1.00  0.00    -0.383 OA 
BRANCH  15  17
HETATM   17  C   UNL     1     -11.908   9.768  70.688  1.00  0.00    -0.281 A  
HETATM   18  C   UNL     1     -11.507   8.878  71.669  1.00  0.00    -0.409 A  
HETATM   19  C   UNL     1     -12.583   8.754  72.579  1.00  0.00    -0.375 A  
HETATM   20  C   UNL     1     -13.577   9.579  72.107  1.00  0.00    -0.424 A  
HETATM   21  O   UNL     1     -13.180  10.199  70.966  1.00  0.00    -0.394 OA 
ENDBRANCH  15  17
ENDBRANCH  14  15
ENDBRANCH  11  14
ENDBRANCH   2   8
TORSDOF 4
ENDMDL
MODEL      197
REMARK 921   NORMALIZED FREE ENERGY PREDICTED BY IDOCK:   -3.27 KCAL/MOL
REMARK 922        TOTAL FREE ENERGY PREDICTED BY IDOCK:   -4.54 KCAL/MOL
REMARK 923 INTER-LIGAND FREE ENERGY PREDICTED BY IDOCK:   -4.02 KCAL/MOL
REMARK 924 INTRA-LIGAND FREE ENERGY PREDICTED BY IDOCK:   -0.52 KCAL/MOL
REMARK 927      BINDING AFFINITY PREDICTED BY RF-SCORE:    0.00 PKD
ROOT
HETATM    1  C   UNL     1     -10.753  13.598  65.983  1.00  0.00    -0.280 C  
HETATM    2  N   UNL     1     -10.500  14.077  67.335  1.00  0.00    -0.262 N  
HETATM    3 CL   UNL     1     -11.642  16.314  69.790  1.00  0.00    -0.220 Cl 
HETATM    4  C   UNL     1     -11.519  14.067  68.298  1.00  0.00    -0.304 C  
HETATM    5 CL   UNL     1     -12.055  13.665  70.943  1.00  0.00    -0.389 Cl 
HETATM    6  C   UNL     1     -11.179  14.598  69.703  1.00  0.00    -0.272 C  
HETATM    7  O   UNL     1     -12.649  13.654  68.015  1.00  0.00     0.118 OA 
ENDROOT
BRANCH   2   8
HETATM    8  C   UNL     1      -9.198  14.544  67.605  1.00  0.00    -0.195 A  
HETATM    9  C   UNL     1      -8.275  13.698  68.224  1.00  0.00    -0.156 A  
HETATM   10  C   UNL     1      -7.049  14.212  68.646  1.00  0.00    -0.110 A  
HETATM   11  C   UNL     1      -6.749  15.560  68.430  1.00  0.00    -0.116 A  
HETATM   12  C   UNL     1      -8.884  15.883  67.362  1.00  0.00    -0.201 A  
HETATM   13  C   UNL     1      -7.659  16.398  67.788  1.00  0.00    -0.160 A  
BRANCH  11  14
HETATM   14  O   UNL     1      -5.538  16.011  68.998  1.00  0.00    -0.111 OA 
BRANCH  14  15
HETATM   15  C   UNL     1      -5.453  16.561  70.281  1.00  0.00    -0.196 C  
HETATM   16  O   UNL     1      -5.319  15.924  71.318  1.00  0.00    -0.086 OA 
BRANCH  15  17
HETATM   17  C   UNL     1      -5.553  17.999  70.203  1.00  0.00    -0.244 A  
HETATM   18  C   UNL     1      -5.392  18.854  69.126  1.00  0.00    -0.203 A  
HETATM   19  C   UNL     1      -5.593  20.169  69.610  1.00  0.00    -0.317 A  
HETATM   20  C   UNL     1      -5.871  20.042  70.950  1.00  0.00    -0.312 A  
HETATM   21  O   UNL     1      -5.852  18.735  71.320  1.00  0.00    -0.004 OA 
ENDBRANCH  15  17
ENDBRANCH  14  15
ENDBRANCH  11  14
ENDBRANCH   2   8
TORSDOF 4
ENDMDL
MODEL      198
REMARK 921   NORMALIZED FREE ENERGY PREDICTED BY IDOCK:   -3.26 KCAL/MOL
REMARK 922        TOTAL FREE ENERGY PREDICTED BY IDOCK:   -4.53 KCAL/MOL
REMARK 923 INTER-LIGAND FREE ENERGY PREDICTED BY IDOCK:   -4.15 KCAL/MOL
REMARK 924 INTRA-LIGAND FREE ENERGY PREDICTED BY IDOCK:   -0.38 KCAL/MOL
REMARK 927      BINDING AFFINITY PREDICTED BY RF-SCORE:    0.00 PKD
ROOT
HETATM    1  C   UNL     1     -11.891   7.932  72.219  1.00  0.00    -0.352 C  
HETATM    2  N   UNL     1     -10.989   7.015  71.535  1.00  0.00    -0.232 N  
HETATM    3 CL   UNL     1      -7.886   5.393  71.806  1.00  0.00    -0.109 Cl 
HETATM    4  C   UNL     1     -10.518   5.863  72.180  1.00  0.00    -0.207 C  
HETATM    5 CL   UNL     1      -9.856   3.241  71.817  1.00  0.00    -0.239 Cl 
HETATM    6  C   UNL     1      -9.559   4.947  71.398  1.00  0.00    -0.166 C  
HETATM    7  O   UNL     1     -10.859   5.608  73.341  1.00  0.00    -0.259 OA 
ENDROOT
BRANCH   2   8
HETATM    8  C   UNL     1     -10.625   7.356  70.217  1.00  0.00    -0.231 A  
HETATM    9  C   UNL     1     -11.206   6.677  69.143  1.00  0.00    -0.305 A  
HETATM   10  C   UNL     1     -10.721   6.892  67.853  1.00  0.00    -0.294 A  
HETATM   11  C   UNL     1      -9.675   7.795  67.645  1.00  0.00    -0.155 A  
HETATM   12  C   UNL     1      -9.601   8.281  70.003  1.00  0.00    -0.168 A  
HETATM   13  C   UNL     1      -9.113   8.493  68.713  1.00  0.00    -0.143 A  
BRANCH  11  14
HETATM   14  O   UNL     1      -9.176   7.854  66.326  1.00  0.00    -0.181 OA 
BRANCH  14  15
HETATM   15  C   UNL     1      -9.248   9.002  65.531  1.00  0.00    -0.198 C  
HETATM   16  O   UNL     1     -10.143   9.836  65.568  1.00  0.00    -0.301 OA 
BRANCH  15  17
HETATM   17  C   UNL     1      -8.105   9.056  64.649  1.00  0.00    -0.144 A  
HETATM   18  C   UNL     1      -7.432   8.044  63.986  1.00  0.00    -0.109 A  
HETATM   19  C   UNL     1      -6.380   8.654  63.263  1.00  0.00    -0.086 A  
HETATM   20  C   UNL     1      -6.473  10.001  63.519  1.00  0.00    -0.130 A  
HETATM   21  O   UNL     1      -7.513  10.257  64.354  1.00  0.00    -0.143 OA 
ENDBRANCH  15  17
ENDBRANCH  14  15
ENDBRANCH  11  14
ENDBRANCH   2   8
TORSDOF 4
ENDMDL
MODEL      199
REMARK 921   NORMALIZED FREE ENERGY PREDICTED BY IDOCK:   -3.24 KCAL/MOL
REMARK 922        TOTAL FREE ENERGY PREDICTED BY IDOCK:   -4.51 KCAL/MOL
REMARK 923 INTER-LIGAND FREE ENERGY PREDICTED BY IDOCK:   -3.97 KCAL/MOL
REMARK 924 INTRA-LIGAND FREE ENERGY PREDICTED BY IDOCK:   -0.53 KCAL/MOL
REMARK 927      BINDING AFFINITY PREDICTED BY RF-SCORE:    0.00 PKD
ROOT
HETATM    1  C   UNL     1      -6.384  20.670  68.477  1.00  0.00    -0.287 C  
HETATM    2  N   UNL     1      -7.309  19.669  67.965  1.00  0.00    -0.278 N  
HETATM    3 CL   UNL     1     -10.530  18.334  68.388  1.00  0.00    -0.341 Cl 
HETATM    4  C   UNL     1      -8.601  20.032  67.560  1.00  0.00    -0.340 C  
HETATM    5 CL   UNL     1     -10.564  19.538  65.730  1.00  0.00    -0.579 Cl 
HETATM    6  C   UNL     1      -9.527  18.917  67.039  1.00  0.00    -0.310 C  
HETATM    7  O   UNL     1      -8.977  21.208  67.633  1.00  0.00    -0.031 OA 
ENDROOT
BRANCH   2   8
HETATM    8  C   UNL     1      -6.835  18.343  67.909  1.00  0.00    -0.217 A  
HETATM    9  C   UNL     1      -6.231  17.874  66.740  1.00  0.00    -0.202 A  
HETATM   10  C   UNL     1      -5.920  16.520  66.624  1.00  0.00     0.141 A  
HETATM   11  C   UNL     1      -6.199  15.649  67.681  1.00  0.00    -0.154 A  
HETATM   12  C   UNL     1      -7.084  17.477  68.977  1.00  0.00    -0.234 A  
HETATM   13  C   UNL     1      -6.778  16.121  68.859  1.00  0.00    -0.147 A  
BRANCH  11  14
HETATM   14  O   UNL     1      -5.960  14.282  67.423  1.00  0.00    -0.346 OA 
BRANCH  14  15
HETATM   15  C   UNL     1      -6.864  13.270  67.759  1.00  0.00    -0.153 C  
HETATM   16  O   UNL     1      -7.985  13.134  67.285  1.00  0.00    -0.173 OA 
BRANCH  15  17
HETATM   17  C   UNL     1      -6.280  12.408  68.759  1.00  0.00    -0.073 A  
HETATM   18  C   UNL     1      -6.278  12.506  70.140  1.00  0.00    -0.032 A  
HETATM   19  C   UNL     1      -5.551  11.395  70.631  1.00  0.00    -0.135 A  
HETATM   20  C   UNL     1      -5.157  10.679  69.525  1.00  0.00    -0.038 A  
HETATM   21  O   UNL     1      -5.593  11.280  68.388  1.00  0.00    -0.043 OA 
ENDBRANCH  15  17
ENDBRANCH  14  15
ENDBRANCH  11  14
ENDBRANCH   2   8
TORSDOF 4
ENDMDL
MODEL      200
REMARK 921   NORMALIZED FREE ENERGY PREDICTED BY IDOCK:   -3.23 KCAL/MOL
REMARK 922        TOTAL FREE ENERGY PREDICTED BY IDOCK:   -4.49 KCAL/MOL
REMARK 923 INTER-LIGAND FREE ENERGY PREDICTED BY IDOCK:   -3.95 KCAL/MOL
REMARK 924 INTRA-LIGAND FREE ENERGY PREDICTED BY IDOCK:   -0.54 KCAL/MOL
REMARK 927      BINDING AFFINITY PREDICTED BY RF-SCORE:    0.00 PKD
ROOT
HETATM    1  C   UNL     1     -10.394   6.727  70.297  1.00  0.00    -0.198 C  
HETATM    2  N   UNL     1      -9.346   7.508  69.654  1.00  0.00    -0.154 N  
HETATM    3 CL   UNL     1      -6.214   9.001  70.196  1.00  0.00    -0.036 Cl 
HETATM    4  C   UNL     1      -8.017   7.063  69.664  1.00  0.00    -0.124 C  
HETATM    5 CL   UNL     1      -5.719   6.933  68.198  1.00  0.00    -0.020 Cl 
HETATM    6  C   UNL     1      -6.962   7.947  68.973  1.00  0.00    -0.058 C  
HETATM    7  O   UNL     1      -7.712   6.002  70.221  1.00  0.00    -0.092 OA 
ENDROOT
BRANCH   2   8
HETATM    8  C   UNL     1      -9.743   8.713  69.041  1.00  0.00    -0.173 A  
HETATM    9  C   UNL     1      -9.992   8.739  67.666  1.00  0.00    -0.247 A  
HETATM   10  C   UNL     1     -10.215   9.962  67.034  1.00  0.00    -0.294 A  
HETATM   11  C   UNL     1     -10.207  11.143  67.780  1.00  0.00    -0.180 A  
HETATM   12  C   UNL     1      -9.767   9.891  69.790  1.00  0.00    -0.266 A  
HETATM   13  C   UNL     1      -9.986  11.115  69.156  1.00  0.00    -0.104 A  
BRANCH  11  14
HETATM   14  O   UNL     1     -10.323  12.335  67.032  1.00  0.00    -0.217 OA 
BRANCH  14  15
HETATM   15  C   UNL     1      -9.443  13.413  67.169  1.00  0.00    -0.244 C  
HETATM   16  O   UNL     1      -8.256  13.403  66.867  1.00  0.00    -0.092 OA 
BRANCH  15  17
HETATM   17  C   UNL     1     -10.142  14.545  67.730  1.00  0.00    -0.225 A  
HETATM   18  C   UNL     1     -11.134  14.601  68.694  1.00  0.00    -0.276 A  
HETATM   19  C   UNL     1     -11.469  15.966  68.860  1.00  0.00    -0.386 A  
HETATM   20  C   UNL     1     -10.660  16.665  67.997  1.00  0.00    -0.338 A  
HETATM   21  O   UNL     1      -9.852  15.817  67.309  1.00  0.00    -0.227 OA 
ENDBRANCH  15  17
ENDBRANCH  14  15
ENDBRANCH  11  14
ENDBRANCH   2   8
TORSDOF 4
ENDMDL
MODEL      201
REMARK 921   NORMALIZED FREE ENERGY PREDICTED BY IDOCK:   -3.22 KCAL/MOL
REMARK 922        TOTAL FREE ENERGY PREDICTED BY IDOCK:   -4.48 KCAL/MOL
REMARK 923 INTER-LIGAND FREE ENERGY PREDICTED BY IDOCK:   -3.79 KCAL/MOL
REMARK 924 INTRA-LIGAND FREE ENERGY PREDICTED BY IDOCK:   -0.69 KCAL/MOL
REMARK 927      BINDING AFFINITY PREDICTED BY RF-SCORE:    0.00 PKD
ROOT
HETATM    1  C   UNL     1     -12.126  11.118  70.153  1.00  0.00    -0.362 C  
HETATM    2  N   UNL     1     -11.236  10.083  69.645  1.00  0.00    -0.249 N  
HETATM    3 CL   UNL     1      -8.636   7.907  70.560  1.00  0.00    -0.130 Cl 
HETATM    4  C   UNL     1     -11.156   8.836  70.280  1.00  0.00    -0.222 C  
HETATM    5 CL   UNL     1     -10.861   6.156  69.857  1.00  0.00    -0.380 Cl 
HETATM    6  C   UNL     1     -10.184   7.796  69.691  1.00  0.00    -0.206 C  
HETATM    7  O   UNL     1     -11.837   8.595  71.282  1.00  0.00    -0.281 OA 
ENDROOT
BRANCH   2   8
HETATM    8  C   UNL     1     -10.476  10.411  68.505  1.00  0.00    -0.186 A  
HETATM    9  C   UNL     1     -10.874   9.942  67.250  1.00  0.00    -0.268 A  
HETATM   10  C   UNL     1     -10.032  10.119  66.153  1.00  0.00    -0.310 A  
HETATM   11  C   UNL     1      -8.810  10.778  66.313  1.00  0.00    -0.173 A  
HETATM   12  C   UNL     1      -9.268  11.096  68.656  1.00  0.00    -0.173 A  
HETATM   13  C   UNL     1      -8.424  11.269  67.559  1.00  0.00    -0.131 A  
BRANCH  11  14
HETATM   14  O   UNL     1      -7.978  10.801  65.173  1.00  0.00    -0.089 OA 
BRANCH  14  15
HETATM   15  C   UNL     1      -6.740  10.154  65.115  1.00  0.00    -0.131 C  
HETATM   16  O   UNL     1      -5.661  10.702  64.929  1.00  0.00    -0.141 OA 
BRANCH  15  17
HETATM   17  C   UNL     1      -6.924   8.734  65.300  1.00  0.00    -0.076 A  
HETATM   18  C   UNL     1      -6.716   7.938  66.414  1.00  0.00    -0.054 A  
HETATM   19  C   UNL     1      -7.045   6.613  66.041  1.00  0.00    -0.062 A  
HETATM   20  C   UNL     1      -7.440   6.675  64.726  1.00  0.00    -0.095 A  
HETATM   21  O   UNL     1      -7.373   7.952  64.267  1.00  0.00    -0.078 OA 
ENDBRANCH  15  17
ENDBRANCH  14  15
ENDBRANCH  11  14
ENDBRANCH   2   8
TORSDOF 4
ENDMDL
MODEL      202
REMARK 921   NORMALIZED FREE ENERGY PREDICTED BY IDOCK:   -3.20 KCAL/MOL
REMARK 922        TOTAL FREE ENERGY PREDICTED BY IDOCK:   -4.46 KCAL/MOL
REMARK 923 INTER-LIGAND FREE ENERGY PREDICTED BY IDOCK:   -3.86 KCAL/MOL
REMARK 924 INTRA-LIGAND FREE ENERGY PREDICTED BY IDOCK:   -0.59 KCAL/MOL
REMARK 927      BINDING AFFINITY PREDICTED BY RF-SCORE:    0.00 PKD
ROOT
HETATM    1  C   UNL     1     -10.092   5.044  69.110  1.00  0.00    -0.187 C  
HETATM    2  N   UNL     1     -10.219   6.343  69.757  1.00  0.00    -0.178 N  
HETATM    3 CL   UNL     1     -12.487   8.458  71.404  1.00  0.00    -0.321 Cl 
HETATM    4  C   UNL     1     -10.722   6.443  71.061  1.00  0.00    -0.251 C  
HETATM    5 CL   UNL     1     -10.488   7.790  73.423  1.00  0.00    -0.362 Cl 
HETATM    6  C   UNL     1     -10.837   7.850  71.676  1.00  0.00    -0.232 C  
HETATM    7  O   UNL     1     -11.070   5.432  71.682  1.00  0.00    -0.174 OA 
ENDROOT
BRANCH   2   8
HETATM    8  C   UNL     1      -9.816   7.464  69.005  1.00  0.00    -0.168 A  
HETATM    9  C   UNL     1     -10.744   8.121  68.193  1.00  0.00    -0.090 A  
HETATM   10  C   UNL     1     -10.308   9.118  67.321  1.00  0.00    -0.338 A  
HETATM   11  C   UNL     1      -8.954   9.462  67.280  1.00  0.00    -0.130 A  
HETATM   12  C   UNL     1      -8.468   7.831  68.985  1.00  0.00    -0.132 A  
HETATM   13  C   UNL     1      -8.032   8.826  68.109  1.00  0.00    -0.106 A  
BRANCH  11  14
HETATM   14  O   UNL     1      -8.594  10.395  66.283  1.00  0.00    -0.135 OA 
BRANCH  14  15
HETATM   15  C   UNL     1      -9.033  10.307  64.958  1.00  0.00    -0.196 C  
HETATM   16  O   UNL     1     -10.038  10.841  64.507  1.00  0.00    -0.303 OA 
BRANCH  15  17
HETATM   17  C   UNL     1      -8.126   9.481  64.197  1.00  0.00    -0.147 A  
HETATM   18  C   UNL     1      -8.129   8.115  63.969  1.00  0.00    -0.122 A  
HETATM   19  C   UNL     1      -7.003   7.830  63.162  1.00  0.00    -0.076 A  
HETATM   20  C   UNL     1      -6.380   9.035  62.937  1.00  0.00    -0.090 A  
HETATM   21  O   UNL     1      -7.050  10.041  63.557  1.00  0.00    -0.126 OA 
ENDBRANCH  15  17
ENDBRANCH  14  15
ENDBRANCH  11  14
ENDBRANCH   2   8
TORSDOF 4
ENDMDL
MODEL      203
REMARK 921   NORMALIZED FREE ENERGY PREDICTED BY IDOCK:   -3.19 KCAL/MOL
REMARK 922        TOTAL FREE ENERGY PREDICTED BY IDOCK:   -4.45 KCAL/MOL
REMARK 923 INTER-LIGAND FREE ENERGY PREDICTED BY IDOCK:   -3.96 KCAL/MOL
REMARK 924 INTRA-LIGAND FREE ENERGY PREDICTED BY IDOCK:   -0.49 KCAL/MOL
REMARK 927      BINDING AFFINITY PREDICTED BY RF-SCORE:    0.00 PKD
ROOT
HETATM    1  C   UNL     1      -8.998  16.010  66.257  1.00  0.00    -0.345 C  
HETATM    2  N   UNL     1      -9.866  14.868  66.008  1.00  0.00    -0.300 N  
HETATM    3 CL   UNL     1     -13.226  13.852  65.912  1.00  0.00    -0.083 Cl 
HETATM    4  C   UNL     1     -10.908  14.954  65.074  1.00  0.00    -0.423 C  
HETATM    5 CL   UNL     1     -12.284  13.573  63.164  1.00  0.00    -0.305 Cl 
HETATM    6  C   UNL     1     -11.790  13.708  64.871  1.00  0.00    -0.375 C  
HETATM    7  O   UNL     1     -11.110  16.002  64.450  1.00  0.00    -0.560 OA 
ENDROOT
BRANCH   2   8
HETATM    8  C   UNL     1      -9.600  13.700  66.750  1.00  0.00    -0.275 A  
HETATM    9  C   UNL     1     -10.365  13.411  67.882  1.00  0.00    -0.238 A  
HETATM   10  C   UNL     1      -9.991  12.353  68.710  1.00  0.00    -0.040 A  
HETATM   11  C   UNL     1      -8.869  11.583  68.392  1.00  0.00    -0.163 A  
HETATM   12  C   UNL     1      -8.497  12.909  66.416  1.00  0.00     0.323 A  
HETATM   13  C   UNL     1      -8.121  11.854  67.248  1.00  0.00    -0.171 A  
BRANCH  11  14
HETATM   14  O   UNL     1      -8.504  10.615  69.352  1.00  0.00    -0.136 OA 
BRANCH  14  15
HETATM   15  C   UNL     1      -9.098   9.352  69.430  1.00  0.00    -0.161 C  
HETATM   16  O   UNL     1     -10.087   9.073  70.097  1.00  0.00    -0.177 OA 
BRANCH  15  17
HETATM   17  C   UNL     1      -8.365   8.417  68.610  1.00  0.00    -0.120 A  
HETATM   18  C   UNL     1      -7.351   7.534  68.940  1.00  0.00    -0.094 A  
HETATM   19  C   UNL     1      -6.986   6.862  67.750  1.00  0.00    -0.083 A  
HETATM   20  C   UNL     1      -7.799   7.366  66.763  1.00  0.00    -0.110 A  
HETATM   21  O   UNL     1      -8.639   8.306  67.271  1.00  0.00    -0.122 OA 
ENDBRANCH  15  17
ENDBRANCH  14  15
ENDBRANCH  11  14
ENDBRANCH   2   8
TORSDOF 4
ENDMDL
MODEL      204
REMARK 921   NORMALIZED FREE ENERGY PREDICTED BY IDOCK:   -3.18 KCAL/MOL
REMARK 922        TOTAL FREE ENERGY PREDICTED BY IDOCK:   -4.44 KCAL/MOL
REMARK 923 INTER-LIGAND FREE ENERGY PREDICTED BY IDOCK:   -4.11 KCAL/MOL
REMARK 924 INTRA-LIGAND FREE ENERGY PREDICTED BY IDOCK:   -0.33 KCAL/MOL
REMARK 927      BINDING AFFINITY PREDICTED BY RF-SCORE:    0.00 PKD
ROOT
HETATM    1  C   UNL     1      -8.212   5.488  65.274  1.00  0.00    -0.136 C  
HETATM    2  N   UNL     1      -8.757   6.654  65.955  1.00  0.00    -0.148 N  
HETATM    3 CL   UNL     1      -8.003   9.931  66.967  1.00  0.00    -0.109 Cl 
HETATM    4  C   UNL     1      -8.746   7.911  65.336  1.00  0.00    -0.046 C  
HETATM    5 CL   UNL     1     -10.151  10.229  65.015  1.00  0.00    -0.393 Cl 
HETATM    6  C   UNL     1      -9.330   9.100  66.122  1.00  0.00    -0.228 C  
HETATM    7  O   UNL     1      -8.271   8.052  64.204  1.00  0.00    -0.139 OA 
ENDROOT
BRANCH   2   8
HETATM    8  C   UNL     1      -9.279   6.442  67.246  1.00  0.00    -0.119 A  
HETATM    9  C   UNL     1     -10.663   6.429  67.439  1.00  0.00    -0.411 A  
HETATM   10  C   UNL     1     -11.175   6.393  68.735  1.00  0.00    -0.358 A  
HETATM   11  C   UNL     1     -10.303   6.352  69.826  1.00  0.00    -0.200 A  
HETATM   12  C   UNL     1      -8.409   6.370  68.337  1.00  0.00    -0.116 A  
HETATM   13  C   UNL     1      -8.922   6.339  69.635  1.00  0.00    -0.135 A  
BRANCH  11  14
HETATM   14  O   UNL     1     -10.914   6.439  71.096  1.00  0.00    -0.251 OA 
BRANCH  14  15
HETATM   15  C   UNL     1     -10.488   5.698  72.203  1.00  0.00    -0.216 C  
HETATM   16  O   UNL     1     -10.870   4.571  72.492  1.00  0.00    -0.166 OA 
BRANCH  15  17
HETATM   17  C   UNL     1      -9.530   6.465  72.964  1.00  0.00    -0.141 A  
HETATM   18  C   UNL     1      -9.707   7.566  73.783  1.00  0.00    -0.303 A  
HETATM   19  C   UNL     1      -8.429   7.925  74.273  1.00  0.00    -0.278 A  
HETATM   20  C   UNL     1      -7.546   7.021  73.732  1.00  0.00    -0.096 A  
HETATM   21  O   UNL     1      -8.200   6.132  72.940  1.00  0.00    -0.116 OA 
ENDBRANCH  15  17
ENDBRANCH  14  15
ENDBRANCH  11  14
ENDBRANCH   2   8
TORSDOF 4
ENDMDL
MODEL      205
REMARK 921   NORMALIZED FREE ENERGY PREDICTED BY IDOCK:   -3.16 KCAL/MOL
REMARK 922        TOTAL FREE ENERGY PREDICTED BY IDOCK:   -4.40 KCAL/MOL
REMARK 923 INTER-LIGAND FREE ENERGY PREDICTED BY IDOCK:   -3.99 KCAL/MOL
REMARK 924 INTRA-LIGAND FREE ENERGY PREDICTED BY IDOCK:   -0.41 KCAL/MOL
REMARK 927      BINDING AFFINITY PREDICTED BY RF-SCORE:    0.00 PKD
ROOT
HETATM    1  C   UNL     1      -8.414   5.680  64.989  1.00  0.00    -0.135 C  
HETATM    2  N   UNL     1      -8.609   5.915  66.414  1.00  0.00    -0.123 N  
HETATM    3 CL   UNL     1     -10.504   4.921  69.198  1.00  0.00    -0.114 Cl 
HETATM    4  C   UNL     1      -8.560   4.851  67.325  1.00  0.00    -0.104 C  
HETATM    5 CL   UNL     1      -7.770   4.125  69.834  1.00  0.00    -0.052 Cl 
HETATM    6  C   UNL     1      -8.785   5.175  68.814  1.00  0.00    -0.086 C  
HETATM    7  O   UNL     1      -8.355   3.696  66.935  1.00  0.00    -0.100 OA 
ENDROOT
BRANCH   2   8
HETATM    8  C   UNL     1      -8.847   7.247  66.806  1.00  0.00    -0.134 A  
HETATM    9  C   UNL     1      -7.813   7.996  67.372  1.00  0.00    -0.117 A  
HETATM   10  C   UNL     1      -8.092   9.249  67.916  1.00  0.00    -0.104 A  
HETATM   11  C   UNL     1      -9.396   9.750  67.875  1.00  0.00    -0.127 A  
HETATM   12  C   UNL     1     -10.144   7.763  66.737  1.00  0.00    -0.341 A  
HETATM   13  C   UNL     1     -10.424   9.015  67.286  1.00  0.00    -0.343 A  
BRANCH  11  14
HETATM   14  O   UNL     1      -9.601  10.970  68.556  1.00  0.00    -0.174 OA 
BRANCH  14  15
HETATM   15  C   UNL     1      -9.548  12.217  67.926  1.00  0.00    -0.198 C  
HETATM   16  O   UNL     1      -8.784  12.522  67.019  1.00  0.00    -0.199 OA 
BRANCH  15  17
HETATM   17  C   UNL     1     -10.529  13.100  68.512  1.00  0.00    -0.251 A  
HETATM   18  C   UNL     1     -11.634  12.822  69.298  1.00  0.00    -0.372 A  
HETATM   19  C   UNL     1     -12.254  14.060  69.590  1.00  0.00    -0.383 A  
HETATM   20  C   UNL     1     -11.491  15.023  68.972  1.00  0.00    -0.304 A  
HETATM   21  O   UNL     1     -10.444  14.455  68.319  1.00  0.00    -0.234 OA 
ENDBRANCH  15  17
ENDBRANCH  14  15
ENDBRANCH  11  14
ENDBRANCH   2   8
TORSDOF 4
ENDMDL
MODEL      206
REMARK 921   NORMALIZED FREE ENERGY PREDICTED BY IDOCK:   -3.12 KCAL/MOL
REMARK 922        TOTAL FREE ENERGY PREDICTED BY IDOCK:   -4.36 KCAL/MOL
REMARK 923 INTER-LIGAND FREE ENERGY PREDICTED BY IDOCK:   -4.22 KCAL/MOL
REMARK 924 INTRA-LIGAND FREE ENERGY PREDICTED BY IDOCK:   -0.14 KCAL/MOL
REMARK 927      BINDING AFFINITY PREDICTED BY RF-SCORE:    0.00 PKD
ROOT
HETATM    1  C   UNL     1      -9.500   5.597  66.397  1.00  0.00    -0.155 C  
HETATM    2  N   UNL     1      -8.803   6.873  66.480  1.00  0.00    -0.135 N  
HETATM    3 CL   UNL     1      -6.005   8.469  67.879  1.00  0.00    -0.046 Cl 
HETATM    4  C   UNL     1      -7.442   6.965  66.157  1.00  0.00    -0.080 C  
HETATM    5 CL   UNL     1      -5.547   8.551  64.999  1.00  0.00    -0.046 Cl 
HETATM    6  C   UNL     1      -6.770   8.346  66.278  1.00  0.00    -0.065 C  
HETATM    7  O   UNL     1      -6.810   5.964  65.801  1.00  0.00    -0.053 OA 
ENDROOT
BRANCH   2   8
HETATM    8  C   UNL     1      -9.565   7.982  66.897  1.00  0.00    -0.204 A  
HETATM    9  C   UNL     1      -9.873   8.993  65.984  1.00  0.00    -0.312 A  
HETATM   10  C   UNL     1     -10.476  10.166  66.437  1.00  0.00    -0.210 A  
HETATM   11  C   UNL     1     -10.782  10.312  67.792  1.00  0.00    -0.275 A  
HETATM   12  C   UNL     1      -9.901   8.117  68.247  1.00  0.00    -0.191 A  
HETATM   13  C   UNL     1     -10.500   9.293  68.700  1.00  0.00    -0.236 A  
BRANCH  11  14
HETATM   14  O   UNL     1     -11.278  11.579  68.170  1.00  0.00    -0.229 OA 
BRANCH  14  15
HETATM   15  C   UNL     1     -12.158  11.768  69.241  1.00  0.00    -0.229 C  
HETATM   16  O   UNL     1     -12.996  10.960  69.622  1.00  0.00    -0.131 OA 
BRANCH  15  17
HETATM   17  C   UNL     1     -11.936  13.067  69.830  1.00  0.00    -0.311 A  
HETATM   18  C   UNL     1     -12.527  13.670  70.927  1.00  0.00    -0.448 A  
HETATM   19  C   UNL     1     -11.943  14.951  71.059  1.00  0.00    -0.376 A  
HETATM   20  C   UNL     1     -11.024  15.057  70.042  1.00  0.00    -0.244 A  
HETATM   21  O   UNL     1     -11.009  13.923  69.293  1.00  0.00    -0.243 OA 
ENDBRANCH  15  17
ENDBRANCH  14  15
ENDBRANCH  11  14
ENDBRANCH   2   8
TORSDOF 4
ENDMDL
MODEL      207
REMARK 921   NORMALIZED FREE ENERGY PREDICTED BY IDOCK:   -3.11 KCAL/MOL
REMARK 922        TOTAL FREE ENERGY PREDICTED BY IDOCK:   -4.35 KCAL/MOL
REMARK 923 INTER-LIGAND FREE ENERGY PREDICTED BY IDOCK:   -3.86 KCAL/MOL
REMARK 924 INTRA-LIGAND FREE ENERGY PREDICTED BY IDOCK:   -0.49 KCAL/MOL
REMARK 927      BINDING AFFINITY PREDICTED BY RF-SCORE:    0.00 PKD
ROOT
HETATM    1  C   UNL     1     -12.008  12.666  69.564  1.00  0.00    -0.270 C  
HETATM    2  N   UNL     1     -11.347  12.366  68.301  1.00  0.00    -0.261 N  
HETATM    3 CL   UNL     1     -11.885  12.065  64.844  1.00  0.00    -0.344 Cl 
HETATM    4  C   UNL     1     -11.431  13.258  67.223  1.00  0.00    -0.338 C  
HETATM    5 CL   UNL     1     -10.053  14.319  65.120  1.00  0.00    -0.393 Cl 
HETATM    6  C   UNL     1     -10.715  12.869  65.916  1.00  0.00    -0.271 C  
HETATM    7  O   UNL     1     -12.069  14.312  67.325  1.00  0.00    -0.411 OA 
ENDROOT
BRANCH   2   8
HETATM    8  C   UNL     1     -10.639  11.150  68.233  1.00  0.00    -0.190 A  
HETATM    9  C   UNL     1     -11.307   9.981  67.858  1.00  0.00    -0.025 A  
HETATM   10  C   UNL     1     -10.651   8.755  67.958  1.00  0.00    -0.218 A  
HETATM   11  C   UNL     1      -9.331   8.707  68.414  1.00  0.00    -0.138 A  
HETATM   12  C   UNL     1      -9.309  11.104  68.658  1.00  0.00    -0.186 A  
HETATM   13  C   UNL     1      -8.655   9.875  68.762  1.00  0.00    -0.130 A  
BRANCH  11  14
HETATM   14  O   UNL     1      -8.796   7.413  68.593  1.00  0.00    -0.128 OA 
BRANCH  14  15
HETATM   15  C   UNL     1      -8.874   6.714  69.802  1.00  0.00    -0.144 C  
HETATM   16  O   UNL     1      -9.890   6.559  70.468  1.00  0.00    -0.178 OA 
BRANCH  15  17
HETATM   17  C   UNL     1      -7.570   6.204  70.154  1.00  0.00    -0.096 A  
HETATM   18  C   UNL     1      -6.635   6.676  71.060  1.00  0.00    -0.053 A  
HETATM   19  C   UNL     1      -5.526   5.799  71.001  1.00  0.00    -0.013 A  
HETATM   20  C   UNL     1      -5.847   4.840  70.070  1.00  0.00    -0.017 A  
HETATM   21  O   UNL     1      -7.081   5.073  69.553  1.00  0.00    -0.053 OA 
ENDBRANCH  15  17
ENDBRANCH  14  15
ENDBRANCH  11  14
ENDBRANCH   2   8
TORSDOF 4
ENDMDL
MODEL      208
REMARK 921   NORMALIZED FREE ENERGY PREDICTED BY IDOCK:   -3.11 KCAL/MOL
REMARK 922        TOTAL FREE ENERGY PREDICTED BY IDOCK:   -4.35 KCAL/MOL
REMARK 923 INTER-LIGAND FREE ENERGY PREDICTED BY IDOCK:   -4.14 KCAL/MOL
REMARK 924 INTRA-LIGAND FREE ENERGY PREDICTED BY IDOCK:   -0.21 KCAL/MOL
REMARK 927      BINDING AFFINITY PREDICTED BY RF-SCORE:    0.00 PKD
ROOT
HETATM    1  C   UNL     1     -12.645   7.025  71.530  1.00  0.00    -0.385 C  
HETATM    2  N   UNL     1     -11.286   6.698  71.122  1.00  0.00    -0.277 N  
HETATM    3 CL   UNL     1      -7.974   6.491  72.273  1.00  0.00    -0.102 Cl 
HETATM    4  C   UNL     1     -10.534   5.753  71.835  1.00  0.00    -0.221 C  
HETATM    5 CL   UNL     1      -8.700   3.748  71.589  1.00  0.00    -0.121 Cl 
HETATM    6  C   UNL     1      -9.101   5.468  71.351  1.00  0.00    -0.143 C  
HETATM    7  O   UNL     1     -11.012   5.184  72.823  1.00  0.00    -0.239 OA 
ENDROOT
BRANCH   2   8
HETATM    8  C   UNL     1     -10.785   7.380  69.996  1.00  0.00    -0.246 A  
HETATM    9  C   UNL     1     -10.454   8.734  70.097  1.00  0.00    -0.230 A  
HETATM   10  C   UNL     1     -10.125   9.447  68.946  1.00  0.00    -0.201 A  
HETATM   11  C   UNL     1     -10.111   8.801  67.707  1.00  0.00    -0.207 A  
HETATM   12  C   UNL     1     -10.740   6.728  68.761  1.00  0.00    -0.280 A  
HETATM   13  C   UNL     1     -10.415   7.444  67.608  1.00  0.00    -0.310 A  
BRANCH  11  14
HETATM   14  O   UNL     1      -9.884   9.633  66.589  1.00  0.00    -0.195 OA 
BRANCH  14  15
HETATM   15  C   UNL     1      -8.637  10.192  66.292  1.00  0.00    -0.131 C  
HETATM   16  O   UNL     1      -7.807   9.712  65.532  1.00  0.00    -0.106 OA 
BRANCH  15  17
HETATM   17  C   UNL     1      -8.469  11.425  67.026  1.00  0.00    -0.159 A  
HETATM   18  C   UNL     1      -9.376  12.431  67.314  1.00  0.00    -0.184 A  
HETATM   19  C   UNL     1      -8.679  13.414  68.055  1.00  0.00    -0.178 A  
HETATM   20  C   UNL     1      -7.390  12.951  68.184  1.00  0.00    -0.119 A  
HETATM   21  O   UNL     1      -7.252  11.749  67.567  1.00  0.00    -0.105 OA 
ENDBRANCH  15  17
ENDBRANCH  14  15
ENDBRANCH  11  14
ENDBRANCH   2   8
TORSDOF 4
ENDMDL
MODEL      209
REMARK 921   NORMALIZED FREE ENERGY PREDICTED BY IDOCK:   -3.10 KCAL/MOL
REMARK 922        TOTAL FREE ENERGY PREDICTED BY IDOCK:   -4.33 KCAL/MOL
REMARK 923 INTER-LIGAND FREE ENERGY PREDICTED BY IDOCK:   -3.83 KCAL/MOL
REMARK 924 INTRA-LIGAND FREE ENERGY PREDICTED BY IDOCK:   -0.50 KCAL/MOL
REMARK 927      BINDING AFFINITY PREDICTED BY RF-SCORE:    0.00 PKD
ROOT
HETATM    1  C   UNL     1      -9.856   9.825  65.471  1.00  0.00    -0.308 C  
HETATM    2  N   UNL     1      -9.116   8.571  65.512  1.00  0.00    -0.142 N  
HETATM    3 CL   UNL     1      -8.281   5.732  63.622  1.00  0.00    -0.106 Cl 
HETATM    4  C   UNL     1      -8.164   8.273  64.528  1.00  0.00    -0.135 C  
HETATM    5 CL   UNL     1      -5.743   7.096  64.081  1.00  0.00    -0.033 Cl 
HETATM    6  C   UNL     1      -7.429   6.924  64.631  1.00  0.00    -0.098 C  
HETATM    7  O   UNL     1      -7.938   9.067  63.608  1.00  0.00    -0.134 OA 
ENDROOT
BRANCH   2   8
HETATM    8  C   UNL     1      -9.416   7.697  66.576  1.00  0.00    -0.190 A  
HETATM    9  C   UNL     1     -10.515   6.841  66.479  1.00  0.00    -0.101 A  
HETATM   10  C   UNL     1     -10.911   6.105  67.594  1.00  0.00    -0.400 A  
HETATM   11  C   UNL     1     -10.197   6.216  68.790  1.00  0.00    -0.184 A  
HETATM   12  C   UNL     1      -8.684   7.783  67.763  1.00  0.00    -0.123 A  
HETATM   13  C   UNL     1      -9.084   7.049  68.881  1.00  0.00    -0.134 A  
BRANCH  11  14
HETATM   14  O   UNL     1     -10.746   5.525  69.892  1.00  0.00    -0.319 OA 
BRANCH  14  15
HETATM   15  C   UNL     1      -9.966   4.944  70.897  1.00  0.00    -0.217 C  
HETATM   16  O   UNL     1      -9.441   3.839  70.838  1.00  0.00    -0.138 OA 
BRANCH  15  17
HETATM   17  C   UNL     1      -9.878   5.840  72.025  1.00  0.00    -0.155 A  
HETATM   18  C   UNL     1     -10.770   6.790  72.491  1.00  0.00    -0.261 A  
HETATM   19  C   UNL     1     -10.177   7.392  73.626  1.00  0.00    -0.380 A  
HETATM   20  C   UNL     1      -8.961   6.772  73.794  1.00  0.00    -0.148 A  
HETATM   21  O   UNL     1      -8.770   5.831  72.833  1.00  0.00    -0.125 OA 
ENDBRANCH  15  17
ENDBRANCH  14  15
ENDBRANCH  11  14
ENDBRANCH   2   8
TORSDOF 4
ENDMDL
MODEL      210
REMARK 921   NORMALIZED FREE ENERGY PREDICTED BY IDOCK:   -3.10 KCAL/MOL
REMARK 922        TOTAL FREE ENERGY PREDICTED BY IDOCK:   -4.33 KCAL/MOL
REMARK 923 INTER-LIGAND FREE ENERGY PREDICTED BY IDOCK:   -3.67 KCAL/MOL
REMARK 924 INTRA-LIGAND FREE ENERGY PREDICTED BY IDOCK:   -0.67 KCAL/MOL
REMARK 927      BINDING AFFINITY PREDICTED BY RF-SCORE:    0.00 PKD
ROOT
HETATM    1  C   UNL     1      -7.386  10.173  64.647  1.00  0.00    -0.129 C  
HETATM    2  N   UNL     1      -8.185   9.876  65.828  1.00  0.00    -0.122 N  
HETATM    3 CL   UNL     1      -8.997  11.034  69.043  1.00  0.00    -0.120 Cl 
HETATM    4  C   UNL     1      -9.067  10.832  66.351  1.00  0.00    -0.171 C  
HETATM    5 CL   UNL     1     -11.497  11.178  67.545  1.00  0.00    -0.343 Cl 
HETATM    6  C   UNL     1      -9.872  10.450  67.608  1.00  0.00    -0.170 C  
HETATM    7  O   UNL     1      -9.179  11.943  65.821  1.00  0.00    -0.201 OA 
ENDROOT
BRANCH   2   8
HETATM    8  C   UNL     1      -8.016   8.599  66.399  1.00  0.00    -0.099 A  
HETATM    9  C   UNL     1      -8.816   7.538  65.969  1.00  0.00    -0.179 A  
HETATM   10  C   UNL     1      -8.768   6.323  66.652  1.00  0.00    -0.126 A  
HETATM   11  C   UNL     1      -7.911   6.172  67.744  1.00  0.00    -0.105 A  
HETATM   12  C   UNL     1      -7.136   8.437  67.472  1.00  0.00    -0.083 A  
HETATM   13  C   UNL     1      -7.092   7.222  68.158  1.00  0.00    -0.081 A  
BRANCH  11  14
HETATM   14  O   UNL     1      -8.022   4.949  68.441  1.00  0.00    -0.085 OA 
BRANCH  14  15
HETATM   15  C   UNL     1      -9.249   4.379  68.795  1.00  0.00    -0.136 C  
HETATM   16  O   UNL     1      -9.719   3.354  68.317  1.00  0.00    -0.129 OA 
BRANCH  15  17
HETATM   17  C   UNL     1      -9.888   5.186  69.807  1.00  0.00    -0.212 A  
HETATM   18  C   UNL     1     -10.986   6.025  69.728  1.00  0.00    -0.471 A  
HETATM   19  C   UNL     1     -11.177   6.577  71.016  1.00  0.00    -0.362 A  
HETATM   20  C   UNL     1     -10.191   6.041  71.810  1.00  0.00    -0.202 A  
HETATM   21  O   UNL     1      -9.406   5.198  71.091  1.00  0.00    -0.141 OA 
ENDBRANCH  15  17
ENDBRANCH  14  15
ENDBRANCH  11  14
ENDBRANCH   2   8
TORSDOF 4
ENDMDL
MODEL      211
REMARK 921   NORMALIZED FREE ENERGY PREDICTED BY IDOCK:   -3.07 KCAL/MOL
REMARK 922        TOTAL FREE ENERGY PREDICTED BY IDOCK:   -4.30 KCAL/MOL
REMARK 923 INTER-LIGAND FREE ENERGY PREDICTED BY IDOCK:   -3.85 KCAL/MOL
REMARK 924 INTRA-LIGAND FREE ENERGY PREDICTED BY IDOCK:   -0.45 KCAL/MOL
REMARK 927      BINDING AFFINITY PREDICTED BY RF-SCORE:    0.00 PKD
ROOT
HETATM    1  C   UNL     1      -7.707   4.772  69.075  1.00  0.00    -0.071 C  
HETATM    2  N   UNL     1      -8.449   5.337  67.956  1.00  0.00    -0.098 N  
HETATM    3 CL   UNL     1      -8.252   6.058  64.525  1.00  0.00    -0.123 Cl 
HETATM    4  C   UNL     1      -8.619   4.606  66.772  1.00  0.00    -0.108 C  
HETATM    5 CL   UNL     1     -10.362   4.055  64.747  1.00  0.00    -0.239 Cl 
HETATM    6  C   UNL     1      -9.406   5.272  65.629  1.00  0.00    -0.114 C  
HETATM    7  O   UNL     1      -8.139   3.473  66.657  1.00  0.00    -0.090 OA 
ENDROOT
BRANCH   2   8
HETATM    8  C   UNL     1      -8.968   6.634  68.135  1.00  0.00    -0.121 A  
HETATM    9  C   UNL     1      -8.309   7.727  67.567  1.00  0.00    -0.120 A  
HETATM   10  C   UNL     1      -8.723   9.019  67.887  1.00  0.00    -0.129 A  
HETATM   11  C   UNL     1      -9.801   9.210  68.755  1.00  0.00    -0.167 A  
HETATM   12  C   UNL     1     -10.065   6.826  68.978  1.00  0.00    -0.172 A  
HETATM   13  C   UNL     1     -10.476   8.119  69.302  1.00  0.00    -0.221 A  
BRANCH  11  14
HETATM   14  O   UNL     1     -10.066  10.550  69.111  1.00  0.00    -0.205 OA 
BRANCH  14  15
HETATM   15  C   UNL     1     -10.795  11.426  68.301  1.00  0.00    -0.209 C  
HETATM   16  O   UNL     1     -11.955  11.264  67.944  1.00  0.00    -0.630 OA 
BRANCH  15  17
HETATM   17  C   UNL     1      -9.970  12.555  67.938  1.00  0.00    -0.212 A  
HETATM   18  C   UNL     1     -10.261  13.673  67.177  1.00  0.00    -0.244 A  
HETATM   19  C   UNL     1      -9.085  14.458  67.131  1.00  0.00    -0.238 A  
HETATM   20  C   UNL     1      -8.146  13.780  67.872  1.00  0.00    -0.166 A  
HETATM   21  O   UNL     1      -8.670  12.629  68.366  1.00  0.00    -0.175 OA 
ENDBRANCH  15  17
ENDBRANCH  14  15
ENDBRANCH  11  14
ENDBRANCH   2   8
TORSDOF 4
ENDMDL
MODEL      212
REMARK 921   NORMALIZED FREE ENERGY PREDICTED BY IDOCK:   -3.05 KCAL/MOL
REMARK 922        TOTAL FREE ENERGY PREDICTED BY IDOCK:   -4.28 KCAL/MOL
REMARK 923 INTER-LIGAND FREE ENERGY PREDICTED BY IDOCK:   -3.68 KCAL/MOL
REMARK 924 INTRA-LIGAND FREE ENERGY PREDICTED BY IDOCK:   -0.60 KCAL/MOL
REMARK 927      BINDING AFFINITY PREDICTED BY RF-SCORE:    0.00 PKD
ROOT
HETATM    1  C   UNL     1      -9.051   4.889  64.520  1.00  0.00    -0.053 C  
HETATM    2  N   UNL     1      -8.880   4.523  65.920  1.00  0.00    -0.119 N  
HETATM    3 CL   UNL     1      -9.619   2.042  68.292  1.00  0.00    -0.226 Cl 
HETATM    4  C   UNL     1      -8.329   3.283  66.270  1.00  0.00    -0.100 C  
HETATM    5 CL   UNL     1      -6.710   2.011  68.061  1.00  0.00    -0.032 Cl 
HETATM    6  C   UNL     1      -8.188   2.962  67.770  1.00  0.00    -0.079 C  
HETATM    7  O   UNL     1      -7.983   2.478  65.398  1.00  0.00    -0.077 OA 
ENDROOT
BRANCH   2   8
HETATM    8  C   UNL     1      -9.297   5.472  66.874  1.00  0.00    -0.127 A  
HETATM    9  C   UNL     1      -8.351   6.300  67.485  1.00  0.00    -0.113 A  
HETATM   10  C   UNL     1      -8.738   7.114  68.549  1.00  0.00    -0.126 A  
HETATM   11  C   UNL     1     -10.066   7.108  68.983  1.00  0.00    -0.183 A  
HETATM   12  C   UNL     1     -10.631   5.490  67.289  1.00  0.00    -0.294 A  
HETATM   13  C   UNL     1     -11.016   6.302  68.357  1.00  0.00    -0.409 A  
BRANCH  11  14
HETATM   14  O   UNL     1     -10.332   7.872  70.139  1.00  0.00    -0.206 OA 
BRANCH  14  15
HETATM   15  C   UNL     1     -11.295   7.516  71.088  1.00  0.00    -0.267 C  
HETATM   16  O   UNL     1     -12.388   8.049  71.224  1.00  0.00    -0.305 OA 
BRANCH  15  17
HETATM   17  C   UNL     1     -10.804   6.423  71.894  1.00  0.00    -0.240 A  
HETATM   18  C   UNL     1      -9.543   6.185  72.415  1.00  0.00    -0.159 A  
HETATM   19  C   UNL     1      -9.613   4.961  73.121  1.00  0.00    -0.154 A  
HETATM   20  C   UNL     1     -10.910   4.524  72.997  1.00  0.00    -0.237 A  
HETATM   21  O   UNL     1     -11.641   5.400  72.259  1.00  0.00    -0.170 OA 
ENDBRANCH  15  17
ENDBRANCH  14  15
ENDBRANCH  11  14
ENDBRANCH   2   8
TORSDOF 4
ENDMDL
MODEL      213
REMARK 921   NORMALIZED FREE ENERGY PREDICTED BY IDOCK:   -3.04 KCAL/MOL
REMARK 922        TOTAL FREE ENERGY PREDICTED BY IDOCK:   -4.26 KCAL/MOL
REMARK 923 INTER-LIGAND FREE ENERGY PREDICTED BY IDOCK:   -3.92 KCAL/MOL
REMARK 924 INTRA-LIGAND FREE ENERGY PREDICTED BY IDOCK:   -0.34 KCAL/MOL
REMARK 927      BINDING AFFINITY PREDICTED BY RF-SCORE:    0.00 PKD
ROOT
HETATM    1  C   UNL     1      -8.502   7.679  65.960  1.00  0.00    -0.144 C  
HETATM    2  N   UNL     1      -9.052   8.500  67.029  1.00  0.00    -0.139 N  
HETATM    3 CL   UNL     1      -8.997  11.726  68.416  1.00  0.00    -0.181 Cl 
HETATM    4  C   UNL     1      -9.679   9.720  66.742  1.00  0.00    -0.194 C  
HETATM    5 CL   UNL     1     -11.729  11.374  67.454  1.00  0.00    -0.266 Cl 
HETATM    6  C   UNL     1     -10.227  10.539  67.925  1.00  0.00    -0.183 C  
HETATM    7  O   UNL     1      -9.772  10.122  65.576  1.00  0.00    -0.238 OA 
ENDROOT
BRANCH   2   8
HETATM    8  C   UNL     1      -8.914   8.003  68.340  1.00  0.00    -0.133 A  
HETATM    9  C   UNL     1      -9.879   7.133  68.855  1.00  0.00    -0.156 A  
HETATM   10  C   UNL     1      -9.834   6.780  70.203  1.00  0.00    -0.187 A  
HETATM   11  C   UNL     1      -8.819   7.283  71.021  1.00  0.00    -0.144 A  
HETATM   12  C   UNL     1      -7.881   8.479  69.152  1.00  0.00    -0.100 A  
HETATM   13  C   UNL     1      -7.840   8.129  70.502  1.00  0.00    -0.087 A  
BRANCH  11  14
HETATM   14  O   UNL     1      -8.928   6.965  72.392  1.00  0.00    -0.133 OA 
BRANCH  14  15
HETATM   15  C   UNL     1     -10.149   6.702  73.021  1.00  0.00    -0.186 C  
HETATM   16  O   UNL     1     -11.051   7.514  73.186  1.00  0.00    -0.383 OA 
BRANCH  15  17
HETATM   17  C   UNL     1     -10.186   5.327  73.458  1.00  0.00    -0.202 A  
HETATM   18  C   UNL     1     -11.151   4.351  73.276  1.00  0.00    -0.368 A  
HETATM   19  C   UNL     1     -10.683   3.182  73.921  1.00  0.00    -0.286 A  
HETATM   20  C   UNL     1      -9.458   3.507  74.454  1.00  0.00    -0.098 A  
HETATM   21  O   UNL     1      -9.146   4.800  74.180  1.00  0.00    -0.112 OA 
ENDBRANCH  15  17
ENDBRANCH  14  15
ENDBRANCH  11  14
ENDBRANCH   2   8
TORSDOF 4
ENDMDL
MODEL      214
REMARK 921   NORMALIZED FREE ENERGY PREDICTED BY IDOCK:   -3.03 KCAL/MOL
REMARK 922        TOTAL FREE ENERGY PREDICTED BY IDOCK:   -4.25 KCAL/MOL
REMARK 923 INTER-LIGAND FREE ENERGY PREDICTED BY IDOCK:   -3.76 KCAL/MOL
REMARK 924 INTRA-LIGAND FREE ENERGY PREDICTED BY IDOCK:   -0.49 KCAL/MOL
REMARK 927      BINDING AFFINITY PREDICTED BY RF-SCORE:    0.00 PKD
ROOT
HETATM    1  C   UNL     1     -12.327  11.530  70.464  1.00  0.00    -0.342 C  
HETATM    2  N   UNL     1     -11.279  11.557  69.452  1.00  0.00    -0.260 N  
HETATM    3 CL   UNL     1     -10.455  12.837  66.287  1.00  0.00    -0.266 Cl 
HETATM    4  C   UNL     1     -10.789  12.777  68.966  1.00  0.00    -0.148 C  
HETATM    5 CL   UNL     1      -8.545  14.074  68.113  1.00  0.00    -0.173 Cl 
HETATM    6  C   UNL     1      -9.689  12.727  67.889  1.00  0.00    -0.217 C  
HETATM    7  O   UNL     1     -11.239  13.849  69.385  1.00  0.00    -0.253 OA 
ENDROOT
BRANCH   2   8
HETATM    8  C   UNL     1     -10.806  10.309  69.001  1.00  0.00    -0.230 A  
HETATM    9  C   UNL     1      -9.900   9.589  69.785  1.00  0.00    -0.236 A  
HETATM   10  C   UNL     1      -9.302   8.443  69.263  1.00  0.00    -0.154 A  
HETATM   11  C   UNL     1      -9.625   8.016  67.972  1.00  0.00    -0.152 A  
HETATM   12  C   UNL     1     -11.151   9.863  67.723  1.00  0.00    -0.196 A  
HETATM   13  C   UNL     1     -10.548   8.719  67.200  1.00  0.00    -0.303 A  
BRANCH  11  14
HETATM   14  O   UNL     1      -8.879   6.918  67.491  1.00  0.00    -0.119 OA 
BRANCH  14  15
HETATM   15  C   UNL     1      -7.551   7.022  67.066  1.00  0.00    -0.102 C  
HETATM   16  O   UNL     1      -6.592   6.471  67.592  1.00  0.00    -0.056 OA 
BRANCH  15  17
HETATM   17  C   UNL     1      -7.474   7.888  65.913  1.00  0.00    -0.078 A  
HETATM   18  C   UNL     1      -6.763   9.059  65.713  1.00  0.00    -0.072 A  
HETATM   19  C   UNL     1      -7.058   9.502  64.402  1.00  0.00    -0.108 A  
HETATM   20  C   UNL     1      -7.926   8.575  63.874  1.00  0.00    -0.160 A  
HETATM   21  O   UNL     1      -8.184   7.594  64.777  1.00  0.00    -0.135 OA 
ENDBRANCH  15  17
ENDBRANCH  14  15
ENDBRANCH  11  14
ENDBRANCH   2   8
TORSDOF 4
ENDMDL
MODEL      215
REMARK 921   NORMALIZED FREE ENERGY PREDICTED BY IDOCK:   -3.03 KCAL/MOL
REMARK 922        TOTAL FREE ENERGY PREDICTED BY IDOCK:   -4.25 KCAL/MOL
REMARK 923 INTER-LIGAND FREE ENERGY PREDICTED BY IDOCK:   -3.75 KCAL/MOL
REMARK 924 INTRA-LIGAND FREE ENERGY PREDICTED BY IDOCK:   -0.50 KCAL/MOL
REMARK 927      BINDING AFFINITY PREDICTED BY RF-SCORE:    0.00 PKD
ROOT
HETATM    1  C   UNL     1      -5.655  10.359  64.436  1.00  0.00    -0.134 C  
HETATM    2  N   UNL     1      -6.379  10.359  65.700  1.00  0.00    -0.118 N  
HETATM    3 CL   UNL     1      -5.961  10.210  69.183  1.00  0.00    -0.037 Cl 
HETATM    4  C   UNL     1      -6.056  11.280  66.706  1.00  0.00    -0.131 C  
HETATM    5 CL   UNL     1      -7.097  12.850  68.681  1.00  0.00    -0.100 Cl 
HETATM    6  C   UNL     1      -6.858  11.213  68.020  1.00  0.00    -0.067 C  
HETATM    7  O   UNL     1      -5.151  12.104  66.539  1.00  0.00    -0.337 OA 
ENDROOT
BRANCH   2   8
HETATM    8  C   UNL     1      -7.396   9.395  65.844  1.00  0.00    -0.095 A  
HETATM    9  C   UNL     1      -8.735   9.784  65.749  1.00  0.00    -0.160 A  
HETATM   10  C   UNL     1      -9.739   8.867  66.062  1.00  0.00    -0.308 A  
HETATM   11  C   UNL     1      -9.399   7.568  66.448  1.00  0.00    -0.157 A  
HETATM   12  C   UNL     1      -7.059   8.087  66.200  1.00  0.00    -0.062 A  
HETATM   13  C   UNL     1      -8.064   7.172  66.517  1.00  0.00    -0.114 A  
BRANCH  11  14
HETATM   14  O   UNL     1     -10.476   6.754  66.859  1.00  0.00    -0.251 OA 
BRANCH  14  15
HETATM   15  C   UNL     1     -10.357   5.763  67.838  1.00  0.00    -0.214 C  
HETATM   16  O   UNL     1     -10.044   4.597  67.633  1.00  0.00    -0.134 OA 
BRANCH  15  17
HETATM   17  C   UNL     1     -10.668   6.318  69.134  1.00  0.00    -0.301 A  
HETATM   18  C   UNL     1     -10.910   7.626  69.518  1.00  0.00    -0.171 A  
HETATM   19  C   UNL     1     -11.153   7.608  70.911  1.00  0.00    -0.275 A  
HETATM   20  C   UNL     1     -11.053   6.293  71.299  1.00  0.00    -0.289 A  
HETATM   21  O   UNL     1     -10.762   5.503  70.233  1.00  0.00    -0.294 OA 
ENDBRANCH  15  17
ENDBRANCH  14  15
ENDBRANCH  11  14
ENDBRANCH   2   8
TORSDOF 4
ENDMDL
MODEL      216
REMARK 921   NORMALIZED FREE ENERGY PREDICTED BY IDOCK:   -2.98 KCAL/MOL
REMARK 922        TOTAL FREE ENERGY PREDICTED BY IDOCK:   -4.19 KCAL/MOL
REMARK 923 INTER-LIGAND FREE ENERGY PREDICTED BY IDOCK:   -4.07 KCAL/MOL
REMARK 924 INTRA-LIGAND FREE ENERGY PREDICTED BY IDOCK:   -0.12 KCAL/MOL
REMARK 927      BINDING AFFINITY PREDICTED BY RF-SCORE:    0.00 PKD
ROOT
HETATM    1  C   UNL     1     -10.897  18.442  68.616  1.00  0.00     0.444 C  
HETATM    2  N   UNL     1     -10.259  17.192  68.224  1.00  0.00    -0.313 N  
HETATM    3 CL   UNL     1      -9.317  15.263  65.445  1.00  0.00    -0.037 Cl 
HETATM    4  C   UNL     1      -9.180  17.192  67.329  1.00  0.00    -0.230 C  
HETATM    5 CL   UNL     1      -6.802  15.993  66.734  1.00  0.00    -0.086 Cl 
HETATM    6  C   UNL     1      -8.563  15.832  66.953  1.00  0.00    -0.247 C  
HETATM    7  O   UNL     1      -8.755  18.252  66.855  1.00  0.00    -0.253 OA 
ENDROOT
BRANCH   2   8
HETATM    8  C   UNL     1     -10.786  16.012  68.785  1.00  0.00    -0.282 A  
HETATM    9  C   UNL     1     -11.569  15.163  68.000  1.00  0.00    -0.345 A  
HETATM   10  C   UNL     1     -12.230  14.091  68.599  1.00  0.00    -0.218 A  
HETATM   11  C   UNL     1     -12.089  13.866  69.970  1.00  0.00    -0.345 A  
HETATM   12  C   UNL     1     -10.621  15.767  70.151  1.00  0.00    -0.334 A  
HETATM   13  C   UNL     1     -11.287  14.697  70.750  1.00  0.00    -0.161 A  
BRANCH  11  14
HETATM   14  O   UNL     1     -12.890  12.832  70.502  1.00  0.00    -0.047 OA 
BRANCH  14  15
HETATM   15  C   UNL     1     -12.372  11.607  70.934  1.00  0.00    -0.336 C  
HETATM   16  O   UNL     1     -12.596  11.084  72.018  1.00  0.00    -0.208 OA 
BRANCH  15  17
HETATM   17  C   UNL     1     -11.522  11.049  69.908  1.00  0.00    -0.320 A  
HETATM   18  C   UNL     1     -11.780  10.781  68.574  1.00  0.00    -0.259 A  
HETATM   19  C   UNL     1     -10.597  10.229  68.029  1.00  0.00    -0.272 A  
HETATM   20  C   UNL     1      -9.683  10.197  69.056  1.00  0.00    -0.206 A  
HETATM   21  O   UNL     1     -10.230  10.692  70.196  1.00  0.00    -0.020 OA 
ENDBRANCH  15  17
ENDBRANCH  14  15
ENDBRANCH  11  14
ENDBRANCH   2   8
TORSDOF 4
ENDMDL
MODEL      217
REMARK 921   NORMALIZED FREE ENERGY PREDICTED BY IDOCK:   -2.96 KCAL/MOL
REMARK 922        TOTAL FREE ENERGY PREDICTED BY IDOCK:   -4.16 KCAL/MOL
REMARK 923 INTER-LIGAND FREE ENERGY PREDICTED BY IDOCK:   -3.82 KCAL/MOL
REMARK 924 INTRA-LIGAND FREE ENERGY PREDICTED BY IDOCK:   -0.34 KCAL/MOL
REMARK 927      BINDING AFFINITY PREDICTED BY RF-SCORE:    0.00 PKD
ROOT
HETATM    1  C   UNL     1      -6.730   5.782  73.783  1.00  0.00    -0.080 C  
HETATM    2  N   UNL     1      -7.938   5.841  72.971  1.00  0.00    -0.107 N  
HETATM    3 CL   UNL     1     -10.123   3.898  71.027  1.00  0.00    -0.138 Cl 
HETATM    4  C   UNL     1      -9.018   4.988  73.236  1.00  0.00    -0.119 C  
HETATM    5 CL   UNL     1     -11.742   4.817  73.273  1.00  0.00    -0.320 Cl 
HETATM    6  C   UNL     1     -10.258   5.102  72.329  1.00  0.00    -0.202 C  
HETATM    7  O   UNL     1      -8.963   4.169  74.160  1.00  0.00    -0.095 OA 
ENDROOT
BRANCH   2   8
HETATM    8  C   UNL     1      -7.949   6.786  71.926  1.00  0.00    -0.101 A  
HETATM    9  C   UNL     1      -8.584   8.017  72.112  1.00  0.00    -0.206 A  
HETATM   10  C   UNL     1      -8.744   8.877  71.027  1.00  0.00    -0.276 A  
HETATM   11  C   UNL     1      -8.254   8.510  69.771  1.00  0.00    -0.121 A  
HETATM   12  C   UNL     1      -7.432   6.435  70.676  1.00  0.00    -0.087 A  
HETATM   13  C   UNL     1      -7.597   7.294  69.589  1.00  0.00    -0.099 A  
BRANCH  11  14
HETATM   14  O   UNL     1      -8.570   9.392  68.714  1.00  0.00    -0.123 OA 
BRANCH  14  15
HETATM   15  C   UNL     1      -9.525   9.101  67.735  1.00  0.00    -0.140 C  
HETATM   16  O   UNL     1      -9.749   7.991  67.270  1.00  0.00    -0.154 OA 
BRANCH  15  17
HETATM   17  C   UNL     1     -10.206  10.313  67.344  1.00  0.00    -0.218 A  
HETATM   18  C   UNL     1     -11.304  10.946  67.901  1.00  0.00    -0.380 A  
HETATM   19  C   UNL     1     -11.560  12.094  67.114  1.00  0.00    -0.405 A  
HETATM   20  C   UNL     1     -10.602  12.102  66.128  1.00  0.00    -0.255 A  
HETATM   21  O   UNL     1      -9.777  11.031  66.257  1.00  0.00    -0.195 OA 
ENDBRANCH  15  17
ENDBRANCH  14  15
ENDBRANCH  11  14
ENDBRANCH   2   8
TORSDOF 4
ENDMDL
MODEL      218
REMARK 921   NORMALIZED FREE ENERGY PREDICTED BY IDOCK:   -2.95 KCAL/MOL
REMARK 922        TOTAL FREE ENERGY PREDICTED BY IDOCK:   -4.15 KCAL/MOL
REMARK 923 INTER-LIGAND FREE ENERGY PREDICTED BY IDOCK:   -4.07 KCAL/MOL
REMARK 924 INTRA-LIGAND FREE ENERGY PREDICTED BY IDOCK:   -0.08 KCAL/MOL
REMARK 927      BINDING AFFINITY PREDICTED BY RF-SCORE:    0.00 PKD
ROOT
HETATM    1  C   UNL     1      -6.578   9.486  65.217  1.00  0.00    -0.082 C  
HETATM    2  N   UNL     1      -7.370   9.799  66.399  1.00  0.00    -0.094 N  
HETATM    3 CL   UNL     1      -7.143  10.817  69.752  1.00  0.00    -0.146 Cl 
HETATM    4  C   UNL     1      -7.210  11.024  67.061  1.00  0.00    -0.123 C  
HETATM    5 CL   UNL     1      -8.528  13.001  68.402  1.00  0.00    -0.150 Cl 
HETATM    6  C   UNL     1      -8.074  11.281  68.309  1.00  0.00    -0.137 C  
HETATM    7  O   UNL     1      -6.391  11.857  66.655  1.00  0.00    -0.094 OA 
ENDROOT
BRANCH   2   8
HETATM    8  C   UNL     1      -8.283   8.814  66.825  1.00  0.00    -0.108 A  
HETATM    9  C   UNL     1      -9.597   8.837  66.349  1.00  0.00    -0.316 A  
HETATM   10  C   UNL     1     -10.541   7.972  66.901  1.00  0.00    -0.324 A  
HETATM   11  C   UNL     1     -10.163   7.081  67.908  1.00  0.00    -0.183 A  
HETATM   12  C   UNL     1      -7.900   7.901  67.810  1.00  0.00    -0.123 A  
HETATM   13  C   UNL     1      -8.846   7.039  68.365  1.00  0.00    -0.123 A  
BRANCH  11  14
HETATM   14  O   UNL     1     -11.213   6.333  68.484  1.00  0.00    -0.352 OA 
BRANCH  14  15
HETATM   15  C   UNL     1     -11.404   6.220  69.864  1.00  0.00    -0.434 C  
HETATM   16  O   UNL     1     -12.099   6.961  70.548  1.00  0.00    -0.353 OA 
BRANCH  15  17
HETATM   17  C   UNL     1     -10.650   5.096  70.370  1.00  0.00    -0.154 A  
HETATM   18  C   UNL     1      -9.857   4.175  69.709  1.00  0.00    -0.220 A  
HETATM   19  C   UNL     1      -9.362   3.280  70.687  1.00  0.00    -0.229 A  
HETATM   20  C   UNL     1      -9.875   3.708  71.888  1.00  0.00    -0.171 A  
HETATM   21  O   UNL     1     -10.654   4.806  71.710  1.00  0.00    -0.157 OA 
ENDBRANCH  15  17
ENDBRANCH  14  15
ENDBRANCH  11  14
ENDBRANCH   2   8
TORSDOF 4
ENDMDL
MODEL      219
REMARK 921   NORMALIZED FREE ENERGY PREDICTED BY IDOCK:   -2.92 KCAL/MOL
REMARK 922        TOTAL FREE ENERGY PREDICTED BY IDOCK:   -4.12 KCAL/MOL
REMARK 923 INTER-LIGAND FREE ENERGY PREDICTED BY IDOCK:   -3.66 KCAL/MOL
REMARK 924 INTRA-LIGAND FREE ENERGY PREDICTED BY IDOCK:   -0.45 KCAL/MOL
REMARK 927      BINDING AFFINITY PREDICTED BY RF-SCORE:    0.00 PKD
ROOT
HETATM    1  C   UNL     1     -10.333   7.060  73.905  1.00  0.00    -0.348 C  
HETATM    2  N   UNL     1     -10.007   6.033  72.925  1.00  0.00    -0.171 N  
HETATM    3 CL   UNL     1      -7.839   3.348  72.275  1.00  0.00    -0.058 Cl 
HETATM    4  C   UNL     1      -9.952   4.683  73.298  1.00  0.00    -0.151 C  
HETATM    5 CL   UNL     1     -10.487   2.138  72.471  1.00  0.00    -0.221 Cl 
HETATM    6  C   UNL     1      -9.590   3.655  72.209  1.00  0.00    -0.145 C  
HETATM    7  O   UNL     1     -10.175   4.342  74.464  1.00  0.00    -0.188 OA 
ENDROOT
BRANCH   2   8
HETATM    8  C   UNL     1      -9.753   6.474  71.611  1.00  0.00    -0.163 A  
HETATM    9  C   UNL     1      -8.434   6.632  71.177  1.00  0.00    -0.126 A  
HETATM   10  C   UNL     1      -8.186   7.230  69.943  1.00  0.00    -0.133 A  
HETATM   11  C   UNL     1      -9.254   7.648  69.144  1.00  0.00    -0.141 A  
HETATM   12  C   UNL     1     -10.820   6.864  70.798  1.00  0.00    -0.279 A  
HETATM   13  C   UNL     1     -10.571   7.466  69.564  1.00  0.00    -0.244 A  
BRANCH  11  14
HETATM   14  O   UNL     1      -8.899   8.349  67.971  1.00  0.00    -0.140 OA 
BRANCH  14  15
HETATM   15  C   UNL     1      -9.527   8.146  66.739  1.00  0.00    -0.198 C  
HETATM   16  O   UNL     1     -10.284   8.937  66.190  1.00  0.00    -0.259 OA 
BRANCH  15  17
HETATM   17  C   UNL     1      -9.156   6.855  66.209  1.00  0.00    -0.141 A  
HETATM   18  C   UNL     1      -8.194   6.508  65.277  1.00  0.00    -0.135 A  
HETATM   19  C   UNL     1      -8.260   5.104  65.118  1.00  0.00    -0.132 A  
HETATM   20  C   UNL     1      -9.253   4.672  65.966  1.00  0.00    -0.144 A  
HETATM   21  O   UNL     1      -9.801   5.721  66.632  1.00  0.00    -0.148 OA 
ENDBRANCH  15  17
ENDBRANCH  14  15
ENDBRANCH  11  14
ENDBRANCH   2   8
TORSDOF 4
ENDMDL
MODEL      220
REMARK 921   NORMALIZED FREE ENERGY PREDICTED BY IDOCK:   -2.92 KCAL/MOL
REMARK 922        TOTAL FREE ENERGY PREDICTED BY IDOCK:   -4.11 KCAL/MOL
REMARK 923 INTER-LIGAND FREE ENERGY PREDICTED BY IDOCK:   -3.64 KCAL/MOL
REMARK 924 INTRA-LIGAND FREE ENERGY PREDICTED BY IDOCK:   -0.47 KCAL/MOL
REMARK 927      BINDING AFFINITY PREDICTED BY RF-SCORE:    0.00 PKD
ROOT
HETATM    1  C   UNL     1      -6.845   4.760  68.503  1.00  0.00    -0.051 C  
HETATM    2  N   UNL     1      -7.021   5.157  67.112  1.00  0.00    -0.063 N  
HETATM    3 CL   UNL     1      -5.289   5.793  64.125  1.00  0.00    -0.016 Cl 
HETATM    4  C   UNL     1      -6.500   4.371  66.075  1.00  0.00    -0.040 C  
HETATM    5 CL   UNL     1      -6.959   3.473  63.539  1.00  0.00    -0.043 Cl 
HETATM    6  C   UNL     1      -6.717   4.860  64.631  1.00  0.00    -0.048 C  
HETATM    7  O   UNL     1      -5.880   3.331  66.322  1.00  0.00    -0.021 OA 
ENDROOT
BRANCH   2   8
HETATM    8  C   UNL     1      -7.728   6.354  66.884  1.00  0.00    -0.100 A  
HETATM    9  C   UNL     1      -7.053   7.576  66.935  1.00  0.00    -0.084 A  
HETATM   10  C   UNL     1      -7.781   8.764  66.881  1.00  0.00    -0.094 A  
HETATM   11  C   UNL     1      -9.172   8.723  66.758  1.00  0.00    -0.169 A  
HETATM   12  C   UNL     1      -9.116   6.315  66.729  1.00  0.00    -0.141 A  
HETATM   13  C   UNL     1      -9.844   7.504  66.680  1.00  0.00    -0.274 A  
BRANCH  11  14
HETATM   14  O   UNL     1      -9.827   9.971  66.833  1.00  0.00    -0.180 OA 
BRANCH  14  15
HETATM   15  C   UNL     1     -10.374  10.616  65.719  1.00  0.00    -0.219 C  
HETATM   16  O   UNL     1     -10.261  10.245  64.557  1.00  0.00    -0.314 OA 
BRANCH  15  17
HETATM   17  C   UNL     1     -11.091  11.796  66.143  1.00  0.00    -0.307 A  
HETATM   18  C   UNL     1     -11.652  12.822  65.402  1.00  0.00    -0.393 A  
HETATM   19  C   UNL     1     -12.225  13.730  66.323  1.00  0.00    -0.489 A  
HETATM   20  C   UNL     1     -11.989  13.206  67.571  1.00  0.00    -0.317 A  
HETATM   21  O   UNL     1     -11.305  12.036  67.476  1.00  0.00    -0.276 OA 
ENDBRANCH  15  17
ENDBRANCH  14  15
ENDBRANCH  11  14
ENDBRANCH   2   8
TORSDOF 4
ENDMDL
MODEL      221
REMARK 921   NORMALIZED FREE ENERGY PREDICTED BY IDOCK:   -2.91 KCAL/MOL
REMARK 922        TOTAL FREE ENERGY PREDICTED BY IDOCK:   -4.10 KCAL/MOL
REMARK 923 INTER-LIGAND FREE ENERGY PREDICTED BY IDOCK:   -3.66 KCAL/MOL
REMARK 924 INTRA-LIGAND FREE ENERGY PREDICTED BY IDOCK:   -0.44 KCAL/MOL
REMARK 927      BINDING AFFINITY PREDICTED BY RF-SCORE:    0.00 PKD
ROOT
HETATM    1  C   UNL     1      -8.514  13.541  67.151  1.00  0.00    -0.166 C  
HETATM    2  N   UNL     1      -9.658  13.055  66.392  1.00  0.00    -0.266 N  
HETATM    3 CL   UNL     1     -13.138  13.368  66.034  1.00  0.00     0.153 Cl 
HETATM    4  C   UNL     1     -10.518  13.954  65.745  1.00  0.00    -0.307 C  
HETATM    5 CL   UNL     1     -12.038  14.338  63.512  1.00  0.00    -0.002 Cl 
HETATM    6  C   UNL     1     -11.712  13.367  64.970  1.00  0.00    -0.325 C  
HETATM    7  O   UNL     1     -10.321  15.172  65.810  1.00  0.00    -0.293 OA 
ENDROOT
BRANCH   2   8
HETATM    8  C   UNL     1      -9.843  11.659  66.354  1.00  0.00    -0.207 A  
HETATM    9  C   UNL     1     -10.529  11.024  67.392  1.00  0.00    -0.255 A  
HETATM   10  C   UNL     1     -10.561   9.631  67.442  1.00  0.00    -0.333 A  
HETATM   11  C   UNL     1      -9.924   8.885  66.446  1.00  0.00    -0.284 A  
HETATM   12  C   UNL     1      -9.234  10.912  65.343  1.00  0.00    -0.231 A  
HETATM   13  C   UNL     1      -9.262   9.518  65.395  1.00  0.00    -0.306 A  
BRANCH  11  14
HETATM   14  O   UNL     1      -9.910   7.488  66.649  1.00  0.00    -0.214 OA 
BRANCH  14  15
HETATM   15  C   UNL     1      -9.269   6.878  67.732  1.00  0.00    -0.119 C  
HETATM   16  O   UNL     1      -9.605   6.980  68.905  1.00  0.00    -0.141 OA 
BRANCH  15  17
HETATM   17  C   UNL     1      -8.139   6.112  67.260  1.00  0.00    -0.106 A  
HETATM   18  C   UNL     1      -7.163   6.428  66.331  1.00  0.00    -0.073 A  
HETATM   19  C   UNL     1      -6.301   5.309  66.242  1.00  0.00    -0.039 A  
HETATM   20  C   UNL     1      -6.794   4.378  67.125  1.00  0.00    -0.052 A  
HETATM   21  O   UNL     1      -7.904   4.852  67.748  1.00  0.00    -0.092 OA 
ENDBRANCH  15  17
ENDBRANCH  14  15
ENDBRANCH  11  14
ENDBRANCH   2   8
TORSDOF 4
ENDMDL
MODEL      222
REMARK 921   NORMALIZED FREE ENERGY PREDICTED BY IDOCK:   -2.90 KCAL/MOL
REMARK 922        TOTAL FREE ENERGY PREDICTED BY IDOCK:   -4.09 KCAL/MOL
REMARK 923 INTER-LIGAND FREE ENERGY PREDICTED BY IDOCK:   -3.71 KCAL/MOL
REMARK 924 INTRA-LIGAND FREE ENERGY PREDICTED BY IDOCK:   -0.38 KCAL/MOL
REMARK 927      BINDING AFFINITY PREDICTED BY RF-SCORE:    0.00 PKD
ROOT
HETATM    1  C   UNL     1     -10.532   7.002  73.763  1.00  0.00    -0.354 C  
HETATM    2  N   UNL     1      -9.995   6.127  72.729  1.00  0.00    -0.171 N  
HETATM    3 CL   UNL     1      -7.524   3.716  72.087  1.00  0.00    -0.055 Cl 
HETATM    4  C   UNL     1      -9.860   4.751  72.959  1.00  0.00    -0.148 C  
HETATM    5 CL   UNL     1     -10.052   2.288  71.801  1.00  0.00    -0.208 Cl 
HETATM    6  C   UNL     1      -9.275   3.891  71.824  1.00  0.00    -0.125 C  
HETATM    7  O   UNL     1     -10.191   4.258  74.043  1.00  0.00    -0.156 OA 
ENDROOT
BRANCH   2   8
HETATM    8  C   UNL     1      -9.625   6.739  71.515  1.00  0.00    -0.163 A  
HETATM    9  C   UNL     1      -8.323   7.219  71.352  1.00  0.00    -0.110 A  
HETATM   10  C   UNL     1      -8.008   7.975  70.223  1.00  0.00    -0.104 A  
HETATM   11  C   UNL     1      -8.988   8.229  69.260  1.00  0.00    -0.147 A  
HETATM   12  C   UNL     1     -10.595   6.968  70.537  1.00  0.00    -0.245 A  
HETATM   13  C   UNL     1     -10.280   7.728  69.410  1.00  0.00    -0.208 A  
BRANCH  11  14
HETATM   14  O   UNL     1      -8.605   9.101  68.218  1.00  0.00    -0.127 OA 
BRANCH  14  15
HETATM   15  C   UNL     1      -9.432  10.114  67.725  1.00  0.00    -0.144 C  
HETATM   16  O   UNL     1     -10.171  10.820  68.401  1.00  0.00    -0.163 OA 
BRANCH  15  17
HETATM   17  C   UNL     1      -9.293  10.202  66.290  1.00  0.00    -0.172 A  
HETATM   18  C   UNL     1      -9.788  11.134  65.394  1.00  0.00    -0.289 A  
HETATM   19  C   UNL     1      -9.358  10.737  64.106  1.00  0.00    -0.286 A  
HETATM   20  C   UNL     1      -8.620   9.591  64.288  1.00  0.00    -0.198 A  
HETATM   21  O   UNL     1      -8.572   9.259  65.605  1.00  0.00    -0.137 OA 
ENDBRANCH  15  17
ENDBRANCH  14  15
ENDBRANCH  11  14
ENDBRANCH   2   8
TORSDOF 4
ENDMDL
MODEL      223
REMARK 921   NORMALIZED FREE ENERGY PREDICTED BY IDOCK:   -2.90 KCAL/MOL
REMARK 922        TOTAL FREE ENERGY PREDICTED BY IDOCK:   -4.09 KCAL/MOL
REMARK 923 INTER-LIGAND FREE ENERGY PREDICTED BY IDOCK:   -3.73 KCAL/MOL
REMARK 924 INTRA-LIGAND FREE ENERGY PREDICTED BY IDOCK:   -0.36 KCAL/MOL
REMARK 927      BINDING AFFINITY PREDICTED BY RF-SCORE:    0.00 PKD
ROOT
HETATM    1  C   UNL     1     -11.413  11.479  69.431  1.00  0.00    -0.309 C  
HETATM    2  N   UNL     1     -10.049  11.294  68.955  1.00  0.00    -0.196 N  
HETATM    3 CL   UNL     1      -8.009  11.506  66.104  1.00  0.00     0.010 Cl 
HETATM    4  C   UNL     1      -9.383  12.326  68.280  1.00  0.00    -0.199 C  
HETATM    5 CL   UNL     1      -6.961  13.531  67.925  1.00  0.00    -0.125 Cl 
HETATM    6  C   UNL     1      -7.947  12.052  67.797  1.00  0.00    -0.147 C  
HETATM    7  O   UNL     1      -9.942  13.409  68.075  1.00  0.00    -0.225 OA 
ENDROOT
BRANCH   2   8
HETATM    8  C   UNL     1      -9.459  10.039  69.206  1.00  0.00    -0.217 A  
HETATM    9  C   UNL     1      -9.336   9.112  68.168  1.00  0.00    -0.147 A  
HETATM   10  C   UNL     1      -8.913   7.815  68.454  1.00  0.00    -0.132 A  
HETATM   11  C   UNL     1      -8.600   7.459  69.769  1.00  0.00    -0.140 A  
HETATM   12  C   UNL     1      -9.115   9.691  70.515  1.00  0.00    -0.198 A  
HETATM   13  C   UNL     1      -8.697   8.391  70.801  1.00  0.00    -0.167 A  
BRANCH  11  14
HETATM   14  O   UNL     1      -8.299   6.095  69.974  1.00  0.00    -0.121 OA 
BRANCH  14  15
HETATM   15  C   UNL     1      -9.278   5.106  70.106  1.00  0.00    -0.142 C  
HETATM   16  O   UNL     1      -9.356   4.089  69.429  1.00  0.00    -0.141 OA 
BRANCH  15  17
HETATM   17  C   UNL     1     -10.196   5.467  71.161  1.00  0.00    -0.222 A  
HETATM   18  C   UNL     1     -11.470   6.005  71.099  1.00  0.00    -0.246 A  
HETATM   19  C   UNL     1     -11.913   6.170  72.432  1.00  0.00    -0.240 A  
HETATM   20  C   UNL     1     -10.890   5.718  73.232  1.00  0.00    -0.272 A  
HETATM   21  O   UNL     1      -9.847   5.289  72.475  1.00  0.00    -0.158 OA 
ENDBRANCH  15  17
ENDBRANCH  14  15
ENDBRANCH  11  14
ENDBRANCH   2   8
TORSDOF 4
ENDMDL
MODEL      224
REMARK 921   NORMALIZED FREE ENERGY PREDICTED BY IDOCK:   -2.88 KCAL/MOL
REMARK 922        TOTAL FREE ENERGY PREDICTED BY IDOCK:   -4.06 KCAL/MOL
REMARK 923 INTER-LIGAND FREE ENERGY PREDICTED BY IDOCK:   -3.42 KCAL/MOL
REMARK 924 INTRA-LIGAND FREE ENERGY PREDICTED BY IDOCK:   -0.64 KCAL/MOL
REMARK 927      BINDING AFFINITY PREDICTED BY RF-SCORE:    0.00 PKD
ROOT
HETATM    1  C   UNL     1     -10.212   8.985  71.454  1.00  0.00    -0.329 C  
HETATM    2  N   UNL     1      -9.994   7.545  71.458  1.00  0.00    -0.177 N  
HETATM    3 CL   UNL     1      -8.482   4.931  73.251  1.00  0.00    -0.104 Cl 
HETATM    4  C   UNL     1     -10.337   6.774  72.577  1.00  0.00    -0.198 C  
HETATM    5 CL   UNL     1     -11.342   4.367  73.379  1.00  0.00    -0.389 Cl 
HETATM    6  C   UNL     1     -10.066   5.259  72.512  1.00  0.00    -0.181 C  
HETATM    7  O   UNL     1     -10.827   7.303  73.581  1.00  0.00    -0.356 OA 
ENDROOT
BRANCH   2   8
HETATM    8  C   UNL     1      -9.425   6.991  70.294  1.00  0.00    -0.165 A  
HETATM    9  C   UNL     1      -8.038   7.009  70.126  1.00  0.00    -0.130 A  
HETATM   10  C   UNL     1      -7.490   6.620  68.904  1.00  0.00    -0.096 A  
HETATM   11  C   UNL     1      -8.329   6.201  67.868  1.00  0.00    -0.117 A  
HETATM   12  C   UNL     1     -10.260   6.542  69.267  1.00  0.00    -0.216 A  
HETATM   13  C   UNL     1      -9.711   6.157  68.043  1.00  0.00    -0.122 A  
BRANCH  11  14
HETATM   14  O   UNL     1      -7.690   5.943  66.635  1.00  0.00    -0.097 OA 
BRANCH  14  15
HETATM   15  C   UNL     1      -8.215   6.344  65.403  1.00  0.00    -0.142 C  
HETATM   16  O   UNL     1      -8.908   5.652  64.668  1.00  0.00    -0.048 OA 
BRANCH  15  17
HETATM   17  C   UNL     1      -7.811   7.701  65.119  1.00  0.00    -0.124 A  
HETATM   18  C   UNL     1      -6.657   8.385  65.461  1.00  0.00    -0.055 A  
HETATM   19  C   UNL     1      -6.783   9.693  64.936  1.00  0.00    -0.104 A  
HETATM   20  C   UNL     1      -8.000   9.732  64.298  1.00  0.00    -0.143 A  
HETATM   21  O   UNL     1      -8.630   8.533  64.401  1.00  0.00    -0.127 OA 
ENDBRANCH  15  17
ENDBRANCH  14  15
ENDBRANCH  11  14
ENDBRANCH   2   8
TORSDOF 4
ENDMDL
MODEL      225
REMARK 921   NORMALIZED FREE ENERGY PREDICTED BY IDOCK:   -2.85 KCAL/MOL
REMARK 922        TOTAL FREE ENERGY PREDICTED BY IDOCK:   -4.02 KCAL/MOL
REMARK 923 INTER-LIGAND FREE ENERGY PREDICTED BY IDOCK:   -3.62 KCAL/MOL
REMARK 924 INTRA-LIGAND FREE ENERGY PREDICTED BY IDOCK:   -0.41 KCAL/MOL
REMARK 927      BINDING AFFINITY PREDICTED BY RF-SCORE:    0.00 PKD
ROOT
HETATM    1  C   UNL     1     -12.411  11.185  69.516  1.00  0.00    -0.194 C  
HETATM    2  N   UNL     1     -11.260  10.522  68.918  1.00  0.00    -0.258 N  
HETATM    3 CL   UNL     1     -10.220   8.647  66.137  1.00  0.00    -0.157 Cl 
HETATM    4  C   UNL     1     -10.868  10.818  67.605  1.00  0.00    -0.279 C  
HETATM    5 CL   UNL     1      -8.715  11.140  65.960  1.00  0.00    -0.189 Cl 
HETATM    6  C   UNL     1      -9.648  10.071  67.037  1.00  0.00    -0.172 C  
HETATM    7  O   UNL     1     -11.495  11.644  66.932  1.00  0.00    -0.426 OA 
ENDROOT
BRANCH   2   8
HETATM    8  C   UNL     1     -10.584   9.585  69.724  1.00  0.00    -0.236 A  
HETATM    9  C   UNL     1     -11.245   8.426  70.140  1.00  0.00    -0.136 A  
HETATM   10  C   UNL     1     -10.638   7.588  71.074  1.00  0.00    -0.230 A  
HETATM   11  C   UNL     1      -9.370   7.903  71.570  1.00  0.00    -0.143 A  
HETATM   12  C   UNL     1      -9.303   9.881  70.198  1.00  0.00    -0.200 A  
HETATM   13  C   UNL     1      -8.698   9.044  71.136  1.00  0.00    -0.266 A  
BRANCH  11  14
HETATM   14  O   UNL     1      -8.893   7.060  72.597  1.00  0.00    -0.123 OA 
BRANCH  14  15
HETATM   15  C   UNL     1      -9.128   5.682  72.627  1.00  0.00    -0.131 C  
HETATM   16  O   UNL     1      -9.951   5.117  73.337  1.00  0.00    -0.157 OA 
BRANCH  15  17
HETATM   17  C   UNL     1      -8.246   5.017  71.697  1.00  0.00    -0.115 A  
HETATM   18  C   UNL     1      -6.864   4.982  71.637  1.00  0.00    -0.048 A  
HETATM   19  C   UNL     1      -6.520   4.189  70.517  1.00  0.00    -0.031 A  
HETATM   20  C   UNL     1      -7.708   3.779  69.961  1.00  0.00    -0.048 A  
HETATM   21  O   UNL     1      -8.759   4.272  70.667  1.00  0.00    -0.080 OA 
ENDBRANCH  15  17
ENDBRANCH  14  15
ENDBRANCH  11  14
ENDBRANCH   2   8
TORSDOF 4
ENDMDL
MODEL      226
REMARK 921   NORMALIZED FREE ENERGY PREDICTED BY IDOCK:   -2.82 KCAL/MOL
REMARK 922        TOTAL FREE ENERGY PREDICTED BY IDOCK:   -3.99 KCAL/MOL
REMARK 923 INTER-LIGAND FREE ENERGY PREDICTED BY IDOCK:   -4.88 KCAL/MOL
REMARK 924 INTRA-LIGAND FREE ENERGY PREDICTED BY IDOCK:    0.88 KCAL/MOL
REMARK 927      BINDING AFFINITY PREDICTED BY RF-SCORE:    0.00 PKD
ROOT
HETATM    1  C   UNL     1     -10.176  15.951  69.550  1.00  0.00    -0.279 C  
HETATM    2  N   UNL     1     -11.196  15.243  70.312  1.00  0.00    -0.275 N  
HETATM    3 CL   UNL     1     -12.170  14.358  73.568  1.00  0.00    -0.164 Cl 
HETATM    4  C   UNL     1     -11.876  15.882  71.359  1.00  0.00    -0.463 C  
HETATM    5 CL   UNL     1     -14.292  16.115  72.607  1.00  0.00    -0.117 Cl 
HETATM    6  C   UNL     1     -12.933  15.067  72.126  1.00  0.00    -0.342 C  
HETATM    7  O   UNL     1     -11.620  17.055  71.654  1.00  0.00     0.144 OA 
ENDROOT
BRANCH   2   8
HETATM    8  C   UNL     1     -11.445  13.907  69.942  1.00  0.00    -0.183 A  
HETATM    9  C   UNL     1     -12.254  13.105  70.751  1.00  0.00    -0.375 A  
HETATM   10  C   UNL     1     -12.359  11.742  70.478  1.00  0.00    -0.387 A  
HETATM   11  C   UNL     1     -11.672  11.195  69.391  1.00  0.00    -0.332 A  
HETATM   12  C   UNL     1     -10.784  13.365  68.837  1.00  0.00    -0.219 A  
HETATM   13  C   UNL     1     -10.886  12.000  68.567  1.00  0.00    -0.267 A  
BRANCH  11  14
HETATM   14  O   UNL     1     -11.745   9.790  69.269  1.00  0.00     0.061 OA 
BRANCH  14  15
HETATM   15  C   UNL     1     -10.621   8.960  69.299  1.00  0.00    -0.207 C  
HETATM   16  O   UNL     1     -10.062   8.485  68.318  1.00  0.00    -0.179 OA 
BRANCH  15  17
HETATM   17  C   UNL     1     -10.218   8.735  70.668  1.00  0.00    -0.202 A  
HETATM   18  C   UNL     1      -8.958   8.709  71.241  1.00  0.00    -0.268 A  
HETATM   19  C   UNL     1      -9.138   8.437  72.618  1.00  0.00    -0.311 A  
HETATM   20  C   UNL     1     -10.494   8.318  72.809  1.00  0.00    -0.258 A  
HETATM   21  O   UNL     1     -11.158   8.498  71.638  1.00  0.00    -0.253 OA 
ENDBRANCH  15  17
ENDBRANCH  14  15
ENDBRANCH  11  14
ENDBRANCH   2   8
TORSDOF 4
ENDMDL
MODEL      227
REMARK 921   NORMALIZED FREE ENERGY PREDICTED BY IDOCK:   -2.79 KCAL/MOL
REMARK 922        TOTAL FREE ENERGY PREDICTED BY IDOCK:   -3.96 KCAL/MOL
REMARK 923 INTER-LIGAND FREE ENERGY PREDICTED BY IDOCK:   -3.95 KCAL/MOL
REMARK 924 INTRA-LIGAND FREE ENERGY PREDICTED BY IDOCK:   -0.01 KCAL/MOL
REMARK 927      BINDING AFFINITY PREDICTED BY RF-SCORE:    0.00 PKD
ROOT
HETATM    1  C   UNL     1      -5.409   6.216  67.414  1.00  0.00    -0.005 C  
HETATM    2  N   UNL     1      -6.760   5.919  66.958  1.00  0.00    -0.059 N  
HETATM    3 CL   UNL     1      -8.586   4.264  64.456  1.00  0.00    -0.120 Cl 
HETATM    4  C   UNL     1      -7.159   4.596  66.723  1.00  0.00    -0.075 C  
HETATM    5 CL   UNL     1      -9.245   2.848  66.920  1.00  0.00    -0.182 Cl 
HETATM    6  C   UNL     1      -8.599   4.359  66.232  1.00  0.00    -0.112 C  
HETATM    7  O   UNL     1      -6.370   3.660  66.897  1.00  0.00    -0.034 OA 
ENDROOT
BRANCH   2   8
HETATM    8  C   UNL     1      -7.618   7.020  66.768  1.00  0.00    -0.090 A  
HETATM    9  C   UNL     1      -7.543   7.759  65.584  1.00  0.00    -0.085 A  
HETATM   10  C   UNL     1      -8.266   8.946  65.470  1.00  0.00    -0.130 A  
HETATM   11  C   UNL     1      -9.071   9.374  66.528  1.00  0.00    -0.153 A  
HETATM   12  C   UNL     1      -8.448   7.434  67.813  1.00  0.00    -0.118 A  
HETATM   13  C   UNL     1      -9.168   8.624  67.699  1.00  0.00    -0.148 A  
BRANCH  11  14
HETATM   14  O   UNL     1      -9.667  10.643  66.363  1.00  0.00    -0.184 OA 
BRANCH  14  15
HETATM   15  C   UNL     1     -10.902  10.987  66.922  1.00  0.00    -0.269 C  
HETATM   16  O   UNL     1     -11.521  10.321  67.742  1.00  0.00    -0.351 OA 
BRANCH  15  17
HETATM   17  C   UNL     1     -11.348  12.249  66.378  1.00  0.00    -0.354 A  
HETATM   18  C   UNL     1     -12.028  13.296  66.977  1.00  0.00    -0.419 A  
HETATM   19  C   UNL     1     -12.221  14.284  65.983  1.00  0.00    -0.422 A  
HETATM   20  C   UNL     1     -11.644  13.789  64.837  1.00  0.00    -0.351 A  
HETATM   21  O   UNL     1     -11.111  12.560  65.064  1.00  0.00    -0.285 OA 
ENDBRANCH  15  17
ENDBRANCH  14  15
ENDBRANCH  11  14
ENDBRANCH   2   8
TORSDOF 4
ENDMDL
MODEL      228
REMARK 921   NORMALIZED FREE ENERGY PREDICTED BY IDOCK:   -2.75 KCAL/MOL
REMARK 922        TOTAL FREE ENERGY PREDICTED BY IDOCK:   -3.90 KCAL/MOL
REMARK 923 INTER-LIGAND FREE ENERGY PREDICTED BY IDOCK:   -3.48 KCAL/MOL
REMARK 924 INTRA-LIGAND FREE ENERGY PREDICTED BY IDOCK:   -0.42 KCAL/MOL
REMARK 927      BINDING AFFINITY PREDICTED BY RF-SCORE:    0.00 PKD
ROOT
HETATM    1  C   UNL     1      -8.198   3.157  66.298  1.00  0.00    -0.090 C  
HETATM    2  N   UNL     1      -7.906   4.584  66.293  1.00  0.00    -0.098 N  
HETATM    3 CL   UNL     1      -5.500   6.962  65.352  1.00  0.00    -0.026 Cl 
HETATM    4  C   UNL     1      -7.562   5.238  65.102  1.00  0.00    -0.082 C  
HETATM    5 CL   UNL     1      -7.830   7.565  63.702  1.00  0.00    -0.124 Cl 
HETATM    6  C   UNL     1      -7.257   6.745  65.177  1.00  0.00    -0.074 C  
HETATM    7  O   UNL     1      -7.498   4.614  64.036  1.00  0.00    -0.058 OA 
ENDROOT
BRANCH   2   8
HETATM    8  C   UNL     1      -7.985   5.247  67.534  1.00  0.00    -0.100 A  
HETATM    9  C   UNL     1      -9.194   5.822  67.934  1.00  0.00    -0.108 A  
HETATM   10  C   UNL     1      -9.227   6.623  69.075  1.00  0.00    -0.131 A  
HETATM   11  C   UNL     1      -8.060   6.829  69.815  1.00  0.00    -0.126 A  
HETATM   12  C   UNL     1      -6.825   5.429  68.292  1.00  0.00    -0.060 A  
HETATM   13  C   UNL     1      -6.859   6.235  69.431  1.00  0.00    -0.065 A  
BRANCH  11  14
HETATM   14  O   UNL     1      -8.169   7.749  70.880  1.00  0.00    -0.103 OA 
BRANCH  14  15
HETATM   15  C   UNL     1      -8.479   9.100  70.696  1.00  0.00    -0.209 C  
HETATM   16  O   UNL     1      -7.686   9.971  70.360  1.00  0.00    -0.227 OA 
BRANCH  15  17
HETATM   17  C   UNL     1      -9.880   9.320  70.969  1.00  0.00    -0.285 A  
HETATM   18  C   UNL     1     -10.731   8.693  71.863  1.00  0.00    -0.414 A  
HETATM   19  C   UNL     1     -12.003   9.295  71.712  1.00  0.00    -0.455 A  
HETATM   20  C   UNL     1     -11.855  10.259  70.743  1.00  0.00    -0.365 A  
HETATM   21  O   UNL     1     -10.576  10.285  70.287  1.00  0.00    -0.282 OA 
ENDBRANCH  15  17
ENDBRANCH  14  15
ENDBRANCH  11  14
ENDBRANCH   2   8
TORSDOF 4
ENDMDL
MODEL      229
REMARK 921   NORMALIZED FREE ENERGY PREDICTED BY IDOCK:   -2.74 KCAL/MOL
REMARK 922        TOTAL FREE ENERGY PREDICTED BY IDOCK:   -3.89 KCAL/MOL
REMARK 923 INTER-LIGAND FREE ENERGY PREDICTED BY IDOCK:   -3.76 KCAL/MOL
REMARK 924 INTRA-LIGAND FREE ENERGY PREDICTED BY IDOCK:   -0.12 KCAL/MOL
REMARK 927      BINDING AFFINITY PREDICTED BY RF-SCORE:    0.00 PKD
ROOT
HETATM    1  C   UNL     1      -5.653   5.946  67.610  1.00  0.00    -0.012 C  
HETATM    2  N   UNL     1      -7.032   5.623  67.953  1.00  0.00    -0.064 N  
HETATM    3 CL   UNL     1      -9.779   3.649  67.009  1.00  0.00    -0.182 Cl 
HETATM    4  C   UNL     1      -7.422   4.292  68.160  1.00  0.00    -0.068 C  
HETATM    5 CL   UNL     1      -9.027   2.667  69.652  1.00  0.00    -0.153 Cl 
HETATM    6  C   UNL     1      -8.898   4.027  68.509  1.00  0.00    -0.107 C  
HETATM    7  O   UNL     1      -6.604   3.372  68.051  1.00  0.00    -0.036 OA 
ENDROOT
BRANCH   2   8
HETATM    8  C   UNL     1      -7.926   6.706  68.057  1.00  0.00    -0.110 A  
HETATM    9  C   UNL     1      -8.613   7.147  66.923  1.00  0.00    -0.124 A  
HETATM   10  C   UNL     1      -9.362   8.321  66.988  1.00  0.00    -0.203 A  
HETATM   11  C   UNL     1      -9.432   9.036  68.187  1.00  0.00    -0.142 A  
HETATM   12  C   UNL     1      -8.023   7.405  69.263  1.00  0.00    -0.118 A  
HETATM   13  C   UNL     1      -8.769   8.583  69.326  1.00  0.00    -0.133 A  
BRANCH  11  14
HETATM   14  O   UNL     1     -10.114  10.270  68.119  1.00  0.00    -0.144 OA 
BRANCH  14  15
HETATM   15  C   UNL     1     -10.865  10.789  69.179  1.00  0.00    -0.237 C  
HETATM   16  O   UNL     1     -11.098  10.211  70.233  1.00  0.00    -0.273 OA 
BRANCH  15  17
HETATM   17  C   UNL     1     -11.334  12.112  68.842  1.00  0.00    -0.283 A  
HETATM   18  C   UNL     1     -11.834  13.121  69.647  1.00  0.00    -0.390 A  
HETATM   19  C   UNL     1     -12.153  14.206  68.797  1.00  0.00    -0.326 A  
HETATM   20  C   UNL     1     -11.825  13.803  67.525  1.00  0.00    -0.387 A  
HETATM   21  O   UNL     1     -11.327  12.539  67.539  1.00  0.00    -0.273 OA 
ENDBRANCH  15  17
ENDBRANCH  14  15
ENDBRANCH  11  14
ENDBRANCH   2   8
TORSDOF 4
ENDMDL
MODEL      230
REMARK 921   NORMALIZED FREE ENERGY PREDICTED BY IDOCK:   -2.73 KCAL/MOL
REMARK 922        TOTAL FREE ENERGY PREDICTED BY IDOCK:   -3.88 KCAL/MOL
REMARK 923 INTER-LIGAND FREE ENERGY PREDICTED BY IDOCK:   -3.28 KCAL/MOL
REMARK 924 INTRA-LIGAND FREE ENERGY PREDICTED BY IDOCK:   -0.60 KCAL/MOL
REMARK 927      BINDING AFFINITY PREDICTED BY RF-SCORE:    0.00 PKD
ROOT
HETATM    1  C   UNL     1     -10.783   3.980  64.885  1.00  0.00    -0.086 C  
HETATM    2  N   UNL     1      -9.939   4.226  66.047  1.00  0.00    -0.225 N  
HETATM    3 CL   UNL     1      -9.320   3.194  69.346  1.00  0.00    -0.229 Cl 
HETATM    4  C   UNL     1      -9.229   3.177  66.647  1.00  0.00    -0.146 C  
HETATM    5 CL   UNL     1      -6.888   2.516  67.883  1.00  0.00    -0.043 Cl 
HETATM    6  C   UNL     1      -8.366   3.511  67.878  1.00  0.00    -0.084 C  
HETATM    7  O   UNL     1      -9.310   2.026  66.204  1.00  0.00    -0.019 OA 
ENDROOT
BRANCH   2   8
HETATM    8  C   UNL     1      -9.887   5.552  66.518  1.00  0.00    -0.172 A  
HETATM    9  C   UNL     1      -8.849   6.392  66.107  1.00  0.00    -0.158 A  
HETATM   10  C   UNL     1      -8.701   7.643  66.705  1.00  0.00    -0.150 A  
HETATM   11  C   UNL     1      -9.599   8.051  67.694  1.00  0.00    -0.151 A  
HETATM   12  C   UNL     1     -10.803   5.975  67.485  1.00  0.00    -0.393 A  
HETATM   13  C   UNL     1     -10.651   7.225  68.086  1.00  0.00    -0.228 A  
BRANCH  11  14
HETATM   14  O   UNL     1      -9.295   9.279  68.322  1.00  0.00    -0.134 OA 
BRANCH  14  15
HETATM   15  C   UNL     1      -9.163   9.418  69.707  1.00  0.00    -0.196 C  
HETATM   16  O   UNL     1     -10.070   9.688  70.483  1.00  0.00    -0.264 OA 
BRANCH  15  17
HETATM   17  C   UNL     1      -7.787   9.203  70.088  1.00  0.00    -0.113 A  
HETATM   18  C   UNL     1      -6.999   8.068  70.010  1.00  0.00    -0.048 A  
HETATM   19  C   UNL     1      -5.729   8.410  70.531  1.00  0.00    -0.028 A  
HETATM   20  C   UNL     1      -5.810   9.735  70.892  1.00  0.00    -0.084 A  
HETATM   21  O   UNL     1      -7.049  10.226  70.627  1.00  0.00    -0.322 OA 
ENDBRANCH  15  17
ENDBRANCH  14  15
ENDBRANCH  11  14
ENDBRANCH   2   8
TORSDOF 4
ENDMDL
MODEL      231
REMARK 921   NORMALIZED FREE ENERGY PREDICTED BY IDOCK:   -2.53 KCAL/MOL
REMARK 922        TOTAL FREE ENERGY PREDICTED BY IDOCK:   -3.63 KCAL/MOL
REMARK 923 INTER-LIGAND FREE ENERGY PREDICTED BY IDOCK:   -3.02 KCAL/MOL
REMARK 924 INTRA-LIGAND FREE ENERGY PREDICTED BY IDOCK:   -0.61 KCAL/MOL
REMARK 927      BINDING AFFINITY PREDICTED BY RF-SCORE:    0.00 PKD
ROOT
HETATM    1  C   UNL     1      -7.045   4.226  66.973  1.00  0.00    -0.067 C  
HETATM    2  N   UNL     1      -7.718   5.050  67.968  1.00  0.00    -0.083 N  
HETATM    3 CL   UNL     1     -10.775   5.525  69.629  1.00  0.00    -0.391 Cl 
HETATM    4  C   UNL     1      -8.358   4.461  69.067  1.00  0.00    -0.078 C  
HETATM    5 CL   UNL     1      -8.898   4.753  71.726  1.00  0.00    -0.133 Cl 
HETATM    6  C   UNL     1      -9.056   5.396  70.072  1.00  0.00    -0.130 C  
HETATM    7  O   UNL     1      -8.365   3.233  69.209  1.00  0.00    -0.058 OA 
ENDROOT
BRANCH   2   8
HETATM    8  C   UNL     1      -7.688   6.443  67.757  1.00  0.00    -0.103 A  
HETATM    9  C   UNL     1      -8.517   7.013  66.787  1.00  0.00    -0.118 A  
HETATM   10  C   UNL     1      -8.363   8.359  66.459  1.00  0.00    -0.111 A  
HETATM   11  C   UNL     1      -7.398   9.129  67.114  1.00  0.00    -0.087 A  
HETATM   12  C   UNL     1      -6.745   7.221  68.432  1.00  0.00    -0.054 A  
HETATM   13  C   UNL     1      -6.588   8.567  68.100  1.00  0.00    -0.061 A  
BRANCH  11  14
HETATM   14  O   UNL     1      -7.238  10.445  66.629  1.00  0.00    -0.102 OA 
BRANCH  14  15
HETATM   15  C   UNL     1      -7.608  11.579  67.359  1.00  0.00    -0.135 C  
HETATM   16  O   UNL     1      -6.839  12.323  67.953  1.00  0.00    -0.075 OA 
BRANCH  15  17
HETATM   17  C   UNL     1      -9.043  11.740  67.314  1.00  0.00    -0.171 A  
HETATM   18  C   UNL     1      -9.893  11.933  66.238  1.00  0.00    -0.246 A  
HETATM   19  C   UNL     1     -11.203  12.038  66.762  1.00  0.00    -0.376 A  
HETATM   20  C   UNL     1     -11.081  11.897  68.124  1.00  0.00    -0.242 A  
HETATM   21  O   UNL     1      -9.780  11.715  68.469  1.00  0.00    -0.195 OA 
ENDBRANCH  15  17
ENDBRANCH  14  15
ENDBRANCH  11  14
ENDBRANCH   2   8
TORSDOF 4
ENDMDL
MODEL      232
REMARK 921   NORMALIZED FREE ENERGY PREDICTED BY IDOCK:   -2.49 KCAL/MOL
REMARK 922        TOTAL FREE ENERGY PREDICTED BY IDOCK:   -3.58 KCAL/MOL
REMARK 923 INTER-LIGAND FREE ENERGY PREDICTED BY IDOCK:   -3.81 KCAL/MOL
REMARK 924 INTRA-LIGAND FREE ENERGY PREDICTED BY IDOCK:    0.24 KCAL/MOL
REMARK 927      BINDING AFFINITY PREDICTED BY RF-SCORE:    0.00 PKD
ROOT
HETATM    1  C   UNL     1     -10.869  14.572  69.141  1.00  0.00    -0.263 C  
HETATM    2  N   UNL     1     -10.710  13.679  68.000  1.00  0.00    -0.242 N  
HETATM    3 CL   UNL     1     -12.385  12.330  65.225  1.00  0.00    -0.353 Cl 
HETATM    4  C   UNL     1     -11.006  14.119  66.703  1.00  0.00    -0.303 C  
HETATM    5 CL   UNL     1     -10.247  13.957  64.087  1.00  0.00     0.284 Cl 
HETATM    6  C   UNL     1     -10.823  13.117  65.549  1.00  0.00    -0.283 C  
HETATM    7  O   UNL     1     -11.411  15.271  66.505  1.00  0.00    -0.287 OA 
ENDROOT
BRANCH   2   8
HETATM    8  C   UNL     1     -10.253  12.376  68.279  1.00  0.00    -0.229 A  
HETATM    9  C   UNL     1      -8.999  11.969  67.816  1.00  0.00    -0.176 A  
HETATM   10  C   UNL     1      -8.623  10.632  67.942  1.00  0.00    -0.124 A  
HETATM   11  C   UNL     1      -9.492   9.718  68.544  1.00  0.00    -0.145 A  
HETATM   12  C   UNL     1     -11.108  11.468  68.909  1.00  0.00    -0.288 A  
HETATM   13  C   UNL     1     -10.732  10.129  69.030  1.00  0.00    -0.249 A  
BRANCH  11  14
HETATM   14  O   UNL     1      -9.072   8.371  68.516  1.00  0.00    -0.136 OA 
BRANCH  14  15
HETATM   15  C   UNL     1      -8.413   7.797  67.425  1.00  0.00    -0.119 C  
HETATM   16  O   UNL     1      -7.547   8.342  66.752  1.00  0.00    -0.088 OA 
BRANCH  15  17
HETATM   17  C   UNL     1      -8.913   6.461  67.201  1.00  0.00    -0.109 A  
HETATM   18  C   UNL     1     -10.075   6.027  66.585  1.00  0.00    -0.226 A  
HETATM   19  C   UNL     1     -10.072   4.614  66.649  1.00  0.00    -0.263 A  
HETATM   20  C   UNL     1      -8.908   4.264  67.291  1.00  0.00    -0.113 A  
HETATM   21  O   UNL     1      -8.198   5.372  67.629  1.00  0.00    -0.101 OA 
ENDBRANCH  15  17
ENDBRANCH  14  15
ENDBRANCH  11  14
ENDBRANCH   2   8
TORSDOF 4
ENDMDL
MODEL      233
REMARK 921   NORMALIZED FREE ENERGY PREDICTED BY IDOCK:   -2.44 KCAL/MOL
REMARK 922        TOTAL FREE ENERGY PREDICTED BY IDOCK:   -3.52 KCAL/MOL
REMARK 923 INTER-LIGAND FREE ENERGY PREDICTED BY IDOCK:   -3.02 KCAL/MOL
REMARK 924 INTRA-LIGAND FREE ENERGY PREDICTED BY IDOCK:   -0.50 KCAL/MOL
REMARK 927      BINDING AFFINITY PREDICTED BY RF-SCORE:    0.00 PKD
ROOT
HETATM    1  C   UNL     1     -12.768  14.426  70.395  1.00  0.00    -0.304 C  
HETATM    2  N   UNL     1     -11.737  14.048  69.439  1.00  0.00    -0.293 N  
HETATM    3 CL   UNL     1     -10.781  14.331  66.072  1.00  0.00    -0.298 Cl 
HETATM    4  C   UNL     1     -11.093  15.022  68.663  1.00  0.00    -0.264 C  
HETATM    5 CL   UNL     1      -8.703  15.741  67.558  1.00  0.00    -0.180 Cl 
HETATM    6  C   UNL     1     -10.020  14.546  67.666  1.00  0.00    -0.224 C  
HETATM    7  O   UNL     1     -11.391  16.216  68.776  1.00  0.00    -0.346 OA 
ENDROOT
BRANCH   2   8
HETATM    8  C   UNL     1     -11.440  12.674  69.343  1.00  0.00    -0.266 A  
HETATM    9  C   UNL     1     -10.168  12.216  69.696  1.00  0.00     0.907 A  
HETATM   10  C   UNL     1      -9.821  10.891  69.438  1.00  0.00    -0.055 A  
HETATM   11  C   UNL     1     -10.750  10.031  68.847  1.00  0.00    -0.219 A  
HETATM   12  C   UNL     1     -12.378  11.805  68.781  1.00  0.00     0.213 A  
HETATM   13  C   UNL     1     -12.028  10.480  68.519  1.00  0.00     0.158 A  
BRANCH  11  14
HETATM   14  O   UNL     1     -10.266   8.746  68.518  1.00  0.00    -0.186 OA 
BRANCH  14  15
HETATM   15  C   UNL     1     -10.300   8.225  67.221  1.00  0.00    -0.302 C  
HETATM   16  O   UNL     1     -10.846   7.180  66.889  1.00  0.00    -0.352 OA 
BRANCH  15  17
HETATM   17  C   UNL     1      -9.585   9.102  66.324  1.00  0.00    -0.255 A  
HETATM   18  C   UNL     1      -8.239   9.424  66.264  1.00  0.00    -0.111 A  
HETATM   19  C   UNL     1      -8.082  10.340  65.197  1.00  0.00    -0.151 A  
HETATM   20  C   UNL     1      -9.335  10.520  64.662  1.00  0.00    -0.248 A  
HETATM   21  O   UNL     1     -10.252   9.776  65.334  1.00  0.00    -0.246 OA 
ENDBRANCH  15  17
ENDBRANCH  14  15
ENDBRANCH  11  14
ENDBRANCH   2   8
TORSDOF 4
ENDMDL
MODEL      234
REMARK 921   NORMALIZED FREE ENERGY PREDICTED BY IDOCK:   -2.42 KCAL/MOL
REMARK 922        TOTAL FREE ENERGY PREDICTED BY IDOCK:   -3.50 KCAL/MOL
REMARK 923 INTER-LIGAND FREE ENERGY PREDICTED BY IDOCK:   -4.10 KCAL/MOL
REMARK 924 INTRA-LIGAND FREE ENERGY PREDICTED BY IDOCK:    0.60 KCAL/MOL
REMARK 927      BINDING AFFINITY PREDICTED BY RF-SCORE:    0.00 PKD
ROOT
HETATM    1  C   UNL     1      -5.143  12.049  69.023  1.00  0.00    -0.055 C  
HETATM    2  N   UNL     1      -6.516  11.653  68.743  1.00  0.00    -0.059 N  
HETATM    3 CL   UNL     1      -8.496   9.641  66.653  1.00  0.00    -0.123 Cl 
HETATM    4  C   UNL     1      -6.875  10.298  68.710  1.00  0.00    -0.058 C  
HETATM    5 CL   UNL     1      -8.852   8.519  69.323  1.00  0.00    -0.141 Cl 
HETATM    6  C   UNL     1      -8.343   9.955  68.398  1.00  0.00    -0.107 C  
HETATM    7  O   UNL     1      -6.031   9.418  68.914  1.00  0.00    -0.042 OA 
ENDROOT
BRANCH   2   8
HETATM    8  C   UNL     1      -7.438  12.693  68.510  1.00  0.00    -0.121 A  
HETATM    9  C   UNL     1      -8.328  12.599  67.437  1.00  0.00    -0.184 A  
HETATM   10  C   UNL     1      -9.118  13.700  67.104  1.00  0.00    -0.241 A  
HETATM   11  C   UNL     1      -9.024  14.875  67.853  1.00  0.00    -0.177 A  
HETATM   12  C   UNL     1      -7.369  13.858  69.277  1.00  0.00     0.054 A  
HETATM   13  C   UNL     1      -8.155  14.960  68.940  1.00  0.00    -0.165 A  
BRANCH  11  14
HETATM   14  O   UNL     1      -9.773  15.968  67.365  1.00  0.00    -0.229 OA 
BRANCH  14  15
HETATM   15  C   UNL     1     -10.428  16.880  68.199  1.00  0.00    -0.350 C  
HETATM   16  O   UNL     1     -10.361  18.100  68.107  1.00  0.00    -0.364 OA 
BRANCH  15  17
HETATM   17  C   UNL     1     -11.193  16.168  69.195  1.00  0.00    -0.336 A  
HETATM   18  C   UNL     1     -12.128  15.157  69.057  1.00  0.00    -0.242 A  
HETATM   19  C   UNL     1     -12.575  14.828  70.359  1.00  0.00    -0.399 A  
HETATM   20  C   UNL     1     -11.884  15.650  71.217  1.00  0.00    -0.419 A  
HETATM   21  O   UNL     1     -11.044  16.463  70.526  1.00  0.00    -0.340 OA 
ENDBRANCH  15  17
ENDBRANCH  14  15
ENDBRANCH  11  14
ENDBRANCH   2   8
TORSDOF 4
ENDMDL
MODEL      235
REMARK 921   NORMALIZED FREE ENERGY PREDICTED BY IDOCK:   -2.35 KCAL/MOL
REMARK 922        TOTAL FREE ENERGY PREDICTED BY IDOCK:   -3.41 KCAL/MOL
REMARK 923 INTER-LIGAND FREE ENERGY PREDICTED BY IDOCK:   -3.05 KCAL/MOL
REMARK 924 INTRA-LIGAND FREE ENERGY PREDICTED BY IDOCK:   -0.36 KCAL/MOL
REMARK 927      BINDING AFFINITY PREDICTED BY RF-SCORE:    0.00 PKD
ROOT
HETATM    1  C   UNL     1      -7.814  15.072  67.974  1.00  0.00    -0.125 C  
HETATM    2  N   UNL     1      -8.539  13.906  67.487  1.00  0.00    -0.181 N  
HETATM    3 CL   UNL     1     -11.544  12.120  67.816  1.00  0.00    -0.398 Cl 
HETATM    4  C   UNL     1      -9.837  14.036  66.976  1.00  0.00    -0.260 C  
HETATM    5 CL   UNL     1     -11.566  13.118  65.075  1.00  0.00    -0.340 Cl 
HETATM    6  C   UNL     1     -10.545  12.758  66.490  1.00  0.00    -0.254 C  
HETATM    7  O   UNL     1     -10.390  15.141  66.933  1.00  0.00    -0.263 OA 
ENDROOT
BRANCH   2   8
HETATM    8  C   UNL     1      -7.868  12.670  67.565  1.00  0.00    -0.175 A  
HETATM    9  C   UNL     1      -7.475  12.021  66.392  1.00  0.00     0.361 A  
HETATM   10  C   UNL     1      -6.969  10.724  66.462  1.00  0.00    -0.130 A  
HETATM   11  C   UNL     1      -6.845  10.092  67.702  1.00  0.00    -0.084 A  
HETATM   12  C   UNL     1      -7.714  12.048  68.807  1.00  0.00    -0.054 A  
HETATM   13  C   UNL     1      -7.212  10.747  68.876  1.00  0.00    -0.088 A  
BRANCH  11  14
HETATM   14  O   UNL     1      -6.438   8.741  67.657  1.00  0.00    -0.059 OA 
BRANCH  14  15
HETATM   15  C   UNL     1      -6.804   7.864  66.631  1.00  0.00    -0.071 C  
HETATM   16  O   UNL     1      -6.111   7.575  65.664  1.00  0.00    -0.037 OA 
BRANCH  15  17
HETATM   17  C   UNL     1      -8.132   7.353  66.877  1.00  0.00    -0.120 A  
HETATM   18  C   UNL     1      -9.359   7.994  66.862  1.00  0.00    -0.209 A  
HETATM   19  C   UNL     1     -10.335   7.021  67.183  1.00  0.00    -0.351 A  
HETATM   20  C   UNL     1      -9.652   5.843  67.369  1.00  0.00    -0.113 A  
HETATM   21  O   UNL     1      -8.319   6.030  67.185  1.00  0.00    -0.106 OA 
ENDBRANCH  15  17
ENDBRANCH  14  15
ENDBRANCH  11  14
ENDBRANCH   2   8
TORSDOF 4
ENDMDL
MODEL      236
REMARK 921   NORMALIZED FREE ENERGY PREDICTED BY IDOCK:   -2.34 KCAL/MOL
REMARK 922        TOTAL FREE ENERGY PREDICTED BY IDOCK:   -3.40 KCAL/MOL
REMARK 923 INTER-LIGAND FREE ENERGY PREDICTED BY IDOCK:   -3.07 KCAL/MOL
REMARK 924 INTRA-LIGAND FREE ENERGY PREDICTED BY IDOCK:   -0.33 KCAL/MOL
REMARK 927      BINDING AFFINITY PREDICTED BY RF-SCORE:    0.00 PKD
ROOT
HETATM    1  C   UNL     1     -10.139  15.004  65.071  1.00  0.00    -0.253 C  
HETATM    2  N   UNL     1      -9.730  14.873  66.463  1.00  0.00    -0.261 N  
HETATM    3 CL   UNL     1      -7.168  15.666  68.731  1.00  0.00    -0.125 Cl 
HETATM    4  C   UNL     1      -9.374  16.004  67.211  1.00  0.00    -0.210 C  
HETATM    5 CL   UNL     1      -9.495  17.142  69.689  1.00  0.00     0.339 Cl 
HETATM    6  C   UNL     1      -8.942  15.786  68.673  1.00  0.00    -0.204 C  
HETATM    7  O   UNL     1      -9.399  17.130  66.702  1.00  0.00    -0.241 OA 
ENDROOT
BRANCH   2   8
HETATM    8  C   UNL     1      -9.710  13.568  66.994  1.00  0.00    -0.251 A  
HETATM    9  C   UNL     1      -8.559  12.787  66.868  1.00  0.00    -0.140 A  
HETATM   10  C   UNL     1      -8.598  11.444  67.237  1.00  0.00    -0.146 A  
HETATM   11  C   UNL     1      -9.778  10.896  67.746  1.00  0.00    -0.168 A  
HETATM   12  C   UNL     1     -10.881  13.027  67.532  1.00  0.00    -0.264 A  
HETATM   13  C   UNL     1     -10.920  11.681  67.897  1.00  0.00    -0.277 A  
BRANCH  11  14
HETATM   14  O   UNL     1      -9.752   9.504  67.977  1.00  0.00    -0.143 OA 
BRANCH  14  15
HETATM   15  C   UNL     1      -8.577   8.793  68.239  1.00  0.00    -0.134 C  
HETATM   16  O   UNL     1      -8.121   8.560  69.351  1.00  0.00    -0.108 OA 
BRANCH  15  17
HETATM   17  C   UNL     1      -7.971   8.379  66.995  1.00  0.00    -0.100 A  
HETATM   18  C   UNL     1      -6.639   8.317  66.621  1.00  0.00    -0.056 A  
HETATM   19  C   UNL     1      -6.608   7.849  65.286  1.00  0.00    -0.044 A  
HETATM   20  C   UNL     1      -7.919   7.644  64.924  1.00  0.00    -0.135 A  
HETATM   21  O   UNL     1      -8.752   7.960  65.949  1.00  0.00    -0.149 OA 
ENDBRANCH  15  17
ENDBRANCH  14  15
ENDBRANCH  11  14
ENDBRANCH   2   8
TORSDOF 4
ENDMDL
MODEL      237
REMARK 921   NORMALIZED FREE ENERGY PREDICTED BY IDOCK:   -2.32 KCAL/MOL
REMARK 922        TOTAL FREE ENERGY PREDICTED BY IDOCK:   -3.37 KCAL/MOL
REMARK 923 INTER-LIGAND FREE ENERGY PREDICTED BY IDOCK:   -2.94 KCAL/MOL
REMARK 924 INTRA-LIGAND FREE ENERGY PREDICTED BY IDOCK:   -0.43 KCAL/MOL
REMARK 927      BINDING AFFINITY PREDICTED BY RF-SCORE:    0.00 PKD
ROOT
HETATM    1  C   UNL     1     -10.504   6.941  73.701  1.00  0.00    -0.369 C  
HETATM    2  N   UNL     1     -10.125   6.049  72.615  1.00  0.00    -0.176 N  
HETATM    3 CL   UNL     1      -7.847   3.537  71.699  1.00  0.00    -0.057 Cl 
HETATM    4  C   UNL     1     -10.024   4.667  72.829  1.00  0.00    -0.155 C  
HETATM    5 CL   UNL     1     -10.451   2.219  71.701  1.00  0.00     0.202 Cl 
HETATM    6  C   UNL     1      -9.608   3.788  71.635  1.00  0.00    -0.157 C  
HETATM    7  O   UNL     1     -10.252   4.184  73.944  1.00  0.00    -0.136 OA 
ENDROOT
BRANCH   2   8
HETATM    8  C   UNL     1      -9.868   6.649  71.366  1.00  0.00    -0.179 A  
HETATM    9  C   UNL     1      -8.555   6.966  71.009  1.00  0.00    -0.135 A  
HETATM   10  C   UNL     1      -8.320   7.713  69.855  1.00  0.00    -0.132 A  
HETATM   11  C   UNL     1      -9.394   8.122  69.060  1.00  0.00    -0.147 A  
HETATM   12  C   UNL     1     -10.938   7.031  70.554  1.00  0.00    -0.297 A  
HETATM   13  C   UNL     1     -10.703   7.783  69.402  1.00  0.00    -0.177 A  
BRANCH  11  14
HETATM   14  O   UNL     1      -9.065   8.973  67.983  1.00  0.00    -0.135 OA 
BRANCH  14  15
HETATM   15  C   UNL     1      -9.693  10.201  67.758  1.00  0.00    -0.153 C  
HETATM   16  O   UNL     1     -10.789  10.353  67.234  1.00  0.00    -0.276 OA 
BRANCH  15  17
HETATM   17  C   UNL     1      -8.849  11.274  68.231  1.00  0.00    -0.158 A  
HETATM   18  C   UNL     1      -9.064  12.641  68.261  1.00  0.00    -0.181 A  
HETATM   19  C   UNL     1      -7.905  13.229  68.819  1.00  0.00     0.008 A  
HETATM   20  C   UNL     1      -7.052  12.190  69.106  1.00  0.00    -0.015 A  
HETATM   21  O   UNL     1      -7.612  11.002  68.757  1.00  0.00    -0.110 OA 
ENDBRANCH  15  17
ENDBRANCH  14  15
ENDBRANCH  11  14
ENDBRANCH   2   8
TORSDOF 4
ENDMDL
MODEL      238
REMARK 921   NORMALIZED FREE ENERGY PREDICTED BY IDOCK:   -2.30 KCAL/MOL
REMARK 922        TOTAL FREE ENERGY PREDICTED BY IDOCK:   -3.35 KCAL/MOL
REMARK 923 INTER-LIGAND FREE ENERGY PREDICTED BY IDOCK:   -3.15 KCAL/MOL
REMARK 924 INTRA-LIGAND FREE ENERGY PREDICTED BY IDOCK:   -0.20 KCAL/MOL
REMARK 927      BINDING AFFINITY PREDICTED BY RF-SCORE:    0.00 PKD
ROOT
HETATM    1  C   UNL     1      -9.334  15.262  65.481  1.00  0.00     0.036 C  
HETATM    2  N   UNL     1      -8.999  15.803  66.791  1.00  0.00    -0.237 N  
HETATM    3 CL   UNL     1      -6.674  15.594  69.414  1.00  0.00    -0.167 Cl 
HETATM    4  C   UNL     1      -7.726  16.334  67.040  1.00  0.00    -0.214 C  
HETATM    5 CL   UNL     1      -6.370  18.299  68.362  1.00  0.00    -0.194 Cl 
HETATM    6  C   UNL     1      -7.442  16.879  68.452  1.00  0.00    -0.206 C  
HETATM    7  O   UNL     1      -6.865  16.348  66.153  1.00  0.00     0.035 OA 
ENDROOT
BRANCH   2   8
HETATM    8  C   UNL     1     -10.012  15.757  67.769  1.00  0.00    -0.227 A  
HETATM    9  C   UNL     1     -10.083  14.667  68.640  1.00  0.00    -0.238 A  
HETATM   10  C   UNL     1     -11.182  14.538  69.489  1.00  0.00    -0.300 A  
HETATM   11  C   UNL     1     -12.190  15.506  69.473  1.00  0.00    -0.236 A  
HETATM   12  C   UNL     1     -11.006  16.740  67.778  1.00  0.00    -0.217 A  
HETATM   13  C   UNL     1     -12.107  16.608  68.624  1.00  0.00     0.903 A  
BRANCH  11  14
HETATM   14  O   UNL     1     -13.315  15.224  70.279  1.00  0.00    -0.132 OA 
BRANCH  14  15
HETATM   15  C   UNL     1     -13.254  14.431  71.429  1.00  0.00    -0.348 C  
HETATM   16  O   UNL     1     -13.513  13.235  71.481  1.00  0.00    -0.300 OA 
BRANCH  15  17
HETATM   17  C   UNL     1     -12.844  15.236  72.555  1.00  0.00    -0.374 A  
HETATM   18  C   UNL     1     -13.227  15.184  73.885  1.00  0.00     0.250 A  
HETATM   19  C   UNL     1     -12.524  16.210  74.557  1.00  0.00    -0.626 A  
HETATM   20  C   UNL     1     -11.747  16.827  73.605  1.00  0.00     0.161 A  
HETATM   21  O   UNL     1     -11.931  16.245  72.391  1.00  0.00    -0.516 OA 
ENDBRANCH  15  17
ENDBRANCH  14  15
ENDBRANCH  11  14
ENDBRANCH   2   8
TORSDOF 4
ENDMDL
MODEL      239
REMARK 921   NORMALIZED FREE ENERGY PREDICTED BY IDOCK:   -2.20 KCAL/MOL
REMARK 922        TOTAL FREE ENERGY PREDICTED BY IDOCK:   -3.22 KCAL/MOL
REMARK 923 INTER-LIGAND FREE ENERGY PREDICTED BY IDOCK:   -4.16 KCAL/MOL
REMARK 924 INTRA-LIGAND FREE ENERGY PREDICTED BY IDOCK:    0.94 KCAL/MOL
REMARK 927      BINDING AFFINITY PREDICTED BY RF-SCORE:    0.00 PKD
ROOT
HETATM    1  C   UNL     1      -8.357  13.782  67.228  1.00  0.00    -0.174 C  
HETATM    2  N   UNL     1      -9.206  12.848  66.500  1.00  0.00    -0.218 N  
HETATM    3 CL   UNL     1     -12.546  12.120  65.696  1.00  0.00     0.350 Cl 
HETATM    4  C   UNL     1     -10.128  13.314  65.553  1.00  0.00    -0.263 C  
HETATM    5 CL   UNL     1     -11.288  12.766  63.144  1.00  0.00    -0.244 Cl 
HETATM    6  C   UNL     1     -10.999  12.269  64.830  1.00  0.00    -0.302 C  
HETATM    7  O   UNL     1     -10.239  14.523  65.321  1.00  0.00    -0.367 OA 
ENDROOT
BRANCH   2   8
HETATM    8  C   UNL     1      -9.047  11.482  66.805  1.00  0.00    -0.181 A  
HETATM    9  C   UNL     1      -9.703  10.520  66.032  1.00  0.00    -0.257 A  
HETATM   10  C   UNL     1      -9.685   9.187  66.438  1.00  0.00    -0.330 A  
HETATM   11  C   UNL     1      -9.000   8.822  67.600  1.00  0.00    -0.135 A  
HETATM   12  C   UNL     1      -8.336  11.111  67.949  1.00  0.00    -0.129 A  
HETATM   13  C   UNL     1      -8.323   9.776  68.357  1.00  0.00    -0.110 A  
BRANCH  11  14
HETATM   14  O   UNL     1      -9.141   7.472  67.990  1.00  0.00    -0.132 OA 
BRANCH  14  15
HETATM   15  C   UNL     1     -10.382   6.857  68.183  1.00  0.00    -0.190 C  
HETATM   16  O   UNL     1     -11.119   6.451  67.294  1.00  0.00    -0.368 OA 
BRANCH  15  17
HETATM   17  C   UNL     1     -10.671   6.777  69.596  1.00  0.00    -0.251 A  
HETATM   18  C   UNL     1     -10.514   7.717  70.600  1.00  0.00    -0.217 A  
HETATM   19  C   UNL     1     -10.947   7.110  71.803  1.00  0.00    -0.258 A  
HETATM   20  C   UNL     1     -11.350   5.840  71.465  1.00  0.00    -0.125 A  
HETATM   21  O   UNL     1     -11.190   5.627  70.133  1.00  0.00    -0.258 OA 
ENDBRANCH  15  17
ENDBRANCH  14  15
ENDBRANCH  11  14
ENDBRANCH   2   8
TORSDOF 4
ENDMDL
MODEL      240
REMARK 921   NORMALIZED FREE ENERGY PREDICTED BY IDOCK:   -2.19 KCAL/MOL
REMARK 922        TOTAL FREE ENERGY PREDICTED BY IDOCK:   -3.21 KCAL/MOL
REMARK 923 INTER-LIGAND FREE ENERGY PREDICTED BY IDOCK:   -2.80 KCAL/MOL
REMARK 924 INTRA-LIGAND FREE ENERGY PREDICTED BY IDOCK:   -0.41 KCAL/MOL
REMARK 927      BINDING AFFINITY PREDICTED BY RF-SCORE:    0.00 PKD
ROOT
HETATM    1  C   UNL     1      -9.598   8.034  65.957  1.00  0.00    -0.002 C  
HETATM    2  N   UNL     1      -9.154   6.694  66.318  1.00  0.00    -0.156 N  
HETATM    3 CL   UNL     1      -9.627   3.286  65.613  1.00  0.00    -0.095 Cl 
HETATM    4  C   UNL     1      -8.696   5.806  65.335  1.00  0.00    -0.119 C  
HETATM    5 CL   UNL     1      -6.878   3.841  64.807  1.00  0.00    -0.048 Cl 
HETATM    6  C   UNL     1      -8.253   4.403  65.791  1.00  0.00    -0.109 C  
HETATM    7  O   UNL     1      -8.664   6.143  64.146  1.00  0.00     0.160 OA 
ENDROOT
BRANCH   2   8
HETATM    8  C   UNL     1      -9.217   6.356  67.684  1.00  0.00    -0.116 A  
HETATM    9  C   UNL     1     -10.439   5.977  68.247  1.00  0.00    -0.289 A  
HETATM   10  C   UNL     1     -10.535   5.811  69.628  1.00  0.00    -0.363 A  
HETATM   11  C   UNL     1      -9.410   6.007  70.432  1.00  0.00    -0.160 A  
HETATM   12  C   UNL     1      -8.086   6.521  68.486  1.00  0.00    -0.114 A  
HETATM   13  C   UNL     1      -8.184   6.359  69.869  1.00  0.00    -0.126 A  
BRANCH  11  14
HETATM   14  O   UNL     1      -9.637   5.934  71.824  1.00  0.00    -0.152 OA 
BRANCH  14  15
HETATM   15  C   UNL     1      -9.678   7.059  72.653  1.00  0.00    -0.150 C  
HETATM   16  O   UNL     1     -10.649   7.789  72.810  1.00  0.00    -0.281 OA 
BRANCH  15  17
HETATM   17  C   UNL     1      -8.398   7.238  73.295  1.00  0.00    -0.119 A  
HETATM   18  C   UNL     1      -7.935   8.259  74.108  1.00  0.00    -0.282 A  
HETATM   19  C   UNL     1      -6.601   7.936  74.455  1.00  0.00    -0.122 A  
HETATM   20  C   UNL     1      -6.328   6.737  73.841  1.00  0.00    -0.064 A  
HETATM   21  O   UNL     1      -7.406   6.304  73.139  1.00  0.00    -0.090 OA 
ENDBRANCH  15  17
ENDBRANCH  14  15
ENDBRANCH  11  14
ENDBRANCH   2   8
TORSDOF 4
ENDMDL
MODEL      241
REMARK 921   NORMALIZED FREE ENERGY PREDICTED BY IDOCK:   -2.17 KCAL/MOL
REMARK 922        TOTAL FREE ENERGY PREDICTED BY IDOCK:   -3.19 KCAL/MOL
REMARK 923 INTER-LIGAND FREE ENERGY PREDICTED BY IDOCK:   -2.64 KCAL/MOL
REMARK 924 INTRA-LIGAND FREE ENERGY PREDICTED BY IDOCK:   -0.55 KCAL/MOL
REMARK 927      BINDING AFFINITY PREDICTED BY RF-SCORE:    0.00 PKD
ROOT
HETATM    1  C   UNL     1      -6.343  10.250  63.029  1.00  0.00    -0.138 C  
HETATM    2  N   UNL     1      -7.593  10.104  63.763  1.00  0.00    -0.147 N  
HETATM    3 CL   UNL     1      -9.916  11.841  65.742  1.00  0.00    -0.258 Cl 
HETATM    4  C   UNL     1      -8.672  10.963  63.512  1.00  0.00    -0.046 C  
HETATM    5 CL   UNL     1     -11.391  11.101  63.336  1.00  0.00    -0.053 Cl 
HETATM    6  C   UNL     1      -9.957  10.754  64.334  1.00  0.00    -0.338 C  
HETATM    7  O   UNL     1      -8.580  11.860  62.667  1.00  0.00     0.030 OA 
ENDROOT
BRANCH   2   8
HETATM    8  C   UNL     1      -7.645   9.071  64.720  1.00  0.00    -0.105 A  
HETATM    9  C   UNL     1      -7.201   9.313  66.023  1.00  0.00    -0.091 A  
HETATM   10  C   UNL     1      -7.091   8.250  66.918  1.00  0.00    -0.078 A  
HETATM   11  C   UNL     1      -7.441   6.959  66.512  1.00  0.00    -0.074 A  
HETATM   12  C   UNL     1      -8.024   7.786  64.326  1.00  0.00    -0.120 A  
HETATM   13  C   UNL     1      -7.909   6.721  65.221  1.00  0.00    -0.121 A  
BRANCH  11  14
HETATM   14  O   UNL     1      -7.181   5.936  67.449  1.00  0.00    -0.073 OA 
BRANCH  14  15
HETATM   15  C   UNL     1      -7.102   6.162  68.827  1.00  0.00    -0.082 C  
HETATM   16  O   UNL     1      -6.067   6.319  69.462  1.00  0.00    -0.027 OA 
BRANCH  15  17
HETATM   17  C   UNL     1      -8.430   6.174  69.395  1.00  0.00    -0.120 A  
HETATM   18  C   UNL     1      -9.056   7.114  70.196  1.00  0.00    -0.152 A  
HETATM   19  C   UNL     1     -10.353   6.620  70.474  1.00  0.00    -0.231 A  
HETATM   20  C   UNL     1     -10.447   5.412  69.824  1.00  0.00    -0.307 A  
HETATM   21  O   UNL     1      -9.292   5.133  69.166  1.00  0.00    -0.111 OA 
ENDBRANCH  15  17
ENDBRANCH  14  15
ENDBRANCH  11  14
ENDBRANCH   2   8
TORSDOF 4
ENDMDL
MODEL      242
REMARK 921   NORMALIZED FREE ENERGY PREDICTED BY IDOCK:   -2.15 KCAL/MOL
REMARK 922        TOTAL FREE ENERGY PREDICTED BY IDOCK:   -3.16 KCAL/MOL
REMARK 923 INTER-LIGAND FREE ENERGY PREDICTED BY IDOCK:   -2.86 KCAL/MOL
REMARK 924 INTRA-LIGAND FREE ENERGY PREDICTED BY IDOCK:   -0.30 KCAL/MOL
REMARK 927      BINDING AFFINITY PREDICTED BY RF-SCORE:    0.00 PKD
ROOT
HETATM    1  C   UNL     1      -7.377   9.586  65.131  1.00  0.00    -0.109 C  
HETATM    2  N   UNL     1      -8.213   9.478  66.319  1.00  0.00    -0.114 N  
HETATM    3 CL   UNL     1      -8.840  10.917  69.460  1.00  0.00     0.106 Cl 
HETATM    4  C   UNL     1      -8.938  10.585  66.782  1.00  0.00    -0.137 C  
HETATM    5 CL   UNL     1     -11.287  11.363  67.934  1.00  0.00    -0.352 Cl 
HETATM    6  C   UNL     1      -9.792  10.399  68.050  1.00  0.00    -0.150 C  
HETATM    7  O   UNL     1      -8.877  11.670  66.194  1.00  0.00    -0.196 OA 
ENDROOT
BRANCH   2   8
HETATM    8  C   UNL     1      -8.242   8.223  66.958  1.00  0.00    -0.104 A  
HETATM    9  C   UNL     1      -9.069   7.213  66.459  1.00  0.00    -0.182 A  
HETATM   10  C   UNL     1      -9.228   6.035  67.189  1.00  0.00    -0.117 A  
HETATM   11  C   UNL     1      -8.548   5.869  68.398  1.00  0.00    -0.113 A  
HETATM   12  C   UNL     1      -7.539   8.042  68.151  1.00  0.00    -0.109 A  
HETATM   13  C   UNL     1      -7.703   6.865  68.883  1.00  0.00    -0.110 A  
BRANCH  11  14
HETATM   14  O   UNL     1      -8.867   4.697  69.119  1.00  0.00    -0.089 OA 
BRANCH  14  15
HETATM   15  C   UNL     1      -9.767   4.678  70.189  1.00  0.00    -0.215 C  
HETATM   16  O   UNL     1     -10.658   5.495  70.381  1.00  0.00    -0.276 OA 
BRANCH  15  17
HETATM   17  C   UNL     1      -9.484   3.549  71.043  1.00  0.00    -0.156 A  
HETATM   18  C   UNL     1      -9.596   3.410  72.416  1.00  0.00    -0.196 A  
HETATM   19  C   UNL     1      -9.177   2.096  72.732  1.00  0.00    -0.106 A  
HETATM   20  C   UNL     1      -8.841   1.505  71.537  1.00  0.00    -0.059 A  
HETATM   21  O   UNL     1      -9.023   2.373  70.509  1.00  0.00    -0.074 OA 
ENDBRANCH  15  17
ENDBRANCH  14  15
ENDBRANCH  11  14
ENDBRANCH   2   8
TORSDOF 4
ENDMDL
MODEL      243
REMARK 921   NORMALIZED FREE ENERGY PREDICTED BY IDOCK:   -2.03 KCAL/MOL
REMARK 922        TOTAL FREE ENERGY PREDICTED BY IDOCK:   -3.01 KCAL/MOL
REMARK 923 INTER-LIGAND FREE ENERGY PREDICTED BY IDOCK:   -2.56 KCAL/MOL
REMARK 924 INTRA-LIGAND FREE ENERGY PREDICTED BY IDOCK:   -0.45 KCAL/MOL
REMARK 927      BINDING AFFINITY PREDICTED BY RF-SCORE:    0.00 PKD
ROOT
HETATM    1  C   UNL     1      -6.277   9.831  68.219  1.00  0.00    -0.051 C  
HETATM    2  N   UNL     1      -6.435   9.470  66.816  1.00  0.00    -0.066 N  
HETATM    3 CL   UNL     1      -7.998  10.428  63.821  1.00  0.00    -0.128 Cl 
HETATM    4  C   UNL     1      -6.166  10.403  65.805  1.00  0.00    -0.123 C  
HETATM    5 CL   UNL     1      -5.141  10.708  63.295  1.00  0.00    -0.162 Cl 
HETATM    6  C   UNL     1      -6.365   9.953  64.346  1.00  0.00    -0.124 C  
HETATM    7  O   UNL     1      -5.795  11.548  66.087  1.00  0.00    -0.163 OA 
ENDROOT
BRANCH   2   8
HETATM    8  C   UNL     1      -6.867   8.157  66.549  1.00  0.00    -0.067 A  
HETATM    9  C   UNL     1      -5.927   7.131  66.422  1.00  0.00    -0.035 A  
HETATM   10  C   UNL     1      -6.340   5.872  65.988  1.00  0.00    -0.042 A  
HETATM   11  C   UNL     1      -7.688   5.642  65.702  1.00  0.00    -0.089 A  
HETATM   12  C   UNL     1      -8.220   7.917  66.292  1.00  0.00    -0.117 A  
HETATM   13  C   UNL     1      -8.631   6.658  65.853  1.00  0.00    -0.153 A  
BRANCH  11  14
HETATM   14  O   UNL     1      -7.987   4.375  65.156  1.00  0.00    -0.095 OA 
BRANCH  14  15
HETATM   15  C   UNL     1      -9.038   3.574  65.613  1.00  0.00    -0.149 C  
HETATM   16  O   UNL     1      -9.297   3.343  66.787  1.00  0.00    -0.177 OA 
BRANCH  15  17
HETATM   17  C   UNL     1      -9.774   3.048  64.487  1.00  0.00    -0.129 A  
HETATM   18  C   UNL     1     -10.610   3.683  63.584  1.00  0.00    -0.279 A  
HETATM   19  C   UNL     1     -11.076   2.693  62.687  1.00  0.00    -0.142 A  
HETATM   20  C   UNL     1     -10.495   1.513  63.088  1.00  0.00    -0.133 A  
HETATM   21  O   UNL     1      -9.704   1.715  64.174  1.00  0.00    -0.134 OA 
ENDBRANCH  15  17
ENDBRANCH  14  15
ENDBRANCH  11  14
ENDBRANCH   2   8
TORSDOF 4
ENDMDL
MODEL      244
REMARK 921   NORMALIZED FREE ENERGY PREDICTED BY IDOCK:   -1.97 KCAL/MOL
REMARK 922        TOTAL FREE ENERGY PREDICTED BY IDOCK:   -2.94 KCAL/MOL
REMARK 923 INTER-LIGAND FREE ENERGY PREDICTED BY IDOCK:   -3.95 KCAL/MOL
REMARK 924 INTRA-LIGAND FREE ENERGY PREDICTED BY IDOCK:    1.02 KCAL/MOL
REMARK 927      BINDING AFFINITY PREDICTED BY RF-SCORE:    0.00 PKD
ROOT
HETATM    1  C   UNL     1     -10.653  16.602  65.341  1.00  0.00    -0.237 C  
HETATM    2  N   UNL     1     -10.690  15.146  65.374  1.00  0.00    -0.353 N  
HETATM    3 CL   UNL     1     -12.783  12.396  65.996  1.00  0.00     0.603 Cl 
HETATM    4  C   UNL     1     -11.653  14.440  64.641  1.00  0.00    -0.409 C  
HETATM    5 CL   UNL     1     -12.095  12.185  63.169  1.00  0.00    -0.453 Cl 
HETATM    6  C   UNL     1     -11.637  12.903  64.734  1.00  0.00    -0.331 C  
HETATM    7  O   UNL     1     -12.490  15.041  63.957  1.00  0.00    -0.796 OA 
ENDROOT
BRANCH   2   8
HETATM    8  C   UNL     1      -9.721  14.510  66.175  1.00  0.00    -0.316 A  
HETATM    9  C   UNL     1      -8.627  15.240  66.648  1.00  0.00    -0.305 A  
HETATM   10  C   UNL     1      -7.585  14.573  67.291  1.00  0.00    -0.150 A  
HETATM   11  C   UNL     1      -7.651  13.189  67.472  1.00  0.00    -0.163 A  
HETATM   12  C   UNL     1      -9.799  13.131  66.384  1.00  0.00    -0.279 A  
HETATM   13  C   UNL     1      -8.753  12.464  67.023  1.00  0.00    -0.207 A  
BRANCH  11  14
HETATM   14  O   UNL     1      -6.496  12.593  68.024  1.00  0.00    -0.071 OA 
BRANCH  14  15
HETATM   15  C   UNL     1      -6.205  11.231  67.901  1.00  0.00    -0.050 C  
HETATM   16  O   UNL     1      -5.740  10.692  66.905  1.00  0.00    -0.049 OA 
BRANCH  15  17
HETATM   17  C   UNL     1      -6.544  10.547  69.127  1.00  0.00    -0.057 A  
HETATM   18  C   UNL     1      -7.701   9.883  69.496  1.00  0.00    -0.135 A  
HETATM   19  C   UNL     1      -7.500   9.406  70.813  1.00  0.00    -0.132 A  
HETATM   20  C   UNL     1      -6.232   9.798  71.171  1.00  0.00    -0.017 A  
HETATM   21  O   UNL     1      -5.643  10.488  70.159  1.00  0.00    -0.050 OA 
ENDBRANCH  15  17
ENDBRANCH  14  15
ENDBRANCH  11  14
ENDBRANCH   2   8
TORSDOF 4
ENDMDL
MODEL      245
REMARK 921   NORMALIZED FREE ENERGY PREDICTED BY IDOCK:   -1.85 KCAL/MOL
REMARK 922        TOTAL FREE ENERGY PREDICTED BY IDOCK:   -2.80 KCAL/MOL
REMARK 923 INTER-LIGAND FREE ENERGY PREDICTED BY IDOCK:   -2.43 KCAL/MOL
REMARK 924 INTRA-LIGAND FREE ENERGY PREDICTED BY IDOCK:   -0.37 KCAL/MOL
REMARK 927      BINDING AFFINITY PREDICTED BY RF-SCORE:    0.00 PKD
ROOT
HETATM    1  C   UNL     1      -5.285  12.232  69.037  1.00  0.00    -0.055 C  
HETATM    2  N   UNL     1      -6.712  12.338  68.769  1.00  0.00    -0.083 N  
HETATM    3 CL   UNL     1      -9.312  11.034  66.800  1.00  0.00    -0.193 Cl 
HETATM    4  C   UNL     1      -7.534  11.204  68.826  1.00  0.00    -0.118 C  
HETATM    5 CL   UNL     1     -10.010  10.303  69.538  1.00  0.00    -0.253 Cl 
HETATM    6  C   UNL     1      -9.032  11.391  68.521  1.00  0.00    -0.158 C  
HETATM    7  O   UNL     1      -7.061  10.096  69.101  1.00  0.00    -0.062 OA 
ENDROOT
BRANCH   2   8
HETATM    8  C   UNL     1      -7.201  13.621  68.452  1.00  0.00    -0.109 A  
HETATM    9  C   UNL     1      -7.996  14.305  69.376  1.00  0.00     0.218 A  
HETATM   10  C   UNL     1      -8.619  15.494  68.997  1.00  0.00    -0.234 A  
HETATM   11  C   UNL     1      -8.430  15.997  67.707  1.00  0.00    -0.161 A  
HETATM   12  C   UNL     1      -6.988  14.142  67.174  1.00  0.00     0.351 A  
HETATM   13  C   UNL     1      -7.616  15.329  66.794  1.00  0.00     0.103 A  
BRANCH  11  14
HETATM   14  O   UNL     1      -9.196  17.138  67.381  1.00  0.00    -0.229 OA 
BRANCH  14  15
HETATM   15  C   UNL     1      -8.761  18.122  66.489  1.00  0.00    -0.268 C  
HETATM   16  O   UNL     1      -9.340  18.455  65.462  1.00  0.00    -0.075 OA 
BRANCH  15  17
HETATM   17  C   UNL     1      -7.517  18.687  66.955  1.00  0.00    -0.218 A  
HETATM   18  C   UNL     1      -7.201  19.301  68.155  1.00  0.00    -0.304 A  
HETATM   19  C   UNL     1      -5.839  19.676  68.080  1.00  0.00    -0.240 A  
HETATM   20  C   UNL     1      -5.398  19.266  66.845  1.00  0.00    -0.164 A  
HETATM   21  O   UNL     1      -6.403  18.665  66.155  1.00  0.00    -0.176 OA 
ENDBRANCH  15  17
ENDBRANCH  14  15
ENDBRANCH  11  14
ENDBRANCH   2   8
TORSDOF 4
ENDMDL
MODEL      246
REMARK 921   NORMALIZED FREE ENERGY PREDICTED BY IDOCK:   -1.85 KCAL/MOL
REMARK 922        TOTAL FREE ENERGY PREDICTED BY IDOCK:   -2.79 KCAL/MOL
REMARK 923 INTER-LIGAND FREE ENERGY PREDICTED BY IDOCK:   -2.25 KCAL/MOL
REMARK 924 INTRA-LIGAND FREE ENERGY PREDICTED BY IDOCK:   -0.54 KCAL/MOL
REMARK 927      BINDING AFFINITY PREDICTED BY RF-SCORE:    0.00 PKD
ROOT
HETATM    1  C   UNL     1      -9.277   8.913  66.020  1.00  0.00    -0.228 C  
HETATM    2  N   UNL     1      -8.670   7.613  65.769  1.00  0.00    -0.150 N  
HETATM    3 CL   UNL     1      -8.390   5.048  63.387  1.00  0.00    -0.116 Cl 
HETATM    4  C   UNL     1      -7.894   7.397  64.622  1.00  0.00    -0.123 C  
HETATM    5 CL   UNL     1      -5.687   6.115  63.655  1.00  0.00    -0.021 Cl 
HETATM    6  C   UNL     1      -7.292   5.994  64.419  1.00  0.00    -0.068 C  
HETATM    7  O   UNL     1      -7.714   8.305  63.803  1.00  0.00    -0.129 OA 
ENDROOT
BRANCH   2   8
HETATM    8  C   UNL     1      -8.910   6.609  66.729  1.00  0.00    -0.130 A  
HETATM    9  C   UNL     1     -10.088   5.859  66.664  1.00  0.00    -0.229 A  
HETATM   10  C   UNL     1     -10.405   4.990  67.708  1.00  0.00    -0.116 A  
HETATM   11  C   UNL     1      -9.537   4.864  68.796  1.00  0.00    -0.156 A  
HETATM   12  C   UNL     1      -8.029   6.458  67.802  1.00  0.00    -0.114 A  
HETATM   13  C   UNL     1      -8.349   5.592  68.848  1.00  0.00    -0.102 A  
BRANCH  11  14
HETATM   14  O   UNL     1     -10.003   4.053  69.854  1.00  0.00    -0.186 OA 
BRANCH  14  15
HETATM   15  C   UNL     1      -9.452   2.806  70.161  1.00  0.00    -0.107 C  
HETATM   16  O   UNL     1      -9.780   1.740  69.655  1.00  0.00    -0.029 OA 
BRANCH  15  17
HETATM   17  C   UNL     1      -8.436   2.958  71.177  1.00  0.00    -0.062 A  
HETATM   18  C   UNL     1      -8.389   3.789  72.283  1.00  0.00    -0.089 A  
HETATM   19  C   UNL     1      -7.159   3.538  72.935  1.00  0.00    -0.045 A  
HETATM   20  C   UNL     1      -6.528   2.566  72.196  1.00  0.00    -0.015 A  
HETATM   21  O   UNL     1      -7.291   2.206  71.131  1.00  0.00    -0.032 OA 
ENDBRANCH  15  17
ENDBRANCH  14  15
ENDBRANCH  11  14
ENDBRANCH   2   8
TORSDOF 4
ENDMDL
MODEL      247
REMARK 921   NORMALIZED FREE ENERGY PREDICTED BY IDOCK:   -1.78 KCAL/MOL
REMARK 922        TOTAL FREE ENERGY PREDICTED BY IDOCK:   -2.71 KCAL/MOL
REMARK 923 INTER-LIGAND FREE ENERGY PREDICTED BY IDOCK:   -2.19 KCAL/MOL
REMARK 924 INTRA-LIGAND FREE ENERGY PREDICTED BY IDOCK:   -0.52 KCAL/MOL
REMARK 927      BINDING AFFINITY PREDICTED BY RF-SCORE:    0.00 PKD
ROOT
HETATM    1  C   UNL     1      -8.701   9.672  68.364  1.00  0.00    -0.120 C  
HETATM    2  N   UNL     1      -8.217   9.137  67.099  1.00  0.00    -0.113 N  
HETATM    3 CL   UNL     1      -8.726   9.225  63.625  1.00  0.00    -0.213 Cl 
HETATM    4  C   UNL     1      -7.843   9.998  66.057  1.00  0.00    -0.119 C  
HETATM    5 CL   UNL     1      -6.066  10.357  64.018  1.00  0.00    -0.118 Cl 
HETATM    6  C   UNL     1      -7.350   9.359  64.745  1.00  0.00    -0.107 C  
HETATM    7  O   UNL     1      -7.922  11.224  66.193  1.00  0.00    -0.134 OA 
ENDROOT
BRANCH   2   8
HETATM    8  C   UNL     1      -8.153   7.734  66.991  1.00  0.00    -0.117 A  
HETATM    9  C   UNL     1      -6.964   7.070  67.303  1.00  0.00    -0.078 A  
HETATM   10  C   UNL     1      -6.848   5.707  67.032  1.00  0.00    -0.064 A  
HETATM   11  C   UNL     1      -7.924   5.016  66.469  1.00  0.00    -0.107 A  
HETATM   12  C   UNL     1      -9.238   7.035  66.457  1.00  0.00    -0.198 A  
HETATM   13  C   UNL     1      -9.120   5.672  66.182  1.00  0.00    -0.158 A  
BRANCH  11  14
HETATM   14  O   UNL     1      -7.669   3.672  66.122  1.00  0.00    -0.086 OA 
BRANCH  14  15
HETATM   15  C   UNL     1      -8.373   2.594  66.667  1.00  0.00    -0.090 C  
HETATM   16  O   UNL     1      -9.161   1.880  66.059  1.00  0.00    -0.117 OA 
BRANCH  15  17
HETATM   17  C   UNL     1      -8.038   2.450  68.064  1.00  0.00    -0.058 A  
HETATM   18  C   UNL     1      -7.010   1.753  68.676  1.00  0.00    -0.036 A  
HETATM   19  C   UNL     1      -7.156   1.942  70.070  1.00  0.00    -0.033 A  
HETATM   20  C   UNL     1      -8.258   2.748  70.232  1.00  0.00    -0.041 A  
HETATM   21  O   UNL     1      -8.799   3.063  69.026  1.00  0.00    -0.079 OA 
ENDBRANCH  15  17
ENDBRANCH  14  15
ENDBRANCH  11  14
ENDBRANCH   2   8
TORSDOF 4
ENDMDL
MODEL      248
REMARK 921   NORMALIZED FREE ENERGY PREDICTED BY IDOCK:   -1.73 KCAL/MOL
REMARK 922        TOTAL FREE ENERGY PREDICTED BY IDOCK:   -2.64 KCAL/MOL
REMARK 923 INTER-LIGAND FREE ENERGY PREDICTED BY IDOCK:   -2.08 KCAL/MOL
REMARK 924 INTRA-LIGAND FREE ENERGY PREDICTED BY IDOCK:   -0.56 KCAL/MOL
REMARK 927      BINDING AFFINITY PREDICTED BY RF-SCORE:    0.00 PKD
ROOT
HETATM    1  C   UNL     1      -9.424   9.243  67.068  1.00  0.00    -0.159 C  
HETATM    2  N   UNL     1      -8.613   8.130  66.597  1.00  0.00    -0.130 N  
HETATM    3 CL   UNL     1      -8.310   5.755  64.027  1.00  0.00    -0.085 Cl 
HETATM    4  C   UNL     1      -8.090   8.128  65.296  1.00  0.00    -0.136 C  
HETATM    5 CL   UNL     1      -5.930   7.426  63.783  1.00  0.00    -0.047 Cl 
HETATM    6  C   UNL     1      -7.249   6.912  64.865  1.00  0.00    -0.078 C  
HETATM    7  O   UNL     1      -8.312   9.070  64.527  1.00  0.00    -0.158 OA 
ENDROOT
BRANCH   2   8
HETATM    8  C   UNL     1      -8.395   7.078  67.509  1.00  0.00    -0.119 A  
HETATM    9  C   UNL     1      -7.257   7.090  68.320  1.00  0.00    -0.091 A  
HETATM   10  C   UNL     1      -6.955   5.970  69.093  1.00  0.00    -0.064 A  
HETATM   11  C   UNL     1      -7.799   4.856  69.065  1.00  0.00    -0.076 A  
HETATM   12  C   UNL     1      -9.255   5.976  67.506  1.00  0.00    -0.111 A  
HETATM   13  C   UNL     1      -8.949   4.854  68.277  1.00  0.00    -0.126 A  
BRANCH  11  14
HETATM   14  O   UNL     1      -7.345   3.731  69.787  1.00  0.00    -0.042 OA 
BRANCH  14  15
HETATM   15  C   UNL     1      -8.118   3.080  70.753  1.00  0.00    -0.053 C  
HETATM   16  O   UNL     1      -8.540   1.933  70.670  1.00  0.00    -0.049 OA 
BRANCH  15  17
HETATM   17  C   UNL     1      -8.353   3.967  71.868  1.00  0.00    -0.090 A  
HETATM   18  C   UNL     1      -7.574   4.240  72.980  1.00  0.00    -0.081 A  
HETATM   19  C   UNL     1      -8.286   5.180  73.762  1.00  0.00    -0.111 A  
HETATM   20  C   UNL     1      -9.454   5.432  73.082  1.00  0.00    -0.142 A  
HETATM   21  O   UNL     1      -9.505   4.706  71.935  1.00  0.00    -0.135 OA 
ENDBRANCH  15  17
ENDBRANCH  14  15
ENDBRANCH  11  14
ENDBRANCH   2   8
TORSDOF 4
ENDMDL
MODEL      249
REMARK 921   NORMALIZED FREE ENERGY PREDICTED BY IDOCK:   -1.66 KCAL/MOL
REMARK 922        TOTAL FREE ENERGY PREDICTED BY IDOCK:   -2.56 KCAL/MOL
REMARK 923 INTER-LIGAND FREE ENERGY PREDICTED BY IDOCK:   -2.15 KCAL/MOL
REMARK 924 INTRA-LIGAND FREE ENERGY PREDICTED BY IDOCK:   -0.40 KCAL/MOL
REMARK 927      BINDING AFFINITY PREDICTED BY RF-SCORE:    0.00 PKD
ROOT
HETATM    1  C   UNL     1      -6.164   8.629  68.240  1.00  0.00    -0.054 C  
HETATM    2  N   UNL     1      -6.428   8.634  66.808  1.00  0.00    -0.059 N  
HETATM    3 CL   UNL     1      -8.089  10.384  64.257  1.00  0.00    -0.140 Cl 
HETATM    4  C   UNL     1      -6.153   9.771  66.036  1.00  0.00    -0.066 C  
HETATM    5 CL   UNL     1      -5.255  10.628  63.606  1.00  0.00    -0.167 Cl 
HETATM    6  C   UNL     1      -6.467   9.706  64.530  1.00  0.00    -0.101 C  
HETATM    7  O   UNL     1      -5.685  10.789  66.558  1.00  0.00    -0.063 OA 
ENDROOT
BRANCH   2   8
HETATM    8  C   UNL     1      -6.967   7.452  66.262  1.00  0.00    -0.069 A  
HETATM    9  C   UNL     1      -6.118   6.512  65.672  1.00  0.00    -0.030 A  
HETATM   10  C   UNL     1      -6.666   5.432  64.982  1.00  0.00    -0.048 A  
HETATM   11  C   UNL     1      -8.053   5.288  64.902  1.00  0.00    -0.122 A  
HETATM   12  C   UNL     1      -8.354   7.290  66.208  1.00  0.00    -0.129 A  
HETATM   13  C   UNL     1      -8.901   6.210  65.514  1.00  0.00    -0.063 A  
BRANCH  11  14
HETATM   14  O   UNL     1      -8.509   4.232  64.084  1.00  0.00    -0.101 OA 
BRANCH  14  15
HETATM   15  C   UNL     1      -9.483   3.314  64.490  1.00  0.00    -0.148 C  
HETATM   16  O   UNL     1     -10.512   3.055  63.879  1.00  0.00    -0.190 OA 
BRANCH  15  17
HETATM   17  C   UNL     1      -9.097   2.719  65.748  1.00  0.00    -0.125 A  
HETATM   18  C   UNL     1      -8.293   1.625  66.015  1.00  0.00    -0.091 A  
HETATM   19  C   UNL     1      -8.257   1.474  67.422  1.00  0.00    -0.071 A  
HETATM   20  C   UNL     1      -9.034   2.486  67.933  1.00  0.00    -0.155 A  
HETATM   21  O   UNL     1      -9.546   3.247  66.931  1.00  0.00    -0.161 OA 
ENDBRANCH  15  17
ENDBRANCH  14  15
ENDBRANCH  11  14
ENDBRANCH   2   8
TORSDOF 4
ENDMDL
MODEL      250
REMARK 921   NORMALIZED FREE ENERGY PREDICTED BY IDOCK:   -1.60 KCAL/MOL
REMARK 922        TOTAL FREE ENERGY PREDICTED BY IDOCK:   -2.48 KCAL/MOL
REMARK 923 INTER-LIGAND FREE ENERGY PREDICTED BY IDOCK:   -2.47 KCAL/MOL
REMARK 924 INTRA-LIGAND FREE ENERGY PREDICTED BY IDOCK:   -0.01 KCAL/MOL
REMARK 927      BINDING AFFINITY PREDICTED BY RF-SCORE:    0.00 PKD
ROOT
HETATM    1  C   UNL     1      -5.239   4.154  67.302  1.00  0.00    -0.012 C  
HETATM    2  N   UNL     1      -6.536   4.567  67.823  1.00  0.00    -0.044 N  
HETATM    3 CL   UNL     1      -9.998   4.270  67.315  1.00  0.00    -0.190 Cl 
HETATM    4  C   UNL     1      -7.512   3.614  68.142  1.00  0.00    -0.061 C  
HETATM    5 CL   UNL     1      -9.510   2.999  69.897  1.00  0.00    -0.219 Cl 
HETATM    6  C   UNL     1      -8.862   4.126  68.678  1.00  0.00    -0.104 C  
HETATM    7  O   UNL     1      -7.292   2.408  67.985  1.00  0.00    -0.048 OA 
ENDROOT
BRANCH   2   8
HETATM    8  C   UNL     1      -6.741   5.952  67.977  1.00  0.00    -0.061 A  
HETATM    9  C   UNL     1      -7.351   6.679  66.951  1.00  0.00    -0.082 A  
HETATM   10  C   UNL     1      -7.396   8.070  67.030  1.00  0.00    -0.091 A  
HETATM   11  C   UNL     1      -6.850   8.722  68.138  1.00  0.00    -0.069 A  
HETATM   12  C   UNL     1      -6.223   6.604  69.099  1.00  0.00    -0.030 A  
HETATM   13  C   UNL     1      -6.265   7.997  69.175  1.00  0.00    -0.039 A  
BRANCH  11  14
HETATM   14  O   UNL     1      -6.838  10.132  68.069  1.00  0.00    -0.069 OA 
BRANCH  14  15
HETATM   15  C   UNL     1      -7.737  10.941  68.772  1.00  0.00    -0.129 C  
HETATM   16  O   UNL     1      -7.719  12.165  68.799  1.00  0.00    -0.109 OA 
BRANCH  15  17
HETATM   17  C   UNL     1      -8.692  10.114  69.471  1.00  0.00    -0.174 A  
HETATM   18  C   UNL     1      -9.944   9.665  69.086  1.00  0.00    -0.189 A  
HETATM   19  C   UNL     1     -10.453   8.894  70.159  1.00  0.00    -0.236 A  
HETATM   20  C   UNL     1      -9.482   8.910  71.132  1.00  0.00    -0.265 A  
HETATM   21  O   UNL     1      -8.412   9.642  70.728  1.00  0.00    -0.245 OA 
ENDBRANCH  15  17
ENDBRANCH  14  15
ENDBRANCH  11  14
ENDBRANCH   2   8
TORSDOF 4
ENDMDL
MODEL      251
REMARK 921   NORMALIZED FREE ENERGY PREDICTED BY IDOCK:   -1.21 KCAL/MOL
REMARK 922        TOTAL FREE ENERGY PREDICTED BY IDOCK:   -2.00 KCAL/MOL
REMARK 923 INTER-LIGAND FREE ENERGY PREDICTED BY IDOCK:   -2.87 KCAL/MOL
REMARK 924 INTRA-LIGAND FREE ENERGY PREDICTED BY IDOCK:    0.87 KCAL/MOL
REMARK 927      BINDING AFFINITY PREDICTED BY RF-SCORE:    0.00 PKD
ROOT
HETATM    1  C   UNL     1      -7.004   9.418  64.166  1.00  0.00    -0.099 C  
HETATM    2  N   UNL     1      -7.902  10.026  65.139  1.00  0.00    -0.131 N  
HETATM    3 CL   UNL     1      -9.173  13.102  66.259  1.00  0.00    -0.141 Cl 
HETATM    4  C   UNL     1      -8.920  10.895  64.724  1.00  0.00    -0.140 C  
HETATM    5 CL   UNL     1     -11.490  11.676  65.205  1.00  0.00    -0.239 Cl 
HETATM    6  C   UNL     1      -9.823  11.508  65.811  1.00  0.00    -0.234 C  
HETATM    7  O   UNL     1      -9.072  11.162  63.527  1.00  0.00    -0.188 OA 
ENDROOT
BRANCH   2   8
HETATM    8  C   UNL     1      -7.682   9.696  66.491  1.00  0.00    -0.098 A  
HETATM    9  C   UNL     1      -7.936   8.395  66.935  1.00  0.00    -0.099 A  
HETATM   10  C   UNL     1      -7.885   8.115  68.300  1.00  0.00    -0.122 A  
HETATM   11  C   UNL     1      -7.565   9.128  69.207  1.00  0.00    -0.079 A  
HETATM   12  C   UNL     1      -7.331  10.700  67.396  1.00  0.00    -0.093 A  
HETATM   13  C   UNL     1      -7.285  10.420  68.763  1.00  0.00    -0.085 A  
BRANCH  11  14
HETATM   14  O   UNL     1      -7.656   8.775  70.571  1.00  0.00    -0.067 OA 
BRANCH  14  15
HETATM   15  C   UNL     1      -7.972   7.485  71.008  1.00  0.00    -0.095 C  
HETATM   16  O   UNL     1      -7.945   6.475  70.316  1.00  0.00    -0.111 OA 
BRANCH  15  17
HETATM   17  C   UNL     1      -8.346   7.521  72.402  1.00  0.00    -0.108 A  
HETATM   18  C   UNL     1      -9.285   6.782  73.101  1.00  0.00    -0.147 A  
HETATM   19  C   UNL     1      -9.247   7.230  74.442  1.00  0.00    -0.169 A  
HETATM   20  C   UNL     1      -8.284   8.209  74.490  1.00  0.00    -0.151 A  
HETATM   21  O   UNL     1      -7.730   8.393  73.263  1.00  0.00    -0.275 OA 
ENDBRANCH  15  17
ENDBRANCH  14  15
ENDBRANCH  11  14
ENDBRANCH   2   8
TORSDOF 4
ENDMDL
MODEL      252
REMARK 921   NORMALIZED FREE ENERGY PREDICTED BY IDOCK:    0.89 KCAL/MOL
REMARK 922        TOTAL FREE ENERGY PREDICTED BY IDOCK:    0.59 KCAL/MOL
REMARK 923 INTER-LIGAND FREE ENERGY PREDICTED BY IDOCK:   -0.87 KCAL/MOL
REMARK 924 INTRA-LIGAND FREE ENERGY PREDICTED BY IDOCK:    1.46 KCAL/MOL
REMARK 927      BINDING AFFINITY PREDICTED BY RF-SCORE:    0.00 PKD
ROOT
HETATM    1  C   UNL     1     -10.190  20.038  70.712  1.00  0.00     1.658 C  
HETATM    2  N   UNL     1      -9.200  19.492  69.793  1.00  0.00     0.320 N  
HETATM    3 CL   UNL     1      -6.712  20.382  67.480  1.00  0.00    -0.297 Cl 
HETATM    4  C   UNL     1      -7.857  19.887  69.875  1.00  0.00     0.608 C  
HETATM    5 CL   UNL     1      -5.281  19.022  69.629  1.00  0.00    -0.184 Cl 
HETATM    6  C   UNL     1      -6.870  19.274  68.864  1.00  0.00    -0.331 C  
HETATM    7  O   UNL     1      -7.492  20.707  70.725  1.00  0.00     0.586 OA 
ENDROOT
BRANCH   2   8
HETATM    8  C   UNL     1      -9.668  18.567  68.839  1.00  0.00    -0.308 A  
HETATM    9  C   UNL     1     -10.497  17.517  69.242  1.00  0.00    -0.100 A  
HETATM   10  C   UNL     1     -10.817  16.509  68.334  1.00  0.00    -0.348 A  
HETATM   11  C   UNL     1     -10.323  16.566  67.029  1.00  0.00    -0.301 A  
HETATM   12  C   UNL     1      -9.200  18.639  67.525  1.00  0.00    -0.295 A  
HETATM   13  C   UNL     1      -9.517  17.627  66.618  1.00  0.00    -0.288 A  
BRANCH  11  14
HETATM   14  O   UNL     1     -10.603  15.441  66.223  1.00  0.00    -0.295 OA 
BRANCH  14  15
HETATM   15  C   UNL     1      -9.957  14.210  66.375  1.00  0.00    -0.293 C  
HETATM   16  O   UNL     1      -8.997  13.827  65.720  1.00  0.00     0.333 OA 
BRANCH  15  17
HETATM   17  C   UNL     1     -10.599  13.450  67.422  1.00  0.00    -0.251 A  
HETATM   18  C   UNL     1     -11.757  13.704  68.137  1.00  0.00    -0.392 A  
HETATM   19  C   UNL     1     -11.920  12.635  69.049  1.00  0.00    -0.282 A  
HETATM   20  C   UNL     1     -10.860  11.787  68.836  1.00  0.00    -0.223 A  
HETATM   21  O   UNL     1     -10.055  12.268  67.853  1.00  0.00    -0.190 OA 
ENDBRANCH  15  17
ENDBRANCH  14  15
ENDBRANCH  11  14
ENDBRANCH   2   8
TORSDOF 4
ENDMDL
MODEL      253
REMARK 921   NORMALIZED FREE ENERGY PREDICTED BY IDOCK:    0.91 KCAL/MOL
REMARK 922        TOTAL FREE ENERGY PREDICTED BY IDOCK:    0.62 KCAL/MOL
REMARK 923 INTER-LIGAND FREE ENERGY PREDICTED BY IDOCK:    0.80 KCAL/MOL
REMARK 924 INTRA-LIGAND FREE ENERGY PREDICTED BY IDOCK:   -0.19 KCAL/MOL
REMARK 927      BINDING AFFINITY PREDICTED BY RF-SCORE:    0.00 PKD
ROOT
HETATM    1  C   UNL     1     -10.999  17.524  69.840  1.00  0.00     1.026 C  
HETATM    2  N   UNL     1     -11.278  16.096  69.923  1.00  0.00    -0.347 N  
HETATM    3 CL   UNL     1     -11.692  13.434  72.175  1.00  0.00     1.710 Cl 
HETATM    4  C   UNL     1     -12.326  15.620  70.723  1.00  0.00    -0.419 C  
HETATM    5 CL   UNL     1     -14.296  13.739  70.894  1.00  0.00     0.880 Cl 
HETATM    6  C   UNL     1     -12.555  14.098  70.768  1.00  0.00    -0.362 C  
HETATM    7  O   UNL     1     -13.028  16.402  71.373  1.00  0.00     0.236 OA 
ENDROOT
BRANCH   2   8
HETATM    8  C   UNL     1     -10.445  15.247  69.169  1.00  0.00    -0.247 A  
HETATM    9  C   UNL     1     -11.005  14.416  68.194  1.00  0.00    -0.265 A  
HETATM   10  C   UNL     1     -10.208  13.456  67.572  1.00  0.00    -0.226 A  
HETATM   11  C   UNL     1      -8.858  13.344  67.914  1.00  0.00    -0.194 A  
HETATM   12  C   UNL     1      -9.088  15.155  69.487  1.00  0.00    -0.131 A  
HETATM   13  C   UNL     1      -8.292  14.190  68.867  1.00  0.00    -0.003 A  
BRANCH  11  14
HETATM   14  O   UNL     1      -8.167  12.266  67.319  1.00  0.00    -0.167 OA 
BRANCH  14  15
HETATM   15  C   UNL     1      -8.038  11.013  67.925  1.00  0.00    -0.114 C  
HETATM   16  O   UNL     1      -7.008  10.351  67.974  1.00  0.00    -0.076 OA 
BRANCH  15  17
HETATM   17  C   UNL     1      -9.307  10.606  68.481  1.00  0.00    -0.170 A  
HETATM   18  C   UNL     1      -9.757  10.607  69.790  1.00  0.00     0.104 A  
HETATM   19  C   UNL     1     -11.076  10.097  69.773  1.00  0.00    -0.328 A  
HETATM   20  C   UNL     1     -11.360   9.820  68.456  1.00  0.00     0.087 A  
HETATM   21  O   UNL     1     -10.299  10.126  67.665  1.00  0.00    -0.190 OA 
ENDBRANCH  15  17
ENDBRANCH  14  15
ENDBRANCH  11  14
ENDBRANCH   2   8
TORSDOF 4
ENDMDL
MODEL      254
REMARK 921   NORMALIZED FREE ENERGY PREDICTED BY IDOCK:    1.34 KCAL/MOL
REMARK 922        TOTAL FREE ENERGY PREDICTED BY IDOCK:    1.15 KCAL/MOL
REMARK 923 INTER-LIGAND FREE ENERGY PREDICTED BY IDOCK:    1.56 KCAL/MOL
REMARK 924 INTRA-LIGAND FREE ENERGY PREDICTED BY IDOCK:   -0.41 KCAL/MOL
REMARK 927      BINDING AFFINITY PREDICTED BY RF-SCORE:    0.00 PKD
ROOT
HETATM    1  C   UNL     1     -11.367  17.896  70.590  1.00  0.00     3.224 C  
HETATM    2  N   UNL     1     -11.610  16.460  70.588  1.00  0.00    -0.214 N  
HETATM    3 CL   UNL     1     -11.537  13.589  72.608  1.00  0.00     2.516 Cl 
HETATM    4  C   UNL     1     -12.471  15.881  71.531  1.00  0.00    -0.428 C  
HETATM    5 CL   UNL     1     -14.348  13.937  71.909  1.00  0.00    -0.456 Cl 
HETATM    6  C   UNL     1     -12.672  14.356  71.473  1.00  0.00    -0.345 C  
HETATM    7  O   UNL     1     -13.035  16.579  72.381  1.00  0.00     0.061 OA 
ENDROOT
BRANCH   2   8
HETATM    8  C   UNL     1     -10.938  15.708  69.604  1.00  0.00    -0.288 A  
HETATM    9  C   UNL     1     -11.599  15.372  68.420  1.00  0.00    -0.368 A  
HETATM   10  C   UNL     1     -10.997  14.487  67.526  1.00  0.00    -0.297 A  
HETATM   11  C   UNL     1      -9.735  13.959  67.814  1.00  0.00    -0.225 A  
HETATM   12  C   UNL     1      -9.663  15.205  69.874  1.00  0.00    -0.025 A  
HETATM   13  C   UNL     1      -9.063  14.315  68.982  1.00  0.00     0.056 A  
BRANCH  11  14
HETATM   14  O   UNL     1      -9.264  12.983  66.910  1.00  0.00    -0.224 OA 
BRANCH  14  15
HETATM   15  C   UNL     1      -9.455  11.610  67.098  1.00  0.00    -0.176 C  
HETATM   16  O   UNL     1      -9.918  11.089  68.104  1.00  0.00    -0.168 OA 
BRANCH  15  17
HETATM   17  C   UNL     1      -9.015  10.892  65.925  1.00  0.00    -0.192 A  
HETATM   18  C   UNL     1      -9.704  10.531  64.780  1.00  0.00    -0.365 A  
HETATM   19  C   UNL     1      -8.793   9.831  63.954  1.00  0.00    -0.259 A  
HETATM   20  C   UNL     1      -7.599   9.810  64.636  1.00  0.00    -0.134 A  
HETATM   21  O   UNL     1      -7.720  10.450  65.828  1.00  0.00    -0.137 OA 
ENDBRANCH  15  17
ENDBRANCH  14  15
ENDBRANCH  11  14
ENDBRANCH   2   8
TORSDOF 4
ENDMDL
MODEL      255
REMARK 921   NORMALIZED FREE ENERGY PREDICTED BY IDOCK:    4.58 KCAL/MOL
REMARK 922        TOTAL FREE ENERGY PREDICTED BY IDOCK:    5.15 KCAL/MOL
REMARK 923 INTER-LIGAND FREE ENERGY PREDICTED BY IDOCK:    3.55 KCAL/MOL
REMARK 924 INTRA-LIGAND FREE ENERGY PREDICTED BY IDOCK:    1.59 KCAL/MOL
REMARK 927      BINDING AFFINITY PREDICTED BY RF-SCORE:    0.00 PKD
ROOT
HETATM    1  C   UNL     1     -13.626  13.375  68.732  1.00  0.00     5.454 C  
HETATM    2  N   UNL     1     -12.797  14.238  69.562  1.00  0.00     0.194 N  
HETATM    3 CL   UNL     1     -12.905  16.959  71.780  1.00  0.00     2.553 Cl 
HETATM    4  C   UNL     1     -13.081  14.404  70.925  1.00  0.00    -0.328 C  
HETATM    5 CL   UNL     1     -11.960  14.718  73.393  1.00  0.00    -0.305 Cl 
HETATM    6  C   UNL     1     -12.167  15.340  71.736  1.00  0.00    -0.360 C  
HETATM    7  O   UNL     1     -14.040  13.823  71.444  1.00  0.00    -0.142 OA 
ENDROOT
BRANCH   2   8
HETATM    8  C   UNL     1     -11.721  14.884  68.922  1.00  0.00    -0.315 A  
HETATM    9  C   UNL     1     -11.001  15.868  69.603  1.00  0.00    -0.319 A  
HETATM   10  C   UNL     1     -10.053  16.624  68.915  1.00  0.00    -0.274 A  
HETATM   11  C   UNL     1      -9.820  16.380  67.559  1.00  0.00    -0.239 A  
HETATM   12  C   UNL     1     -11.464  14.620  67.574  1.00  0.00    -0.378 A  
HETATM   13  C   UNL     1     -10.519  15.380  66.885  1.00  0.00    -0.295 A  
BRANCH  11  14
HETATM   14  O   UNL     1      -8.932  17.275  66.924  1.00  0.00    -0.225 OA 
BRANCH  14  15
HETATM   15  C   UNL     1      -7.691  17.632  67.461  1.00  0.00    -0.201 C  
HETATM   16  O   UNL     1      -7.300  17.356  68.588  1.00  0.00    -0.224 OA 
BRANCH  15  17
HETATM   17  C   UNL     1      -6.937  18.387  66.488  1.00  0.00    -0.216 A  
HETATM   18  C   UNL     1      -6.309  19.615  66.593  1.00  0.00    -0.182 A  
HETATM   19  C   UNL     1      -5.726  19.889  65.333  1.00  0.00    -0.205 A  
HETATM   20  C   UNL     1      -6.024  18.812  64.533  1.00  0.00    -0.111 A  
HETATM   21  O   UNL     1      -6.755  17.896  65.220  1.00  0.00    -0.327 OA 
ENDBRANCH  15  17
ENDBRANCH  14  15
ENDBRANCH  11  14
ENDBRANCH   2   8
TORSDOF 4
ENDMDL
MODEL      256
REMARK 921   NORMALIZED FREE ENERGY PREDICTED BY IDOCK:    6.71 KCAL/MOL
REMARK 922        TOTAL FREE ENERGY PREDICTED BY IDOCK:    7.77 KCAL/MOL
REMARK 923 INTER-LIGAND FREE ENERGY PREDICTED BY IDOCK:    6.63 KCAL/MOL
REMARK 924 INTRA-LIGAND FREE ENERGY PREDICTED BY IDOCK:    1.14 KCAL/MOL
REMARK 927      BINDING AFFINITY PREDICTED BY RF-SCORE:    0.00 PKD
ROOT
HETATM    1  C   UNL     1     -11.878  14.373  69.782  1.00  0.00    -0.320 C  
HETATM    2  N   UNL     1     -10.511  14.817  69.543  1.00  0.00    -0.193 N  
HETATM    3 CL   UNL     1      -8.594  17.343  68.035  1.00  0.00    -0.233 Cl 
HETATM    4  C   UNL     1     -10.109  16.111  69.900  1.00  0.00    -0.074 C  
HETATM    5 CL   UNL     1      -8.038  17.588  70.889  1.00  0.00     5.422 Cl 
HETATM    6  C   UNL     1      -8.651  16.513  69.607  1.00  0.00     0.498 C  
HETATM    7  O   UNL     1     -10.907  16.898  70.420  1.00  0.00    -0.071 OA 
ENDROOT
BRANCH   2   8
HETATM    8  C   UNL     1      -9.642  13.885  68.941  1.00  0.00     0.028 A  
HETATM    9  C   UNL     1      -9.897  13.442  67.640  1.00  0.00    -0.226 A  
HETATM   10  C   UNL     1      -9.140  12.397  67.111  1.00  0.00    -0.199 A  
HETATM   11  C   UNL     1      -8.126  11.816  67.877  1.00  0.00    -0.144 A  
HETATM   12  C   UNL     1      -8.607  13.324  69.693  1.00  0.00     1.736 A  
HETATM   13  C   UNL     1      -7.854  12.275  69.165  1.00  0.00     0.318 A  
BRANCH  11  14
HETATM   14  O   UNL     1      -7.499  10.690  67.301  1.00  0.00    -0.095 OA 
BRANCH  14  15
HETATM   15  C   UNL     1      -6.567   9.901  67.982  1.00  0.00    -0.060 C  
HETATM   16  O   UNL     1      -5.540   9.440  67.500  1.00  0.00    -0.037 OA 
BRANCH  15  17
HETATM   17  C   UNL     1      -7.000   9.703  69.346  1.00  0.00    -0.056 A  
HETATM   18  C   UNL     1      -8.185   9.194  69.848  1.00  0.00    -0.137 A  
HETATM   19  C   UNL     1      -8.085   9.232  71.259  1.00  0.00     0.043 A  
HETATM   20  C   UNL     1      -6.844   9.754  71.538  1.00  0.00     0.507 A  
HETATM   21  O   UNL     1      -6.178  10.041  70.390  1.00  0.00    -0.077 OA 
ENDBRANCH  15  17
ENDBRANCH  14  15
ENDBRANCH  11  14
ENDBRANCH   2   8
TORSDOF 4
ENDMDL
MODEL      257
REMARK 921   NORMALIZED FREE ENERGY PREDICTED BY IDOCK:    9.13 KCAL/MOL
REMARK 922        TOTAL FREE ENERGY PREDICTED BY IDOCK:   10.75 KCAL/MOL
REMARK 923 INTER-LIGAND FREE ENERGY PREDICTED BY IDOCK:    9.97 KCAL/MOL
REMARK 924 INTRA-LIGAND FREE ENERGY PREDICTED BY IDOCK:    0.78 KCAL/MOL
REMARK 927      BINDING AFFINITY PREDICTED BY RF-SCORE:    0.00 PKD
ROOT
HETATM    1  C   UNL     1      -6.070  17.208  69.822  1.00  0.00    -0.229 C  
HETATM    2  N   UNL     1      -6.771  15.965  70.114  1.00  0.00     0.048 N  
HETATM    3 CL   UNL     1      -6.357  12.485  70.337  1.00  0.00     0.101 Cl 
HETATM    4  C   UNL     1      -6.278  15.079  71.082  1.00  0.00     0.344 C  
HETATM    5 CL   UNL     1      -6.999  13.335  73.053  1.00  0.00     5.030 Cl 
HETATM    6  C   UNL     1      -7.067  13.780  71.329  1.00  0.00     2.786 C  
HETATM    7  O   UNL     1      -5.239  15.336  71.701  1.00  0.00    -0.128 OA 
ENDROOT
BRANCH   2   8
HETATM    8  C   UNL     1      -7.945  15.715  69.376  1.00  0.00    -0.226 A  
HETATM    9  C   UNL     1      -9.120  16.401  69.694  1.00  0.00     0.288 A  
HETATM   10  C   UNL     1     -10.317  16.030  69.082  1.00  0.00    -0.247 A  
HETATM   11  C   UNL     1     -10.328  14.991  68.147  1.00  0.00    -0.239 A  
HETATM   12  C   UNL     1      -7.952  14.698  68.418  1.00  0.00    -0.137 A  
HETATM   13  C   UNL     1      -9.151  14.324  67.810  1.00  0.00    -0.195 A  
BRANCH  11  14
HETATM   14  O   UNL     1     -11.603  14.612  67.675  1.00  0.00    -0.334 OA 
BRANCH  14  15
HETATM   15  C   UNL     1     -12.443  13.732  68.364  1.00  0.00     0.308 C  
HETATM   16  O   UNL     1     -13.196  12.917  67.846  1.00  0.00     2.158 OA 
BRANCH  15  17
HETATM   17  C   UNL     1     -12.299  13.934  69.786  1.00  0.00    -0.275 A  
HETATM   18  C   UNL     1     -12.606  15.029  70.575  1.00  0.00    -0.420 A  
HETATM   19  C   UNL     1     -12.254  14.692  71.904  1.00  0.00    -0.390 A  
HETATM   20  C   UNL     1     -11.758  13.411  71.853  1.00  0.00     1.899 A  
HETATM   21  O   UNL     1     -11.782  12.941  70.579  1.00  0.00    -0.165 OA 
ENDBRANCH  15  17
ENDBRANCH  14  15
ENDBRANCH  11  14
ENDBRANCH   2   8
TORSDOF 4
ENDMDL
MODEL      258
REMARK 921   NORMALIZED FREE ENERGY PREDICTED BY IDOCK:   10.07 KCAL/MOL
REMARK 922        TOTAL FREE ENERGY PREDICTED BY IDOCK:   11.92 KCAL/MOL
REMARK 923 INTER-LIGAND FREE ENERGY PREDICTED BY IDOCK:   11.27 KCAL/MOL
REMARK 924 INTRA-LIGAND FREE ENERGY PREDICTED BY IDOCK:    0.64 KCAL/MOL
REMARK 927      BINDING AFFINITY PREDICTED BY RF-SCORE:    0.00 PKD
ROOT
HETATM    1  C   UNL     1      -9.362  21.364  70.345  1.00  0.00     4.280 C  
HETATM    2  N   UNL     1      -9.587  20.276  69.404  1.00  0.00     0.271 N  
HETATM    3 CL   UNL     1     -11.578  17.448  68.794  1.00  0.00     0.874 Cl 
HETATM    4  C   UNL     1     -10.862  20.050  68.867  1.00  0.00     0.765 C  
HETATM    5 CL   UNL     1     -12.211  19.288  66.620  1.00  0.00     2.937 Cl 
HETATM    6  C   UNL     1     -11.027  18.874  67.886  1.00  0.00    -0.064 C  
HETATM    7  O   UNL     1     -11.816  20.768  69.186  1.00  0.00     2.688 OA 
ENDROOT
BRANCH   2   8
HETATM    8  C   UNL     1      -8.470  19.481  69.079  1.00  0.00    -0.182 A  
HETATM    9  C   UNL     1      -8.028  19.418  67.755  1.00  0.00    -0.321 A  
HETATM   10  C   UNL     1      -7.036  18.503  67.406  1.00  0.00    -0.208 A  
HETATM   11  C   UNL     1      -6.482  17.672  68.383  1.00  0.00    -0.193 A  
HETATM   12  C   UNL     1      -7.892  18.672  70.060  1.00  0.00     1.298 A  
HETATM   13  C   UNL     1      -6.903  17.753  69.710  1.00  0.00     0.220 A  
BRANCH  11  14
HETATM   14  O   UNL     1      -5.574  16.699  67.911  1.00  0.00    -0.109 OA 
BRANCH  14  15
HETATM   15  C   UNL     1      -5.895  15.343  67.798  1.00  0.00    -0.130 C  
HETATM   16  O   UNL     1      -5.164  14.412  68.111  1.00  0.00    -0.108 OA 
BRANCH  15  17
HETATM   17  C   UNL     1      -7.222  15.201  67.245  1.00  0.00    -0.162 A  
HETATM   18  C   UNL     1      -7.876  15.941  66.275  1.00  0.00     0.164 A  
HETATM   19  C   UNL     1      -9.163  15.374  66.123  1.00  0.00    -0.362 A  
HETATM   20  C   UNL     1      -9.221  14.319  67.001  1.00  0.00    -0.239 A  
HETATM   21  O   UNL     1      -8.052  14.203  67.685  1.00  0.00    -0.151 OA 
ENDBRANCH  15  17
ENDBRANCH  14  15
ENDBRANCH  11  14
ENDBRANCH   2   8
TORSDOF 4
ENDMDL
MODEL      259
REMARK 921   NORMALIZED FREE ENERGY PREDICTED BY IDOCK:   10.96 KCAL/MOL
REMARK 922        TOTAL FREE ENERGY PREDICTED BY IDOCK:   13.02 KCAL/MOL
REMARK 923 INTER-LIGAND FREE ENERGY PREDICTED BY IDOCK:   12.82 KCAL/MOL
REMARK 924 INTRA-LIGAND FREE ENERGY PREDICTED BY IDOCK:    0.20 KCAL/MOL
REMARK 927      BINDING AFFINITY PREDICTED BY RF-SCORE:    0.00 PKD
ROOT
HETATM    1  C   UNL     1      -9.365  21.365  70.339  1.00  0.00     4.280 C  
HETATM    2  N   UNL     1      -9.603  20.292  69.383  1.00  0.00     0.271 N  
HETATM    3 CL   UNL     1     -11.585  17.460  68.765  1.00  0.00     0.874 Cl 
HETATM    4  C   UNL     1     -10.888  20.067  68.870  1.00  0.00     0.765 C  
HETATM    5 CL   UNL     1     -12.280  19.335  66.639  1.00  0.00     2.937 Cl 
HETATM    6  C   UNL     1     -11.065  18.908  67.871  1.00  0.00     0.122 C  
HETATM    7  O   UNL     1     -11.840  20.771  69.223  1.00  0.00     2.675 OA 
ENDROOT
BRANCH   2   8
HETATM    8  C   UNL     1      -8.487  19.513  69.019  1.00  0.00    -0.182 A  
HETATM    9  C   UNL     1      -8.052  19.506  67.691  1.00  0.00    -0.323 A  
HETATM   10  C   UNL     1      -7.062  18.607  67.299  1.00  0.00    -0.210 A  
HETATM   11  C   UNL     1      -6.502  17.736  68.237  1.00  0.00    -0.191 A  
HETATM   12  C   UNL     1      -7.904  18.663  69.962  1.00  0.00     1.298 A  
HETATM   13  C   UNL     1      -6.916  17.760  69.568  1.00  0.00     0.020 A  
BRANCH  11  14
HETATM   14  O   UNL     1      -5.596  16.785  67.719  1.00  0.00    -0.113 OA 
BRANCH  14  15
HETATM   15  C   UNL     1      -5.928  15.441  67.520  1.00  0.00    -0.044 C  
HETATM   16  O   UNL     1      -6.347  14.960  66.475  1.00  0.00     1.169 OA 
BRANCH  15  17
HETATM   17  C   UNL     1      -5.709  14.700  68.740  1.00  0.00    -0.086 A  
HETATM   18  C   UNL     1      -5.216  15.111  69.966  1.00  0.00    -0.105 A  
HETATM   19  C   UNL     1      -5.202  13.974  70.808  1.00  0.00    -0.124 A  
HETATM   20  C   UNL     1      -5.693  12.936  70.053  1.00  0.00    -0.137 A  
HETATM   21  O   UNL     1      -6.004  13.362  68.801  1.00  0.00    -0.077 OA 
ENDBRANCH  15  17
ENDBRANCH  14  15
ENDBRANCH  11  14
ENDBRANCH   2   8
TORSDOF 4
ENDMDL
MODEL      260
REMARK 921   NORMALIZED FREE ENERGY PREDICTED BY IDOCK:   21.11 KCAL/MOL
REMARK 922        TOTAL FREE ENERGY PREDICTED BY IDOCK:   25.53 KCAL/MOL
REMARK 923 INTER-LIGAND FREE ENERGY PREDICTED BY IDOCK:   16.80 KCAL/MOL
REMARK 924 INTRA-LIGAND FREE ENERGY PREDICTED BY IDOCK:    8.74 KCAL/MOL
REMARK 927      BINDING AFFINITY PREDICTED BY RF-SCORE:    0.00 PKD
ROOT
HETATM    1  C   UNL     1     -10.968  16.901  68.979  1.00  0.00    -0.179 C  
HETATM    2  N   UNL     1     -11.281  16.682  70.384  1.00  0.00    -0.130 N  
HETATM    3 CL   UNL     1      -9.860  16.499  73.590  1.00  0.00    10.219 Cl 
HETATM    4  C   UNL     1     -10.888  17.613  71.356  1.00  0.00     2.309 C  
HETATM    5 CL   UNL     1     -11.629  18.817  73.690  1.00  0.00     2.535 Cl 
HETATM    6  C   UNL     1     -11.246  17.309  72.823  1.00  0.00     1.702 C  
HETATM    7  O   UNL     1     -10.267  18.633  71.037  1.00  0.00     1.961 OA 
ENDROOT
BRANCH   2   8
HETATM    8  C   UNL     1     -11.984  15.502  70.697  1.00  0.00    -0.378 A  
HETATM    9  C   UNL     1     -11.900  14.968  71.986  1.00  0.00    -0.462 A  
HETATM   10  C   UNL     1     -12.451  13.714  72.245  1.00  0.00     0.003 A  
HETATM   11  C   UNL     1     -13.096  13.012  71.223  1.00  0.00    -0.179 A  
HETATM   12  C   UNL     1     -12.657  14.813  69.685  1.00  0.00    -0.097 A  
HETATM   13  C   UNL     1     -13.204  13.556  69.944  1.00  0.00     1.076 A  
BRANCH  11  14
HETATM   14  O   UNL     1     -13.514  11.705  71.553  1.00  0.00    -0.142 OA 
BRANCH  14  15
HETATM   15  C   UNL     1     -13.169  10.578  70.801  1.00  0.00    -0.149 C  
HETATM   16  O   UNL     1     -13.489   9.425  71.061  1.00  0.00    -0.258 OA 
BRANCH  15  17
HETATM   17  C   UNL     1     -12.366  10.976  69.668  1.00  0.00    -0.234 A  
HETATM   18  C   UNL     1     -11.729  10.213  68.705  1.00  0.00     0.075 A  
HETATM   19  C   UNL     1     -11.074  11.113  67.832  1.00  0.00    -0.331 A  
HETATM   20  C   UNL     1     -11.352  12.373  68.306  1.00  0.00    -0.284 A  
HETATM   21  O   UNL     1     -12.134  12.304  69.415  1.00  0.00    -0.260 OA 
ENDBRANCH  15  17
ENDBRANCH  14  15
ENDBRANCH  11  14
ENDBRANCH   2   8
TORSDOF 4
ENDMDL
MODEL      261
REMARK 921   NORMALIZED FREE ENERGY PREDICTED BY IDOCK:   58.82 KCAL/MOL
REMARK 922        TOTAL FREE ENERGY PREDICTED BY IDOCK:   72.07 KCAL/MOL
REMARK 923 INTER-LIGAND FREE ENERGY PREDICTED BY IDOCK:   72.61 KCAL/MOL
REMARK 924 INTRA-LIGAND FREE ENERGY PREDICTED BY IDOCK:   -0.54 KCAL/MOL
REMARK 927      BINDING AFFINITY PREDICTED BY RF-SCORE:    0.00 PKD
ROOT
HETATM    1  C   UNL     1     -11.698  18.177  64.598  1.00  0.00     4.235 C  
HETATM    2  N   UNL     1     -10.424  17.506  64.821  1.00  0.00     0.999 N  
HETATM    3 CL   UNL     1      -8.293  15.020  63.552  1.00  0.00    15.807 Cl 
HETATM    4  C   UNL     1      -9.466  17.440  63.800  1.00  0.00    12.176 C  
HETATM    5 CL   UNL     1      -6.788  17.505  63.275  1.00  0.00    10.516 Cl 
HETATM    6  C   UNL     1      -8.147  16.705  64.105  1.00  0.00    11.778 C  
HETATM    7  O   UNL     1      -9.686  17.947  62.694  1.00  0.00    16.599 OA 
ENDROOT
BRANCH   2   8
HETATM    8  C   UNL     1     -10.225  16.939  66.094  1.00  0.00    -0.341 A  
HETATM    9  C   UNL     1     -10.805  15.704  66.400  1.00  0.00    -0.252 A  
HETATM   10  C   UNL     1     -10.752  15.227  67.709  1.00  0.00    -0.286 A  
HETATM   11  C   UNL     1     -10.107  15.976  68.697  1.00  0.00    -0.220 A  
HETATM   12  C   UNL     1      -9.553  17.671  67.076  1.00  0.00    -0.276 A  
HETATM   13  C   UNL     1      -9.505  17.195  68.387  1.00  0.00    -0.276 A  
BRANCH  11  14
HETATM   14  O   UNL     1     -10.211  15.469  70.010  1.00  0.00    -0.301 OA 
BRANCH  14  15
HETATM   15  C   UNL     1     -11.429  15.332  70.683  1.00  0.00    -0.319 C  
HETATM   16  O   UNL     1     -12.149  16.255  71.041  1.00  0.00    -0.295 OA 
BRANCH  15  17
HETATM   17  C   UNL     1     -11.710  13.933  70.903  1.00  0.00     0.011 A  
HETATM   18  C   UNL     1     -10.885  12.825  70.809  1.00  0.00     2.988 A  
HETATM   19  C   UNL     1     -11.677  11.694  71.122  1.00  0.00     0.659 A  
HETATM   20  C   UNL     1     -12.935  12.175  71.396  1.00  0.00    -0.257 A  
HETATM   21  O   UNL     1     -12.967  13.527  71.269  1.00  0.00    -0.338 OA 
ENDBRANCH  15  17
ENDBRANCH  14  15
ENDBRANCH  11  14
ENDBRANCH   2   8
TORSDOF 4
ENDMDL
