MODEL        1
REMARK 921   NORMALIZED FREE ENERGY PREDICTED BY IDOCK:   -6.92 KCAL/MOL
REMARK 922        TOTAL FREE ENERGY PREDICTED BY IDOCK:  -10.87 KCAL/MOL
REMARK 923 INTER-LIGAND FREE ENERGY PREDICTED BY IDOCK:   -9.75 KCAL/MOL
REMARK 924 INTRA-LIGAND FREE ENERGY PREDICTED BY IDOCK:   -1.11 KCAL/MOL
REMARK 927      BINDING AFFINITY PREDICTED BY RF-SCORE:    0.00 PKD
ROOT
HETATM    1  C   UNL     1     -10.496   7.579  73.282  1.00  0.00    -0.371 C  
HETATM    2  O   UNL     1     -11.677   8.303  72.933  1.00  0.00    -0.348 OA 
ENDROOT
BRANCH   2   3
HETATM    3  C   UNL     1     -11.607   9.064  71.798  1.00  0.00    -0.374 A  
HETATM    4  C   UNL     1     -12.625   9.868  71.315  1.00  0.00    -0.480 A  
HETATM    5  C   UNL     1     -12.456  10.575  70.121  1.00  0.00    -0.297 A  
HETATM    6  C   UNL     1     -11.270  10.517  69.360  1.00  0.00    -0.327 A  
HETATM    7  C   UNL     1     -10.403   9.018  71.093  1.00  0.00    -0.362 A  
HETATM    8  C   UNL     1     -10.230   9.735  69.892  1.00  0.00    -0.291 A  
BRANCH   6   9
HETATM    9  C   UNL     1     -11.081  11.311  68.041  1.00  0.00    -0.266 C  
HETATM   10  S   UNL     1      -9.297  11.391  67.568  1.00  0.00    -0.166 SA 
HETATM   11  C   UNL     1      -9.583  11.452  65.839  1.00  0.00    -0.227 A  
HETATM   12  C   UNL     1     -10.090  12.604  65.215  1.00  0.00    -0.253 A  
HETATM   13  C   UNL     1     -10.295  12.558  63.838  1.00  0.00    -0.436 A  
HETATM   14  N   UNL     1     -10.450  13.757  66.009  1.00  0.00    -0.291 N  
HETATM   15  C   UNL     1      -9.325  10.275  65.115  1.00  0.00    -0.279 A  
HETATM   16  C   UNL     1     -10.048  11.372  63.115  1.00  0.00    -0.390 A  
HETATM   17  C   UNL     1     -11.637  13.624  66.758  1.00  0.00    -0.364 C  
HETATM   18  O   UNL     1     -12.627  14.315  66.481  1.00  0.00    -0.360 OA 
HETATM   19  C   UNL     1      -9.570  10.230  63.753  1.00  0.00    -0.344 A  
HETATM   20  C   UNL     1     -11.642  12.756  68.060  1.00  0.00    -0.341 C  
BRANCH  14  21
HETATM   21  C   UNL     1     -10.220  15.087  65.369  1.00  0.00    -0.381 C  
BRANCH  21  22
HETATM   22  C   UNL     1      -9.235  15.980  66.187  1.00  0.00    -0.352 C  
BRANCH  22  23
HETATM   23  N   UNL     1      -9.168  17.424  65.840  1.00  0.00    -0.523 NA 
HETATM   24  C   UNL     1      -7.902  17.992  66.333  1.00  0.00    -0.269 C  
HETATM   25  C   UNL     1     -10.277  18.201  66.395  1.00  0.00    -0.399 C  
ENDBRANCH  22  23
ENDBRANCH  21  22
ENDBRANCH  14  21
BRANCH  20  26
HETATM   26  O   UNL     1     -10.910  13.466  69.079  1.00  0.00    -0.245 OA 
BRANCH  26  27
HETATM   27  C   UNL     1     -11.497  14.575  69.580  1.00  0.00    -0.288 C  
HETATM   28  C   UNL     1     -12.439  14.175  70.671  1.00  0.00    -0.432 C  
HETATM   29  O   UNL     1     -11.325  15.717  69.187  1.00  0.00    -0.300 OA 
ENDBRANCH  26  27
ENDBRANCH  20  26
ENDBRANCH   6   9
ENDBRANCH   2   3
TORSDOF 7
ENDMDL
MODEL        2
REMARK 921   NORMALIZED FREE ENERGY PREDICTED BY IDOCK:   -6.55 KCAL/MOL
REMARK 922        TOTAL FREE ENERGY PREDICTED BY IDOCK:  -10.35 KCAL/MOL
REMARK 923 INTER-LIGAND FREE ENERGY PREDICTED BY IDOCK:   -9.08 KCAL/MOL
REMARK 924 INTRA-LIGAND FREE ENERGY PREDICTED BY IDOCK:   -1.27 KCAL/MOL
REMARK 927      BINDING AFFINITY PREDICTED BY RF-SCORE:    0.00 PKD
ROOT
HETATM    1  C   UNL     1     -10.299   4.749  74.495  1.00  0.00    -0.283 C  
HETATM    2  O   UNL     1     -10.772   4.869  73.153  1.00  0.00    -0.208 OA 
ENDROOT
BRANCH   2   3
HETATM    3  C   UNL     1     -10.781   6.131  72.624  1.00  0.00    -0.229 A  
HETATM    4  C   UNL     1      -9.743   7.042  72.721  1.00  0.00    -0.178 A  
HETATM    5  C   UNL     1      -9.877   8.321  72.171  1.00  0.00    -0.342 A  
HETATM    6  C   UNL     1     -11.043   8.746  71.502  1.00  0.00    -0.377 A  
HETATM    7  C   UNL     1     -11.933   6.504  71.928  1.00  0.00    -0.389 A  
HETATM    8  C   UNL     1     -12.066   7.792  71.370  1.00  0.00    -0.335 A  
BRANCH   6   9
HETATM    9  C   UNL     1     -11.185  10.163  70.886  1.00  0.00    -0.307 C  
HETATM   10  S   UNL     1     -12.961  10.587  70.609  1.00  0.00    -0.180 SA 
HETATM   11  C   UNL     1     -12.760  12.315  70.838  1.00  0.00    -0.187 A  
HETATM   12  C   UNL     1     -12.127  13.118  69.876  1.00  0.00    -0.287 A  
HETATM   13  C   UNL     1     -12.003  14.479  70.148  1.00  0.00    -0.377 A  
HETATM   14  N   UNL     1     -11.565  12.515  68.688  1.00  0.00    -0.292 N  
HETATM   15  C   UNL     1     -13.221  12.846  72.054  1.00  0.00    -0.549 A  
HETATM   16  C   UNL     1     -12.454  15.009  71.375  1.00  0.00    -0.397 A  
HETATM   17  C   UNL     1     -10.371  11.792  68.888  1.00  0.00    -0.128 C  
HETATM   18  O   UNL     1      -9.309  12.199  68.399  1.00  0.00    -0.203 OA 
HETATM   19  C   UNL     1     -13.056  14.193  72.330  1.00  0.00    -0.514 A  
HETATM   20  C   UNL     1     -10.423  10.376  69.553  1.00  0.00    -0.247 C  
BRANCH  14  21
HETATM   21  C   UNL     1     -11.635  13.339  67.443  1.00  0.00    -0.353 C  
BRANCH  21  22
HETATM   22  C   UNL     1     -11.962  12.483  66.180  1.00  0.00    -0.366 C  
BRANCH  22  23
HETATM   23  N   UNL     1     -12.549  13.186  65.008  1.00  0.00    -0.615 NA 
HETATM   24  C   UNL     1     -12.392  12.352  63.804  1.00  0.00    -0.528 C  
HETATM   25  C   UNL     1     -11.939  14.492  64.755  1.00  0.00    -0.442 C  
ENDBRANCH  22  23
ENDBRANCH  21  22
ENDBRANCH  14  21
BRANCH  20  26
HETATM   26  O   UNL     1     -10.991   9.453  68.603  1.00  0.00    -0.150 OA 
BRANCH  26  27
HETATM   27  C   UNL     1     -10.134   8.889  67.723  1.00  0.00    -0.210 C  
HETATM   28  C   UNL     1      -9.187   8.003  68.469  1.00  0.00    -0.135 C  
HETATM   29  O   UNL     1     -10.104   9.092  66.521  1.00  0.00    -0.273 OA 
ENDBRANCH  26  27
ENDBRANCH  20  26
ENDBRANCH   6   9
ENDBRANCH   2   3
TORSDOF 7
ENDMDL
MODEL        3
REMARK 921   NORMALIZED FREE ENERGY PREDICTED BY IDOCK:   -6.50 KCAL/MOL
REMARK 922        TOTAL FREE ENERGY PREDICTED BY IDOCK:  -10.28 KCAL/MOL
REMARK 923 INTER-LIGAND FREE ENERGY PREDICTED BY IDOCK:   -9.02 KCAL/MOL
REMARK 924 INTRA-LIGAND FREE ENERGY PREDICTED BY IDOCK:   -1.26 KCAL/MOL
REMARK 927      BINDING AFFINITY PREDICTED BY RF-SCORE:    0.00 PKD
ROOT
HETATM    1  C   UNL     1      -6.565  21.105  67.344  1.00  0.00    -0.370 C  
HETATM    2  O   UNL     1      -7.967  21.218  67.098  1.00  0.00    -0.222 OA 
ENDROOT
BRANCH   2   3
HETATM    3  C   UNL     1      -8.728  20.129  67.428  1.00  0.00    -0.344 A  
HETATM    4  C   UNL     1      -9.985  19.853  66.918  1.00  0.00    -0.563 A  
HETATM    5  C   UNL     1     -10.689  18.727  67.356  1.00  0.00    -0.487 A  
HETATM    6  C   UNL     1     -10.173  17.827  68.312  1.00  0.00    -0.382 A  
HETATM    7  C   UNL     1      -8.169  19.235  68.343  1.00  0.00    -0.383 A  
HETATM    8  C   UNL     1      -8.876  18.096  68.779  1.00  0.00    -0.227 A  
BRANCH   6   9
HETATM    9  C   UNL     1     -10.952  16.573  68.787  1.00  0.00    -0.330 C  
HETATM   10  S   UNL     1     -10.169  15.841  70.291  1.00  0.00     0.108 SA 
HETATM   11  C   UNL     1     -11.659  15.207  70.966  1.00  0.00    -0.347 A  
HETATM   12  C   UNL     1     -12.304  14.089  70.413  1.00  0.00    -0.359 A  
HETATM   13  C   UNL     1     -13.488  13.662  71.009  1.00  0.00    -0.024 A  
HETATM   14  N   UNL     1     -11.774  13.467  69.219  1.00  0.00    -0.309 N  
HETATM   15  C   UNL     1     -12.202  15.904  72.059  1.00  0.00    -0.570 A  
HETATM   16  C   UNL     1     -14.039  14.370  72.098  1.00  0.00    -0.627 A  
HETATM   17  C   UNL     1     -11.976  14.190  68.026  1.00  0.00    -0.337 C  
HETATM   18  O   UNL     1     -12.723  13.741  67.146  1.00  0.00     0.007 OA 
HETATM   19  C   UNL     1     -13.401  15.494  72.618  1.00  0.00    -0.615 A  
HETATM   20  C   UNL     1     -11.103  15.454  67.725  1.00  0.00    -0.320 C  
BRANCH  14  21
HETATM   21  C   UNL     1     -11.940  11.985  69.128  1.00  0.00    -0.268 C  
BRANCH  21  22
HETATM   22  C   UNL     1     -10.687  11.283  68.516  1.00  0.00    -0.201 C  
BRANCH  22  23
HETATM   23  N   UNL     1     -10.804  10.759  67.129  1.00  0.00    -0.280 NA 
HETATM   24  C   UNL     1     -10.321   9.368  67.085  1.00  0.00    -0.258 C  
HETATM   25  C   UNL     1     -10.051  11.546  66.151  1.00  0.00    -0.229 C  
ENDBRANCH  22  23
ENDBRANCH  21  22
ENDBRANCH  14  21
BRANCH  20  26
HETATM   26  O   UNL     1      -9.769  15.014  67.402  1.00  0.00    -0.214 OA 
BRANCH  26  27
HETATM   27  C   UNL     1      -9.246  15.474  66.244  1.00  0.00    -0.329 C  
HETATM   28  C   UNL     1     -10.272  15.342  65.163  1.00  0.00    -0.374 C  
HETATM   29  O   UNL     1      -8.112  15.894  66.086  1.00  0.00    -0.170 OA 
ENDBRANCH  26  27
ENDBRANCH  20  26
ENDBRANCH   6   9
ENDBRANCH   2   3
TORSDOF 7
ENDMDL
MODEL        4
REMARK 921   NORMALIZED FREE ENERGY PREDICTED BY IDOCK:   -6.07 KCAL/MOL
REMARK 922        TOTAL FREE ENERGY PREDICTED BY IDOCK:   -9.67 KCAL/MOL
REMARK 923 INTER-LIGAND FREE ENERGY PREDICTED BY IDOCK:   -8.53 KCAL/MOL
REMARK 924 INTRA-LIGAND FREE ENERGY PREDICTED BY IDOCK:   -1.14 KCAL/MOL
REMARK 927      BINDING AFFINITY PREDICTED BY RF-SCORE:    0.00 PKD
ROOT
HETATM    1  C   UNL     1      -9.810  20.837  67.120  1.00  0.00    -0.262 C  
HETATM    2  O   UNL     1      -8.870  20.142  66.300  1.00  0.00    -0.309 OA 
ENDROOT
BRANCH   2   3
HETATM    3  C   UNL     1      -8.918  18.775  66.348  1.00  0.00    -0.292 A  
HETATM    4  C   UNL     1      -7.817  17.943  66.442  1.00  0.00    -0.307 A  
HETATM    5  C   UNL     1      -7.983  16.555  66.447  1.00  0.00    -0.352 A  
HETATM    6  C   UNL     1      -9.248  15.937  66.363  1.00  0.00    -0.344 A  
HETATM    7  C   UNL     1     -10.189  18.198  66.308  1.00  0.00    -0.401 A  
HETATM    8  C   UNL     1     -10.357  16.798  66.319  1.00  0.00    -0.316 A  
BRANCH   6   9
HETATM    9  C   UNL     1      -9.430  14.396  66.379  1.00  0.00    -0.285 C  
HETATM   10  S   UNL     1     -11.062  13.917  65.659  1.00  0.00    -0.305 SA 
HETATM   11  C   UNL     1     -10.524  12.369  65.034  1.00  0.00    -0.294 A  
HETATM   12  C   UNL     1     -10.261  11.281  65.882  1.00  0.00    -0.249 A  
HETATM   13  C   UNL     1      -9.828  10.094  65.298  1.00  0.00    -0.388 A  
HETATM   14  N   UNL     1     -10.373  11.439  67.315  1.00  0.00    -0.192 N  
HETATM   15  C   UNL     1     -10.322  12.286  63.646  1.00  0.00    -0.463 A  
HETATM   16  C   UNL     1      -9.613  10.016  63.906  1.00  0.00    -0.217 A  
HETATM   17  C   UNL     1      -9.335  12.178  67.921  1.00  0.00    -0.192 C  
HETATM   18  O   UNL     1      -8.546  11.621  68.694  1.00  0.00    -0.152 OA 
HETATM   19  C   UNL     1      -9.853  11.112  63.081  1.00  0.00    -0.403 A  
HETATM   20  C   UNL     1      -9.304  13.736  67.776  1.00  0.00    -0.213 C  
BRANCH  14  21
HETATM   21  C   UNL     1     -10.854  10.242  68.068  1.00  0.00    -0.275 C  
BRANCH  21  22
HETATM   22  C   UNL     1     -11.897  10.611  69.170  1.00  0.00    -0.215 C  
BRANCH  22  23
HETATM   23  N   UNL     1     -11.466  10.497  70.588  1.00  0.00    -0.336 NA 
HETATM   24  C   UNL     1     -10.538   9.362  70.731  1.00  0.00    -0.303 C  
HETATM   25  C   UNL     1     -12.583  10.307  71.515  1.00  0.00    -0.440 C  
ENDBRANCH  22  23
ENDBRANCH  21  22
ENDBRANCH  14  21
BRANCH  20  26
HETATM   26  O   UNL     1     -10.362  14.286  68.586  1.00  0.00    -0.237 OA 
BRANCH  26  27
HETATM   27  C   UNL     1      -9.992  15.163  69.546  1.00  0.00    -0.201 C  
HETATM   28  C   UNL     1     -11.220  15.700  70.210  1.00  0.00    -0.357 C  
HETATM   29  O   UNL     1      -8.850  15.498  69.809  1.00  0.00    -0.233 OA 
ENDBRANCH  26  27
ENDBRANCH  20  26
ENDBRANCH   6   9
ENDBRANCH   2   3
TORSDOF 7
ENDMDL
MODEL        5
REMARK 921   NORMALIZED FREE ENERGY PREDICTED BY IDOCK:   -5.85 KCAL/MOL
REMARK 922        TOTAL FREE ENERGY PREDICTED BY IDOCK:   -9.36 KCAL/MOL
REMARK 923 INTER-LIGAND FREE ENERGY PREDICTED BY IDOCK:   -8.22 KCAL/MOL
REMARK 924 INTRA-LIGAND FREE ENERGY PREDICTED BY IDOCK:   -1.14 KCAL/MOL
REMARK 927      BINDING AFFINITY PREDICTED BY RF-SCORE:    0.00 PKD
ROOT
HETATM    1  C   UNL     1      -7.982   9.290  62.989  1.00  0.00    -0.146 C  
HETATM    2  O   UNL     1      -8.983   9.143  63.996  1.00  0.00    -0.148 OA 
ENDROOT
BRANCH   2   3
HETATM    3  C   UNL     1      -9.324  10.278  64.681  1.00  0.00    -0.266 A  
HETATM    4  C   UNL     1     -10.439  11.058  64.424  1.00  0.00    -0.422 A  
HETATM    5  C   UNL     1     -10.668  12.221  65.166  1.00  0.00    -0.330 A  
HETATM    6  C   UNL     1      -9.805  12.655  66.193  1.00  0.00    -0.265 A  
HETATM    7  C   UNL     1      -8.472  10.655  65.721  1.00  0.00    -0.179 A  
HETATM    8  C   UNL     1      -8.707  11.824  66.472  1.00  0.00    -0.173 A  
BRANCH   6   9
HETATM    9  C   UNL     1     -10.069  13.940  67.020  1.00  0.00    -0.256 C  
HETATM   10  S   UNL     1      -8.551  14.458  67.937  1.00  0.00    -0.176 SA 
HETATM   11  C   UNL     1      -8.912  16.174  67.907  1.00  0.00    -0.183 A  
HETATM   12  C   UNL     1      -9.925  16.729  68.706  1.00  0.00    -0.269 A  
HETATM   13  C   UNL     1     -10.148  18.101  68.610  1.00  0.00    -0.406 A  
HETATM   14  N   UNL     1     -10.742  15.872  69.535  1.00  0.00    -0.262 N  
HETATM   15  C   UNL     1      -8.169  16.958  67.008  1.00  0.00    -0.228 A  
HETATM   16  C   UNL     1      -9.411  18.885  67.697  1.00  0.00    -0.340 A  
HETATM   17  C   UNL     1     -11.696  15.098  68.842  1.00  0.00    -0.333 C  
HETATM   18  O   UNL     1     -12.905  15.315  68.999  1.00  0.00     0.337 OA 
HETATM   19  C   UNL     1      -8.428  18.314  66.892  1.00  0.00    -0.267 A  
HETATM   20  C   UNL     1     -11.236  13.838  68.035  1.00  0.00    -0.267 C  
BRANCH  14  21
HETATM   21  C   UNL     1     -11.188  16.455  70.836  1.00  0.00    -0.133 C  
BRANCH  21  22
HETATM   22  C   UNL     1     -11.433  15.364  71.926  1.00  0.00    -0.433 C  
BRANCH  22  23
HETATM   23  N   UNL     1     -12.650  15.499  72.770  1.00  0.00    -0.375 NA 
HETATM   24  C   UNL     1     -12.284  15.351  74.189  1.00  0.00    -0.627 C  
HETATM   25  C   UNL     1     -13.685  14.516  72.449  1.00  0.00    -0.480 C  
ENDBRANCH  22  23
ENDBRANCH  21  22
ENDBRANCH  14  21
BRANCH  20  26
HETATM   26  O   UNL     1     -10.873  12.808  68.976  1.00  0.00    -0.225 OA 
BRANCH  26  27
HETATM   27  C   UNL     1     -11.757  11.799  69.136  1.00  0.00    -0.325 C  
HETATM   28  C   UNL     1     -12.278  11.827  70.538  1.00  0.00    -0.438 C  
HETATM   29  O   UNL     1     -12.060  10.970  68.293  1.00  0.00    -0.604 OA 
ENDBRANCH  26  27
ENDBRANCH  20  26
ENDBRANCH   6   9
ENDBRANCH   2   3
TORSDOF 7
ENDMDL
MODEL        6
REMARK 921   NORMALIZED FREE ENERGY PREDICTED BY IDOCK:   -5.80 KCAL/MOL
REMARK 922        TOTAL FREE ENERGY PREDICTED BY IDOCK:   -9.29 KCAL/MOL
REMARK 923 INTER-LIGAND FREE ENERGY PREDICTED BY IDOCK:   -7.84 KCAL/MOL
REMARK 924 INTRA-LIGAND FREE ENERGY PREDICTED BY IDOCK:   -1.45 KCAL/MOL
REMARK 927      BINDING AFFINITY PREDICTED BY RF-SCORE:    0.00 PKD
ROOT
HETATM    1  C   UNL     1      -8.174   3.316  65.596  1.00  0.00    -0.098 C  
HETATM    2  O   UNL     1      -8.936   3.810  66.697  1.00  0.00    -0.122 OA 
ENDROOT
BRANCH   2   3
HETATM    3  C   UNL     1      -9.263   5.139  66.659  1.00  0.00    -0.129 A  
HETATM    4  C   UNL     1      -8.415   6.157  66.258  1.00  0.00    -0.132 A  
HETATM    5  C   UNL     1      -8.846   7.486  66.295  1.00  0.00    -0.184 A  
HETATM    6  C   UNL     1     -10.135   7.860  66.727  1.00  0.00    -0.352 A  
HETATM    7  C   UNL     1     -10.563   5.469  67.051  1.00  0.00    -0.332 A  
HETATM    8  C   UNL     1     -10.998   6.809  67.083  1.00  0.00    -0.458 A  
BRANCH   6   9
HETATM    9  C   UNL     1     -10.613   9.335  66.758  1.00  0.00    -0.137 C  
HETATM   10  S   UNL     1      -9.400  10.440  65.910  1.00  0.00    -0.194 SA 
HETATM   11  C   UNL     1     -10.588  11.609  65.364  1.00  0.00    -0.280 A  
HETATM   12  C   UNL     1     -11.207  12.503  66.253  1.00  0.00    -0.315 A  
HETATM   13  C   UNL     1     -12.146  13.389  65.731  1.00  0.00    -0.481 A  
HETATM   14  N   UNL     1     -10.916  12.432  67.668  1.00  0.00    -0.227 N  
HETATM   15  C   UNL     1     -10.925  11.574  64.000  1.00  0.00    -0.454 A  
HETATM   16  C   UNL     1     -12.494  13.345  64.365  1.00  0.00    -0.338 A  
HETATM   17  C   UNL     1     -11.493  11.338  68.345  1.00  0.00    -0.307 C  
HETATM   18  O   UNL     1     -12.373  11.528  69.195  1.00  0.00    -0.309 OA 
HETATM   19  C   UNL     1     -11.890  12.434  63.501  1.00  0.00    -0.605 A  
HETATM   20  C   UNL     1     -10.883   9.907  68.173  1.00  0.00    -0.234 C  
BRANCH  14  21
HETATM   21  C   UNL     1     -10.916  13.734  68.399  1.00  0.00    -0.254 C  
BRANCH  21  22
HETATM   22  C   UNL     1      -9.541  14.469  68.308  1.00  0.00    -0.212 C  
BRANCH  22  23
HETATM   23  N   UNL     1      -9.524  15.817  67.681  1.00  0.00    -0.217 NA 
HETATM   24  C   UNL     1     -10.795  16.507  67.961  1.00  0.00    -0.337 C  
HETATM   25  C   UNL     1      -9.324  15.775  66.232  1.00  0.00    -0.325 C  
ENDBRANCH  22  23
ENDBRANCH  21  22
ENDBRANCH  14  21
BRANCH  20  26
HETATM   26  O   UNL     1      -9.626   9.865  68.878  1.00  0.00    -0.159 OA 
BRANCH  26  27
HETATM   27  C   UNL     1      -9.631   9.253  70.082  1.00  0.00    -0.220 C  
HETATM   28  C   UNL     1      -8.620   8.150  70.070  1.00  0.00    -0.129 C  
HETATM   29  O   UNL     1     -10.363   9.521  71.021  1.00  0.00    -0.298 OA 
ENDBRANCH  26  27
ENDBRANCH  20  26
ENDBRANCH   6   9
ENDBRANCH   2   3
TORSDOF 7
ENDMDL
MODEL        7
REMARK 921   NORMALIZED FREE ENERGY PREDICTED BY IDOCK:   -5.80 KCAL/MOL
REMARK 922        TOTAL FREE ENERGY PREDICTED BY IDOCK:   -9.28 KCAL/MOL
REMARK 923 INTER-LIGAND FREE ENERGY PREDICTED BY IDOCK:   -8.21 KCAL/MOL
REMARK 924 INTRA-LIGAND FREE ENERGY PREDICTED BY IDOCK:   -1.07 KCAL/MOL
REMARK 927      BINDING AFFINITY PREDICTED BY RF-SCORE:    0.00 PKD
ROOT
HETATM    1  C   UNL     1     -10.552   6.640  73.396  1.00  0.00    -0.309 C  
HETATM    2  O   UNL     1     -10.244   8.029  73.270  1.00  0.00    -0.304 OA 
ENDROOT
BRANCH   2   3
HETATM    3  C   UNL     1     -10.154   8.516  71.994  1.00  0.00    -0.316 A  
HETATM    4  C   UNL     1      -8.986   8.600  71.255  1.00  0.00    -0.268 A  
HETATM    5  C   UNL     1      -9.006   9.151  69.970  1.00  0.00    -0.201 A  
HETATM    6  C   UNL     1     -10.184   9.635  69.365  1.00  0.00    -0.220 A  
HETATM    7  C   UNL     1     -11.346   8.945  71.407  1.00  0.00    -0.380 A  
HETATM    8  C   UNL     1     -11.367   9.495  70.110  1.00  0.00    -0.241 A  
BRANCH   6   9
HETATM    9  C   UNL     1     -10.204  10.236  67.935  1.00  0.00    -0.183 C  
HETATM   10  S   UNL     1      -8.506  10.734  67.404  1.00  0.00    -0.120 SA 
HETATM   11  C   UNL     1      -8.772  10.446  65.694  1.00  0.00    -0.171 A  
HETATM   12  C   UNL     1      -9.571  11.300  64.916  1.00  0.00    -0.232 A  
HETATM   13  C   UNL     1      -9.733  10.986  63.569  1.00  0.00    -0.375 A  
HETATM   14  N   UNL     1     -10.249  12.416  65.536  1.00  0.00    -0.270 N  
HETATM   15  C   UNL     1      -8.184   9.290  65.152  1.00  0.00    -0.143 A  
HETATM   16  C   UNL     1      -9.155   9.818  63.029  1.00  0.00    -0.271 A  
HETATM   17  C   UNL     1     -11.364  12.076  66.330  1.00  0.00    -0.357 C  
HETATM   18  O   UNL     1     -12.502  12.414  65.979  1.00  0.00    -0.551 OA 
HETATM   19  C   UNL     1      -8.387   8.967  63.821  1.00  0.00    -0.178 A  
HETATM   20  C   UNL     1     -11.146  11.453  67.749  1.00  0.00    -0.265 C  
BRANCH  14  21
HETATM   21  C   UNL     1     -10.390  13.642  64.693  1.00  0.00    -0.384 C  
BRANCH  21  22
HETATM   22  C   UNL     1      -9.917  14.932  65.435  1.00  0.00    -0.332 C  
BRANCH  22  23
HETATM   23  N   UNL     1     -10.435  16.236  64.941  1.00  0.00    -0.608 NA 
HETATM   24  C   UNL     1     -10.468  17.204  66.050  1.00  0.00    -0.266 C  
HETATM   25  C   UNL     1     -11.776  16.140  64.363  1.00  0.00    -0.059 C  
ENDBRANCH  22  23
ENDBRANCH  21  22
ENDBRANCH  14  21
BRANCH  20  26
HETATM   26  O   UNL     1     -10.657  12.488  68.625  1.00  0.00    -0.228 OA 
BRANCH  26  27
HETATM   27  C   UNL     1     -11.582  13.138  69.366  1.00  0.00    -0.300 C  
HETATM   28  C   UNL     1     -11.682  14.551  68.886  1.00  0.00    -0.354 C  
HETATM   29  O   UNL     1     -12.210  12.669  70.300  1.00  0.00    -0.331 OA 
ENDBRANCH  26  27
ENDBRANCH  20  26
ENDBRANCH   6   9
ENDBRANCH   2   3
TORSDOF 7
ENDMDL
MODEL        8
REMARK 921   NORMALIZED FREE ENERGY PREDICTED BY IDOCK:   -5.76 KCAL/MOL
REMARK 922        TOTAL FREE ENERGY PREDICTED BY IDOCK:   -9.23 KCAL/MOL
REMARK 923 INTER-LIGAND FREE ENERGY PREDICTED BY IDOCK:   -8.10 KCAL/MOL
REMARK 924 INTRA-LIGAND FREE ENERGY PREDICTED BY IDOCK:   -1.13 KCAL/MOL
REMARK 927      BINDING AFFINITY PREDICTED BY RF-SCORE:    0.00 PKD
ROOT
HETATM    1  C   UNL     1     -11.135   6.990  72.734  1.00  0.00    -0.284 C  
HETATM    2  O   UNL     1     -12.162   7.980  72.681  1.00  0.00    -0.293 OA 
ENDROOT
BRANCH   2   3
HETATM    3  C   UNL     1     -11.957   9.019  71.814  1.00  0.00    -0.368 A  
HETATM    4  C   UNL     1     -10.837   9.181  71.016  1.00  0.00    -0.362 A  
HETATM    5  C   UNL     1     -10.718  10.304  70.192  1.00  0.00    -0.334 A  
HETATM    6  C   UNL     1     -11.705  11.309  70.123  1.00  0.00    -0.429 A  
HETATM    7  C   UNL     1     -12.974   9.972  71.737  1.00  0.00    -0.560 A  
HETATM    8  C   UNL     1     -12.857  11.102  70.902  1.00  0.00    -0.374 A  
BRANCH   6   9
HETATM    9  C   UNL     1     -11.574  12.549  69.200  1.00  0.00    -0.320 C  
HETATM   10  S   UNL     1      -9.818  12.813  68.694  1.00  0.00     0.016 SA 
HETATM   11  C   UNL     1     -10.195  13.531  67.140  1.00  0.00    -0.247 A  
HETATM   12  C   UNL     1     -10.716  14.831  67.033  1.00  0.00    -0.300 A  
HETATM   13  C   UNL     1     -10.995  15.316  65.758  1.00  0.00    -0.340 A  
HETATM   14  N   UNL     1     -11.012  15.590  68.228  1.00  0.00    -0.291 N  
HETATM   15  C   UNL     1      -9.996  12.723  66.007  1.00  0.00    -0.277 A  
HETATM   16  C   UNL     1     -10.807  14.499  64.623  1.00  0.00    -0.351 A  
HETATM   17  C   UNL     1     -12.160  15.174  68.934  1.00  0.00    -0.194 C  
HETATM   18  O   UNL     1     -13.151  15.913  68.999  1.00  0.00     0.870 OA 
HETATM   19  C   UNL     1     -10.315  13.202  64.748  1.00  0.00    -0.369 A  
HETATM   20  C   UNL     1     -12.110  13.873  69.803  1.00  0.00    -0.345 C  
BRANCH  14  21
HETATM   21  C   UNL     1     -10.795  17.065  68.134  1.00  0.00    -0.338 C  
BRANCH  21  22
HETATM   22  C   UNL     1      -9.321  17.472  68.450  1.00  0.00    -0.287 C  
BRANCH  22  23
HETATM   23  N   UNL     1      -9.040  18.915  68.671  1.00  0.00    -0.349 NA 
HETATM   24  C   UNL     1     -10.249  19.703  68.377  1.00  0.00    -0.441 C  
HETATM   25  C   UNL     1      -7.941  19.420  67.847  1.00  0.00    -0.300 C  
ENDBRANCH  22  23
ENDBRANCH  21  22
ENDBRANCH  14  21
BRANCH  20  26
HETATM   26  O   UNL     1     -11.312  14.143  70.973  1.00  0.00     0.040 OA 
BRANCH  26  27
HETATM   27  C   UNL     1     -11.875  14.927  71.918  1.00  0.00    -0.344 C  
HETATM   28  C   UNL     1     -13.081  14.233  72.469  1.00  0.00    -0.550 C  
HETATM   29  O   UNL     1     -11.494  16.037  72.249  1.00  0.00    -0.380 OA 
ENDBRANCH  26  27
ENDBRANCH  20  26
ENDBRANCH   6   9
ENDBRANCH   2   3
TORSDOF 7
ENDMDL
MODEL        9
REMARK 921   NORMALIZED FREE ENERGY PREDICTED BY IDOCK:   -5.75 KCAL/MOL
REMARK 922        TOTAL FREE ENERGY PREDICTED BY IDOCK:   -9.21 KCAL/MOL
REMARK 923 INTER-LIGAND FREE ENERGY PREDICTED BY IDOCK:   -8.01 KCAL/MOL
REMARK 924 INTRA-LIGAND FREE ENERGY PREDICTED BY IDOCK:   -1.21 KCAL/MOL
REMARK 927      BINDING AFFINITY PREDICTED BY RF-SCORE:    0.00 PKD
ROOT
HETATM    1  C   UNL     1      -6.469  21.119  67.485  1.00  0.00    -0.362 C  
HETATM    2  O   UNL     1      -7.841  20.947  67.132  1.00  0.00    -0.300 OA 
ENDROOT
BRANCH   2   3
HETATM    3  C   UNL     1      -8.263  19.656  66.955  1.00  0.00    -0.294 A  
HETATM    4  C   UNL     1      -9.495  19.161  67.345  1.00  0.00    -0.362 A  
HETATM    5  C   UNL     1      -9.805  17.812  67.146  1.00  0.00    -0.311 A  
HETATM    6  C   UNL     1      -8.908  16.902  66.549  1.00  0.00    -0.305 A  
HETATM    7  C   UNL     1      -7.367  18.793  66.320  1.00  0.00    -0.282 A  
HETATM    8  C   UNL     1      -7.683  17.435  66.114  1.00  0.00    -0.311 A  
BRANCH   6   9
HETATM    9  C   UNL     1      -9.259  15.409  66.321  1.00  0.00    -0.319 C  
HETATM   10  S   UNL     1     -11.036  15.082  66.707  1.00  0.00    -0.320 SA 
HETATM   11  C   UNL     1     -11.224  13.779  65.548  1.00  0.00    -0.299 A  
HETATM   12  C   UNL     1     -10.653  12.513  65.760  1.00  0.00    -0.270 A  
HETATM   13  C   UNL     1     -10.847  11.543  64.780  1.00  0.00    -0.360 A  
HETATM   14  N   UNL     1      -9.835  12.277  66.928  1.00  0.00    -0.206 N  
HETATM   15  C   UNL     1     -11.934  14.079  64.373  1.00  0.00    -0.480 A  
HETATM   16  C   UNL     1     -11.548  11.850  63.595  1.00  0.00    -0.559 A  
HETATM   17  C   UNL     1      -8.553  12.863  66.893  1.00  0.00    -0.127 C  
HETATM   18  O   UNL     1      -7.544  12.147  66.839  1.00  0.00    -0.122 OA 
HETATM   19  C   UNL     1     -12.085  13.118  63.388  1.00  0.00    -0.558 A  
HETATM   20  C   UNL     1      -8.396  14.402  67.124  1.00  0.00    -0.191 C  
BRANCH  14  21
HETATM   21  C   UNL     1      -9.916  10.905  67.514  1.00  0.00    -0.174 C  
BRANCH  21  22
HETATM   22  C   UNL     1      -9.994  10.926  69.073  1.00  0.00    -0.191 C  
BRANCH  22  23
HETATM   23  N   UNL     1     -10.771   9.845  69.736  1.00  0.00    -0.248 NA 
HETATM   24  C   UNL     1     -11.776  10.440  70.633  1.00  0.00    -0.351 C  
HETATM   25  C   UNL     1      -9.935   8.929  70.513  1.00  0.00    -0.201 C  
ENDBRANCH  22  23
ENDBRANCH  21  22
ENDBRANCH  14  21
BRANCH  20  26
HETATM   26  O   UNL     1      -8.639  14.676  68.519  1.00  0.00    -0.159 OA 
BRANCH  26  27
HETATM   27  C   UNL     1      -7.549  14.792  69.309  1.00  0.00    -0.144 C  
HETATM   28  C   UNL     1      -7.186  16.239  69.426  1.00  0.00    -0.192 C  
HETATM   29  O   UNL     1      -6.930  13.872  69.817  1.00  0.00    -0.008 OA 
ENDBRANCH  26  27
ENDBRANCH  20  26
ENDBRANCH   6   9
ENDBRANCH   2   3
TORSDOF 7
ENDMDL
MODEL       10
REMARK 921   NORMALIZED FREE ENERGY PREDICTED BY IDOCK:   -5.67 KCAL/MOL
REMARK 922        TOTAL FREE ENERGY PREDICTED BY IDOCK:   -9.10 KCAL/MOL
REMARK 923 INTER-LIGAND FREE ENERGY PREDICTED BY IDOCK:   -8.29 KCAL/MOL
REMARK 924 INTRA-LIGAND FREE ENERGY PREDICTED BY IDOCK:   -0.81 KCAL/MOL
REMARK 927      BINDING AFFINITY PREDICTED BY RF-SCORE:    0.00 PKD
ROOT
HETATM    1  C   UNL     1     -13.471  15.838  73.032  1.00  0.00    -0.583 C  
HETATM    2  O   UNL     1     -13.819  14.454  73.004  1.00  0.00    -0.553 OA 
ENDROOT
BRANCH   2   3
HETATM    3  C   UNL     1     -13.224  13.701  72.027  1.00  0.00    -0.434 A  
HETATM    4  C   UNL     1     -12.548  14.208  70.932  1.00  0.00    -0.433 A  
HETATM    5  C   UNL     1     -12.010  13.342  69.975  1.00  0.00    -0.399 A  
HETATM    6  C   UNL     1     -12.117  11.939  70.069  1.00  0.00    -0.366 A  
HETATM    7  C   UNL     1     -13.310  12.315  72.175  1.00  0.00    -0.473 A  
HETATM    8  C   UNL     1     -12.763  11.442  71.213  1.00  0.00    -0.498 A  
BRANCH   6   9
HETATM    9  C   UNL     1     -11.510  10.980  69.011  1.00  0.00    -0.299 C  
HETATM   10  S   UNL     1     -10.041  10.091  69.692  1.00  0.00    -0.241 SA 
HETATM   11  C   UNL     1     -10.259   8.642  68.727  1.00  0.00    -0.207 A  
HETATM   12  C   UNL     1      -9.985   8.623  67.350  1.00  0.00    -0.210 A  
HETATM   13  C   UNL     1     -10.197   7.430  66.664  1.00  0.00    -0.247 A  
HETATM   14  N   UNL     1      -9.569   9.835  66.680  1.00  0.00    -0.177 N  
HETATM   15  C   UNL     1     -10.768   7.513  69.393  1.00  0.00    -0.200 A  
HETATM   16  C   UNL     1     -10.721   6.302  67.330  1.00  0.00    -0.424 A  
HETATM   17  C   UNL     1     -10.588  10.788  66.477  1.00  0.00    -0.218 C  
HETATM   18  O   UNL     1     -10.970  11.054  65.330  1.00  0.00    -0.161 OA 
HETATM   19  C   UNL     1     -11.013   6.345  68.691  1.00  0.00    -0.404 A  
HETATM   20  C   UNL     1     -11.093  11.655  67.679  1.00  0.00    -0.255 C  
BRANCH  14  21
HETATM   21  C   UNL     1      -8.598   9.660  65.559  1.00  0.00    -0.147 C  
BRANCH  21  22
HETATM   22  C   UNL     1      -7.117   9.843  66.018  1.00  0.00    -0.105 C  
BRANCH  22  23
HETATM   23  N   UNL     1      -6.879  10.593  67.280  1.00  0.00    -0.077 NA 
HETATM   24  C   UNL     1      -5.937  11.696  67.027  1.00  0.00    -0.138 C  
HETATM   25  C   UNL     1      -6.342   9.756  68.354  1.00  0.00    -0.054 C  
ENDBRANCH  22  23
ENDBRANCH  21  22
ENDBRANCH  14  21
BRANCH  20  26
HETATM   26  O   UNL     1     -10.066  12.612  68.007  1.00  0.00    -0.215 OA 
BRANCH  26  27
HETATM   27  C   UNL     1      -9.996  13.713  67.227  1.00  0.00    -0.240 C  
HETATM   28  C   UNL     1      -8.586  14.211  67.216  1.00  0.00    -0.231 C  
HETATM   29  O   UNL     1     -10.932  14.245  66.653  1.00  0.00    -0.301 OA 
ENDBRANCH  26  27
ENDBRANCH  20  26
ENDBRANCH   6   9
ENDBRANCH   2   3
TORSDOF 7
ENDMDL
MODEL       11
REMARK 921   NORMALIZED FREE ENERGY PREDICTED BY IDOCK:   -5.63 KCAL/MOL
REMARK 922        TOTAL FREE ENERGY PREDICTED BY IDOCK:   -9.04 KCAL/MOL
REMARK 923 INTER-LIGAND FREE ENERGY PREDICTED BY IDOCK:   -8.06 KCAL/MOL
REMARK 924 INTRA-LIGAND FREE ENERGY PREDICTED BY IDOCK:   -0.99 KCAL/MOL
REMARK 927      BINDING AFFINITY PREDICTED BY RF-SCORE:    0.00 PKD
ROOT
HETATM    1  C   UNL     1      -9.835   7.051  71.857  1.00  0.00    -0.163 C  
HETATM    2  O   UNL     1      -9.757   8.447  72.144  1.00  0.00    -0.241 OA 
ENDROOT
BRANCH   2   3
HETATM    3  C   UNL     1      -9.914   9.294  71.080  1.00  0.00    -0.293 A  
HETATM    4  C   UNL     1      -8.954   9.546  70.115  1.00  0.00    -0.269 A  
HETATM    5  C   UNL     1      -9.212  10.460  69.089  1.00  0.00    -0.202 A  
HETATM    6  C   UNL     1     -10.432  11.158  68.977  1.00  0.00    -0.233 A  
HETATM    7  C   UNL     1     -11.150   9.934  70.974  1.00  0.00    -0.401 A  
HETATM    8  C   UNL     1     -11.412  10.851  69.936  1.00  0.00    -0.402 A  
BRANCH   6   9
HETATM    9  C   UNL     1     -10.719  12.165  67.832  1.00  0.00    -0.207 C  
HETATM   10  S   UNL     1      -9.443  12.033  66.502  1.00  0.00    -0.231 SA 
HETATM   11  C   UNL     1     -10.514  12.502  65.194  1.00  0.00    -0.293 A  
HETATM   12  C   UNL     1     -10.948  13.828  65.035  1.00  0.00    -0.357 A  
HETATM   13  C   UNL     1     -11.805  14.105  63.973  1.00  0.00    -0.301 A  
HETATM   14  N   UNL     1     -10.564  14.834  65.999  1.00  0.00    -0.300 N  
HETATM   15  C   UNL     1     -10.953  11.475  64.341  1.00  0.00    -0.390 A  
HETATM   16  C   UNL     1     -12.257  13.072  63.126  1.00  0.00    -0.305 A  
HETATM   17  C   UNL     1     -11.221  14.755  67.245  1.00  0.00    -0.346 C  
HETATM   18  O   UNL     1     -12.005  15.648  67.591  1.00  0.00     0.008 OA 
HETATM   19  C   UNL     1     -11.837  11.757  63.313  1.00  0.00    -0.342 A  
HETATM   20  C   UNL     1     -10.808  13.649  68.272  1.00  0.00    -0.251 C  
BRANCH  14  21
HETATM   21  C   UNL     1     -10.347  16.209  65.455  1.00  0.00    -0.367 C  
BRANCH  21  22
HETATM   22  C   UNL     1      -9.030  16.858  65.985  1.00  0.00    -0.163 C  
BRANCH  22  23
HETATM   23  N   UNL     1      -8.979  18.342  66.062  1.00  0.00    -0.494 NA 
HETATM   24  C   UNL     1      -7.868  18.753  66.936  1.00  0.00    -0.242 C  
HETATM   25  C   UNL     1     -10.217  18.935  66.569  1.00  0.00    -0.414 C  
ENDBRANCH  22  23
ENDBRANCH  21  22
ENDBRANCH  14  21
BRANCH  20  26
HETATM   26  O   UNL     1      -9.518  13.994  68.813  1.00  0.00    -0.175 OA 
BRANCH  26  27
HETATM   27  C   UNL     1      -9.463  15.108  69.577  1.00  0.00    -0.145 C  
HETATM   28  C   UNL     1      -8.170  15.812  69.316  1.00  0.00    -0.247 C  
HETATM   29  O   UNL     1     -10.307  15.468  70.381  1.00  0.00    -0.293 OA 
ENDBRANCH  26  27
ENDBRANCH  20  26
ENDBRANCH   6   9
ENDBRANCH   2   3
TORSDOF 7
ENDMDL
MODEL       12
REMARK 921   NORMALIZED FREE ENERGY PREDICTED BY IDOCK:   -5.62 KCAL/MOL
REMARK 922        TOTAL FREE ENERGY PREDICTED BY IDOCK:   -9.04 KCAL/MOL
REMARK 923 INTER-LIGAND FREE ENERGY PREDICTED BY IDOCK:   -7.79 KCAL/MOL
REMARK 924 INTRA-LIGAND FREE ENERGY PREDICTED BY IDOCK:   -1.25 KCAL/MOL
REMARK 927      BINDING AFFINITY PREDICTED BY RF-SCORE:    0.00 PKD
ROOT
HETATM    1  C   UNL     1     -11.104   6.607  67.981  1.00  0.00    -0.205 C  
HETATM    2  O   UNL     1     -10.447   6.983  66.771  1.00  0.00    -0.262 OA 
ENDROOT
BRANCH   2   3
HETATM    3  C   UNL     1     -10.164   8.314  66.624  1.00  0.00    -0.263 A  
HETATM    4  C   UNL     1      -9.475   8.870  65.560  1.00  0.00    -0.162 A  
HETATM    5  C   UNL     1      -9.212  10.242  65.533  1.00  0.00    -0.232 A  
HETATM    6  C   UNL     1      -9.623  11.119  66.557  1.00  0.00    -0.222 A  
HETATM    7  C   UNL     1     -10.625   9.161  67.634  1.00  0.00    -0.307 A  
HETATM    8  C   UNL     1     -10.364  10.546  67.604  1.00  0.00    -0.257 A  
BRANCH   6   9
HETATM    9  C   UNL     1      -9.337  12.644  66.519  1.00  0.00    -0.228 C  
HETATM   10  S   UNL     1      -9.354  13.361  68.221  1.00  0.00    -0.179 SA 
HETATM   11  C   UNL     1      -8.190  14.628  67.882  1.00  0.00    -0.150 A  
HETATM   12  C   UNL     1      -8.522  15.748  67.103  1.00  0.00    -0.208 A  
HETATM   13  C   UNL     1      -7.530  16.699  66.878  1.00  0.00    -0.264 A  
HETATM   14  N   UNL     1      -9.835  15.847  66.505  1.00  0.00    -0.246 N  
HETATM   15  C   UNL     1      -6.892  14.443  68.390  1.00  0.00    -0.106 A  
HETATM   16  C   UNL     1      -6.224  16.505  67.377  1.00  0.00    -0.193 A  
HETATM   17  C   UNL     1     -10.058  14.997  65.402  1.00  0.00    -0.362 C  
HETATM   18  O   UNL     1     -10.217  15.476  64.271  1.00  0.00     0.279 OA 
HETATM   19  C   UNL     1      -5.903  15.375  68.126  1.00  0.00    -0.138 A  
HETATM   20  C   UNL     1     -10.307  13.470  65.636  1.00  0.00    -0.297 C  
BRANCH  14  21
HETATM   21  C   UNL     1     -10.400  17.226  66.399  1.00  0.00    -0.316 C  
BRANCH  21  22
HETATM   22  C   UNL     1     -10.777  17.824  67.791  1.00  0.00    -0.324 C  
BRANCH  22  23
HETATM   23  N   UNL     1     -10.467  19.259  68.028  1.00  0.00    -0.405 NA 
HETATM   24  C   UNL     1     -10.236  19.932  66.739  1.00  0.00    -0.477 C  
HETATM   25  C   UNL     1      -9.293  19.461  68.878  1.00  0.00    -0.361 C  
ENDBRANCH  22  23
ENDBRANCH  21  22
ENDBRANCH  14  21
BRANCH  20  26
HETATM   26  O   UNL     1     -11.621  13.310  66.207  1.00  0.00    -0.318 OA 
BRANCH  26  27
HETATM   27  C   UNL     1     -12.661  13.337  65.345  1.00  0.00    -0.468 C  
HETATM   28  C   UNL     1     -12.414  12.343  64.255  1.00  0.00    -0.529 C  
HETATM   29  O   UNL     1     -13.629  14.075  65.414  1.00  0.00    -0.593 OA 
ENDBRANCH  26  27
ENDBRANCH  20  26
ENDBRANCH   6   9
ENDBRANCH   2   3
TORSDOF 7
ENDMDL
MODEL       13
REMARK 921   NORMALIZED FREE ENERGY PREDICTED BY IDOCK:   -5.61 KCAL/MOL
REMARK 922        TOTAL FREE ENERGY PREDICTED BY IDOCK:   -9.02 KCAL/MOL
REMARK 923 INTER-LIGAND FREE ENERGY PREDICTED BY IDOCK:   -7.45 KCAL/MOL
REMARK 924 INTRA-LIGAND FREE ENERGY PREDICTED BY IDOCK:   -1.58 KCAL/MOL
REMARK 927      BINDING AFFINITY PREDICTED BY RF-SCORE:    0.00 PKD
ROOT
HETATM    1  C   UNL     1     -10.327  16.576  65.868  1.00  0.00    -0.350 C  
HETATM    2  O   UNL     1     -10.771  15.419  65.160  1.00  0.00    -0.384 OA 
ENDROOT
BRANCH   2   3
HETATM    3  C   UNL     1     -10.741  14.238  65.852  1.00  0.00    -0.303 A  
HETATM    4  C   UNL     1      -9.727  13.841  66.706  1.00  0.00    -0.277 A  
HETATM    5  C   UNL     1      -9.784  12.593  67.333  1.00  0.00    -0.199 A  
HETATM    6  C   UNL     1     -10.850  11.690  67.141  1.00  0.00    -0.306 A  
HETATM    7  C   UNL     1     -11.834  13.387  65.674  1.00  0.00    -0.403 A  
HETATM    8  C   UNL     1     -11.894  12.130  66.310  1.00  0.00    -0.320 A  
BRANCH   6   9
HETATM    9  C   UNL     1     -10.915  10.310  67.846  1.00  0.00    -0.292 C  
HETATM   10  S   UNL     1      -9.860  10.292  69.362  1.00  0.00    -0.211 SA 
HETATM   11  C   UNL     1     -10.846   9.138  70.241  1.00  0.00    -0.246 A  
HETATM   12  C   UNL     1     -10.870   7.776  69.901  1.00  0.00    -0.226 A  
HETATM   13  C   UNL     1     -11.690   6.935  70.648  1.00  0.00    -0.417 A  
HETATM   14  N   UNL     1     -10.116   7.304  68.761  1.00  0.00    -0.171 N  
HETATM   15  C   UNL     1     -11.649   9.654  71.274  1.00  0.00    -0.466 A  
HETATM   16  C   UNL     1     -12.506   7.456  71.675  1.00  0.00    -0.381 A  
HETATM   17  C   UNL     1     -10.655   7.641  67.502  1.00  0.00    -0.252 C  
HETATM   18  O   UNL     1     -11.098   6.755  66.759  1.00  0.00    -0.338 OA 
HETATM   19  C   UNL     1     -12.491   8.814  71.983  1.00  0.00    -0.452 A  
HETATM   20  C   UNL     1     -10.511   9.102  66.961  1.00  0.00    -0.240 C  
BRANCH  14  21
HETATM   21  C   UNL     1      -9.540   5.931  68.884  1.00  0.00    -0.132 C  
BRANCH  21  22
HETATM   22  C   UNL     1      -7.992   5.951  69.088  1.00  0.00    -0.099 C  
BRANCH  22  23
HETATM   23  N   UNL     1      -7.281   7.230  68.821  1.00  0.00    -0.087 NA 
HETATM   24  C   UNL     1      -6.248   7.014  67.794  1.00  0.00    -0.042 C  
HETATM   25  C   UNL     1      -6.645   7.793  70.013  1.00  0.00    -0.037 C  
ENDBRANCH  22  23
ENDBRANCH  21  22
ENDBRANCH  14  21
BRANCH  20  26
HETATM   26  O   UNL     1      -9.135   9.311  66.587  1.00  0.00    -0.135 OA 
BRANCH  26  27
HETATM   27  C   UNL     1      -8.805   9.010  65.311  1.00  0.00    -0.193 C  
HETATM   28  C   UNL     1      -9.472   9.987  64.395  1.00  0.00    -0.349 C  
HETATM   29  O   UNL     1      -8.111   8.074  64.951  1.00  0.00    -0.138 OA 
ENDBRANCH  26  27
ENDBRANCH  20  26
ENDBRANCH   6   9
ENDBRANCH   2   3
TORSDOF 7
ENDMDL
MODEL       14
REMARK 921   NORMALIZED FREE ENERGY PREDICTED BY IDOCK:   -5.61 KCAL/MOL
REMARK 922        TOTAL FREE ENERGY PREDICTED BY IDOCK:   -9.02 KCAL/MOL
REMARK 923 INTER-LIGAND FREE ENERGY PREDICTED BY IDOCK:   -7.85 KCAL/MOL
REMARK 924 INTRA-LIGAND FREE ENERGY PREDICTED BY IDOCK:   -1.17 KCAL/MOL
REMARK 927      BINDING AFFINITY PREDICTED BY RF-SCORE:    0.00 PKD
ROOT
HETATM    1  C   UNL     1     -11.469  16.310  64.340  1.00  0.00    -0.111 C  
HETATM    2  O   UNL     1     -12.214  15.124  64.061  1.00  0.00    -0.621 OA 
ENDROOT
BRANCH   2   3
HETATM    3  C   UNL     1     -11.995  14.061  64.895  1.00  0.00    -0.404 A  
HETATM    4  C   UNL     1     -11.721  12.769  64.482  1.00  0.00    -0.420 A  
HETATM    5  C   UNL     1     -11.550  11.751  65.426  1.00  0.00    -0.190 A  
HETATM    6  C   UNL     1     -11.640  11.975  66.815  1.00  0.00    -0.391 A  
HETATM    7  C   UNL     1     -12.046  14.327  66.265  1.00  0.00    -0.433 A  
HETATM    8  C   UNL     1     -11.868  13.302  67.216  1.00  0.00    -0.421 A  
BRANCH   6   9
HETATM    9  C   UNL     1     -11.440  10.846  67.860  1.00  0.00    -0.266 C  
HETATM   10  S   UNL     1     -10.801  11.526  69.453  1.00  0.00    -0.060 SA 
HETATM   11  C   UNL     1     -11.561  10.317  70.471  1.00  0.00    -0.338 A  
HETATM   12  C   UNL     1     -11.092   8.994  70.523  1.00  0.00    -0.254 A  
HETATM   13  C   UNL     1     -11.765   8.100  71.352  1.00  0.00    -0.321 A  
HETATM   14  N   UNL     1      -9.994   8.584  69.677  1.00  0.00    -0.188 N  
HETATM   15  C   UNL     1     -12.694  10.726  71.196  1.00  0.00    -0.532 A  
HETATM   16  C   UNL     1     -12.910   8.508  72.068  1.00  0.00    -0.414 A  
HETATM   17  C   UNL     1     -10.311   8.432  68.312  1.00  0.00    -0.199 C  
HETATM   18  O   UNL     1     -10.284   7.309  67.789  1.00  0.00    -0.171 OA 
HETATM   19  C   UNL     1     -13.378   9.817  71.985  1.00  0.00    -0.547 A  
HETATM   20  C   UNL     1     -10.500   9.697  67.411  1.00  0.00    -0.257 C  
BRANCH  14  21
HETATM   21  C   UNL     1      -9.071   7.562  70.257  1.00  0.00    -0.154 C  
BRANCH  21  22
HETATM   22  C   UNL     1      -7.661   8.149  70.584  1.00  0.00    -0.085 C  
BRANCH  22  23
HETATM   23  N   UNL     1      -7.476   8.787  71.914  1.00  0.00    -0.291 NA 
HETATM   24  C   UNL     1      -6.050   8.752  72.282  1.00  0.00    -0.072 C  
HETATM   25  C   UNL     1      -8.249   8.140  72.975  1.00  0.00    -0.189 C  
ENDBRANCH  22  23
ENDBRANCH  21  22
ENDBRANCH  14  21
BRANCH  20  26
HETATM   26  O   UNL     1      -9.205  10.291  67.191  1.00  0.00    -0.144 OA 
BRANCH  26  27
HETATM   27  C   UNL     1      -8.454   9.751  66.206  1.00  0.00    -0.123 C  
HETATM   28  C   UNL     1      -7.034   9.664  66.670  1.00  0.00    -0.085 C  
HETATM   29  O   UNL     1      -8.851   9.420  65.101  1.00  0.00    -0.171 OA 
ENDBRANCH  26  27
ENDBRANCH  20  26
ENDBRANCH   6   9
ENDBRANCH   2   3
TORSDOF 7
ENDMDL
MODEL       15
REMARK 921   NORMALIZED FREE ENERGY PREDICTED BY IDOCK:   -5.61 KCAL/MOL
REMARK 922        TOTAL FREE ENERGY PREDICTED BY IDOCK:   -9.01 KCAL/MOL
REMARK 923 INTER-LIGAND FREE ENERGY PREDICTED BY IDOCK:   -7.64 KCAL/MOL
REMARK 924 INTRA-LIGAND FREE ENERGY PREDICTED BY IDOCK:   -1.38 KCAL/MOL
REMARK 927      BINDING AFFINITY PREDICTED BY RF-SCORE:    0.00 PKD
ROOT
HETATM    1  C   UNL     1     -10.530  16.565  65.667  1.00  0.00    -0.324 C  
HETATM    2  O   UNL     1     -10.903  15.471  64.828  1.00  0.00    -0.430 OA 
ENDROOT
BRANCH   2   3
HETATM    3  C   UNL     1     -10.989  14.246  65.433  1.00  0.00    -0.333 A  
HETATM    4  C   UNL     1     -11.988  13.315  65.207  1.00  0.00    -0.422 A  
HETATM    5  C   UNL     1     -11.994  12.107  65.911  1.00  0.00    -0.252 A  
HETATM    6  C   UNL     1     -11.010  11.773  66.864  1.00  0.00    -0.333 A  
HETATM    7  C   UNL     1      -9.973  13.929  66.337  1.00  0.00    -0.303 A  
HETATM    8  C   UNL     1      -9.977  12.708  67.043  1.00  0.00    -0.220 A  
BRANCH   6   9
HETATM    9  C   UNL     1     -11.015  10.427  67.636  1.00  0.00    -0.312 C  
HETATM   10  S   UNL     1      -9.961  10.531  69.149  1.00  0.00    -0.211 SA 
HETATM   11  C   UNL     1     -10.895   9.379  70.086  1.00  0.00    -0.249 A  
HETATM   12  C   UNL     1     -10.860   8.002  69.813  1.00  0.00    -0.194 A  
HETATM   13  C   UNL     1     -11.642   7.164  70.603  1.00  0.00    -0.354 A  
HETATM   14  N   UNL     1     -10.086   7.508  68.696  1.00  0.00    -0.179 N  
HETATM   15  C   UNL     1     -11.720   9.909  71.093  1.00  0.00    -0.478 A  
HETATM   16  C   UNL     1     -12.480   7.699  71.604  1.00  0.00    -0.362 A  
HETATM   17  C   UNL     1     -10.639   7.759  67.423  1.00  0.00    -0.275 C  
HETATM   18  O   UNL     1     -11.043   6.819  66.725  1.00  0.00    -0.338 OA 
HETATM   19  C   UNL     1     -12.524   9.070  71.845  1.00  0.00    -0.454 A  
HETATM   20  C   UNL     1     -10.559   9.197  66.811  1.00  0.00    -0.136 C  
BRANCH  14  21
HETATM   21  C   UNL     1      -9.450   6.169  68.885  1.00  0.00    -0.123 C  
BRANCH  21  22
HETATM   22  C   UNL     1      -8.226   6.222  69.853  1.00  0.00    -0.121 C  
BRANCH  22  23
HETATM   23  N   UNL     1      -8.227   5.290  71.012  1.00  0.00    -0.114 NA 
HETATM   24  C   UNL     1      -9.295   4.291  70.839  1.00  0.00    -0.150 C  
HETATM   25  C   UNL     1      -8.424   5.968  72.294  1.00  0.00    -0.117 C  
ENDBRANCH  22  23
ENDBRANCH  21  22
ENDBRANCH  14  21
BRANCH  20  26
HETATM   26  O   UNL     1      -9.193   9.446  66.423  1.00  0.00    -0.151 OA 
BRANCH  26  27
HETATM   27  C   UNL     1      -8.849   9.094  65.165  1.00  0.00    -0.200 C  
HETATM   28  C   UNL     1      -9.403  10.103  64.210  1.00  0.00    -0.349 C  
HETATM   29  O   UNL     1      -8.224   8.096  64.846  1.00  0.00    -0.150 OA 
ENDBRANCH  26  27
ENDBRANCH  20  26
ENDBRANCH   6   9
ENDBRANCH   2   3
TORSDOF 7
ENDMDL
MODEL       16
REMARK 921   NORMALIZED FREE ENERGY PREDICTED BY IDOCK:   -5.59 KCAL/MOL
REMARK 922        TOTAL FREE ENERGY PREDICTED BY IDOCK:   -8.99 KCAL/MOL
REMARK 923 INTER-LIGAND FREE ENERGY PREDICTED BY IDOCK:   -7.60 KCAL/MOL
REMARK 924 INTRA-LIGAND FREE ENERGY PREDICTED BY IDOCK:   -1.39 KCAL/MOL
REMARK 927      BINDING AFFINITY PREDICTED BY RF-SCORE:    0.00 PKD
ROOT
HETATM    1  C   UNL     1      -8.094   5.177  72.124  1.00  0.00    -0.113 C  
HETATM    2  O   UNL     1      -8.681   5.467  70.855  1.00  0.00    -0.129 OA 
ENDROOT
BRANCH   2   3
HETATM    3  C   UNL     1      -9.008   6.776  70.624  1.00  0.00    -0.151 A  
HETATM    4  C   UNL     1      -8.141   7.847  70.750  1.00  0.00    -0.101 A  
HETATM    5  C   UNL     1      -8.595   9.150  70.523  1.00  0.00    -0.252 A  
HETATM    6  C   UNL     1      -9.926   9.442  70.159  1.00  0.00    -0.269 A  
HETATM    7  C   UNL     1     -10.322   7.025  70.221  1.00  0.00    -0.219 A  
HETATM    8  C   UNL     1     -10.778   8.338  69.987  1.00  0.00    -0.239 A  
BRANCH   6   9
HETATM    9  C   UNL     1     -10.424  10.887  69.898  1.00  0.00     0.095 C  
HETATM   10  S   UNL     1     -12.262  10.930  69.723  1.00  0.00    -0.255 SA 
HETATM   11  C   UNL     1     -12.456  12.553  70.359  1.00  0.00    -0.138 A  
HETATM   12  C   UNL     1     -12.077  13.686  69.621  1.00  0.00    -0.321 A  
HETATM   13  C   UNL     1     -12.258  14.934  70.210  1.00  0.00    -0.389 A  
HETATM   14  N   UNL     1     -11.454  13.528  68.325  1.00  0.00    -0.289 N  
HETATM   15  C   UNL     1     -12.964  12.661  71.665  1.00  0.00    -0.400 A  
HETATM   16  C   UNL     1     -12.756  15.041  71.526  1.00  0.00    -0.414 A  
HETATM   17  C   UNL     1     -10.116  13.083  68.352  1.00  0.00    -0.225 C  
HETATM   18  O   UNL     1      -9.204  13.834  67.980  1.00  0.00    -0.182 OA 
HETATM   19  C   UNL     1     -13.101  13.906  72.256  1.00  0.00    -0.512 A  
HETATM   20  C   UNL     1      -9.803  11.581  68.659  1.00  0.00    -0.177 C  
BRANCH  14  21
HETATM   21  C   UNL     1     -11.778  14.579  67.314  1.00  0.00    -0.406 C  
BRANCH  21  22
HETATM   22  C   UNL     1     -12.471  13.990  66.045  1.00  0.00    -0.455 C  
BRANCH  22  23
HETATM   23  N   UNL     1     -11.646  13.142  65.144  1.00  0.00    -0.308 NA 
HETATM   24  C   UNL     1     -10.445  13.886  64.731  1.00  0.00    -0.429 C  
HETATM   25  C   UNL     1     -12.365  12.709  63.944  1.00  0.00    -0.459 C  
ENDBRANCH  22  23
ENDBRANCH  21  22
ENDBRANCH  14  21
BRANCH  20  26
HETATM   26  O   UNL     1     -10.191  10.797  67.513  1.00  0.00    -0.183 OA 
BRANCH  26  27
HETATM   27  C   UNL     1      -9.247  10.608  66.565  1.00  0.00    -0.166 C  
HETATM   28  C   UNL     1      -9.889  10.010  65.353  1.00  0.00    -0.384 C  
HETATM   29  O   UNL     1      -8.056  10.846  66.681  1.00  0.00    -0.135 OA 
ENDBRANCH  26  27
ENDBRANCH  20  26
ENDBRANCH   6   9
ENDBRANCH   2   3
TORSDOF 7
ENDMDL
MODEL       17
REMARK 921   NORMALIZED FREE ENERGY PREDICTED BY IDOCK:   -5.57 KCAL/MOL
REMARK 922        TOTAL FREE ENERGY PREDICTED BY IDOCK:   -8.97 KCAL/MOL
REMARK 923 INTER-LIGAND FREE ENERGY PREDICTED BY IDOCK:   -7.57 KCAL/MOL
REMARK 924 INTRA-LIGAND FREE ENERGY PREDICTED BY IDOCK:   -1.39 KCAL/MOL
REMARK 927      BINDING AFFINITY PREDICTED BY RF-SCORE:    0.00 PKD
ROOT
HETATM    1  C   UNL     1     -10.386  16.266  65.925  1.00  0.00    -0.365 C  
HETATM    2  O   UNL     1     -11.419  15.333  65.608  1.00  0.00    -0.260 OA 
ENDROOT
BRANCH   2   3
HETATM    3  C   UNL     1     -11.472  14.203  66.378  1.00  0.00    -0.354 A  
HETATM    4  C   UNL     1     -11.617  14.184  67.754  1.00  0.00    -0.379 A  
HETATM    5  C   UNL     1     -11.621  12.967  68.443  1.00  0.00    -0.370 A  
HETATM    6  C   UNL     1     -11.486  11.722  67.795  1.00  0.00    -0.381 A  
HETATM    7  C   UNL     1     -11.380  12.986  65.700  1.00  0.00    -0.330 A  
HETATM    8  C   UNL     1     -11.391  11.759  66.394  1.00  0.00    -0.361 A  
BRANCH   6   9
HETATM    9  C   UNL     1     -11.502  10.373  68.562  1.00  0.00    -0.162 C  
HETATM   10  S   UNL     1     -11.294  10.644  70.377  1.00  0.00    -0.249 SA 
HETATM   11  C   UNL     1     -12.231   9.243  70.865  1.00  0.00    -0.201 A  
HETATM   12  C   UNL     1     -11.738   7.937  70.718  1.00  0.00    -0.218 A  
HETATM   13  C   UNL     1     -12.556   6.885  71.124  1.00  0.00    -0.366 A  
HETATM   14  N   UNL     1     -10.452   7.716  70.094  1.00  0.00    -0.222 N  
HETATM   15  C   UNL     1     -13.520   9.492  71.366  1.00  0.00    -0.405 A  
HETATM   16  C   UNL     1     -13.855   7.135  71.614  1.00  0.00    -0.418 A  
HETATM   17  C   UNL     1     -10.423   7.898  68.696  1.00  0.00    -0.167 C  
HETATM   18  O   UNL     1     -10.227   6.932  67.948  1.00  0.00    -0.154 OA 
HETATM   19  C   UNL     1     -14.340   8.436  71.728  1.00  0.00    -0.558 A  
HETATM   20  C   UNL     1     -10.437   9.345  68.100  1.00  0.00    -0.220 C  
BRANCH  14  21
HETATM   21  C   UNL     1      -9.658   6.567  70.625  1.00  0.00    -0.172 C  
BRANCH  21  22
HETATM   22  C   UNL     1      -8.953   6.905  71.977  1.00  0.00    -0.133 C  
BRANCH  22  23
HETATM   23  N   UNL     1      -9.394   6.159  73.186  1.00  0.00    -0.139 NA 
HETATM   24  C   UNL     1     -10.054   4.907  72.778  1.00  0.00    -0.170 C  
HETATM   25  C   UNL     1     -10.317   6.921  74.027  1.00  0.00    -0.320 C  
ENDBRANCH  22  23
ENDBRANCH  21  22
ENDBRANCH  14  21
BRANCH  20  26
HETATM   26  O   UNL     1      -9.151   9.947  68.349  1.00  0.00    -0.122 OA 
BRANCH  26  27
HETATM   27  C   UNL     1      -8.301  10.009  67.300  1.00  0.00    -0.121 C  
HETATM   28  C   UNL     1      -7.806  11.413  67.158  1.00  0.00    -0.156 C  
HETATM   29  O   UNL     1      -8.010   9.085  66.558  1.00  0.00    -0.102 OA 
ENDBRANCH  26  27
ENDBRANCH  20  26
ENDBRANCH   6   9
ENDBRANCH   2   3
TORSDOF 7
ENDMDL
MODEL       18
REMARK 921   NORMALIZED FREE ENERGY PREDICTED BY IDOCK:   -5.56 KCAL/MOL
REMARK 922        TOTAL FREE ENERGY PREDICTED BY IDOCK:   -8.95 KCAL/MOL
REMARK 923 INTER-LIGAND FREE ENERGY PREDICTED BY IDOCK:   -7.58 KCAL/MOL
REMARK 924 INTRA-LIGAND FREE ENERGY PREDICTED BY IDOCK:   -1.38 KCAL/MOL
REMARK 927      BINDING AFFINITY PREDICTED BY RF-SCORE:    0.00 PKD
ROOT
HETATM    1  C   UNL     1     -10.585  19.930  65.834  1.00  0.00    -0.417 C  
HETATM    2  O   UNL     1      -9.846  19.495  66.976  1.00  0.00    -0.323 OA 
ENDROOT
BRANCH   2   3
HETATM    3  C   UNL     1      -9.688  18.142  67.115  1.00  0.00    -0.301 A  
HETATM    4  C   UNL     1      -8.652  17.402  66.574  1.00  0.00    -0.293 A  
HETATM    5  C   UNL     1      -8.611  16.016  66.751  1.00  0.00    -0.292 A  
HETATM    6  C   UNL     1      -9.594  15.309  67.475  1.00  0.00    -0.206 A  
HETATM    7  C   UNL     1     -10.655  17.481  67.875  1.00  0.00    -0.390 A  
HETATM    8  C   UNL     1     -10.611  16.084  68.059  1.00  0.00    -0.295 A  
BRANCH   6   9
HETATM    9  C   UNL     1      -9.541  13.772  67.678  1.00  0.00    -0.219 C  
HETATM   10  S   UNL     1      -7.991  13.065  66.964  1.00  0.00     0.086 SA 
HETATM   11  C   UNL     1      -7.869  11.739  68.105  1.00  0.00    -0.135 A  
HETATM   12  C   UNL     1      -8.733  10.633  68.049  1.00  0.00    -0.126 A  
HETATM   13  C   UNL     1      -8.568   9.632  69.003  1.00  0.00    -0.133 A  
HETATM   14  N   UNL     1      -9.797  10.598  67.070  1.00  0.00    -0.180 N  
HETATM   15  C   UNL     1      -6.893  11.860  69.109  1.00  0.00    -0.099 A  
HETATM   16  C   UNL     1      -7.597   9.762  70.018  1.00  0.00    -0.169 A  
HETATM   17  C   UNL     1     -10.887  11.453  67.336  1.00  0.00    -0.254 C  
HETATM   18  O   UNL     1     -11.997  10.977  67.608  1.00  0.00    -0.583 OA 
HETATM   19  C   UNL     1      -6.765  10.877  70.076  1.00  0.00    -0.128 A  
HETATM   20  C   UNL     1     -10.745  12.992  67.091  1.00  0.00    -0.254 C  
BRANCH  14  21
HETATM   21  C   UNL     1     -10.136   9.249  66.524  1.00  0.00    -0.273 C  
BRANCH  21  22
HETATM   22  C   UNL     1      -9.268   8.874  65.282  1.00  0.00    -0.091 C  
BRANCH  22  23
HETATM   23  N   UNL     1      -8.627   9.987  64.531  1.00  0.00    -0.173 NA 
HETATM   24  C   UNL     1      -9.022   9.916  63.114  1.00  0.00    -0.258 C  
HETATM   25  C   UNL     1      -7.166   9.969  64.612  1.00  0.00    -0.140 C  
ENDBRANCH  22  23
ENDBRANCH  21  22
ENDBRANCH  14  21
BRANCH  20  26
HETATM   26  O   UNL     1     -10.728  13.222  65.668  1.00  0.00    -0.275 OA 
BRANCH  26  27
HETATM   27  C   UNL     1     -11.926  13.231  65.044  1.00  0.00    -0.371 C  
HETATM   28  C   UNL     1     -11.810  12.477  63.757  1.00  0.00    -0.577 C  
HETATM   29  O   UNL     1     -12.935  13.792  65.437  1.00  0.00    -0.706 OA 
ENDBRANCH  26  27
ENDBRANCH  20  26
ENDBRANCH   6   9
ENDBRANCH   2   3
TORSDOF 7
ENDMDL
MODEL       19
REMARK 921   NORMALIZED FREE ENERGY PREDICTED BY IDOCK:   -5.48 KCAL/MOL
REMARK 922        TOTAL FREE ENERGY PREDICTED BY IDOCK:   -8.84 KCAL/MOL
REMARK 923 INTER-LIGAND FREE ENERGY PREDICTED BY IDOCK:   -7.63 KCAL/MOL
REMARK 924 INTRA-LIGAND FREE ENERGY PREDICTED BY IDOCK:   -1.21 KCAL/MOL
REMARK 927      BINDING AFFINITY PREDICTED BY RF-SCORE:    0.00 PKD
ROOT
HETATM    1  C   UNL     1     -10.668  18.609  65.745  1.00  0.00    -0.179 C  
HETATM    2  O   UNL     1     -11.023  17.573  64.828  1.00  0.00    -0.950 OA 
ENDROOT
BRANCH   2   3
HETATM    3  C   UNL     1     -10.667  16.301  65.186  1.00  0.00    -0.331 A  
HETATM    4  C   UNL     1      -9.669  15.977  66.089  1.00  0.00    -0.353 A  
HETATM    5  C   UNL     1      -9.366  14.638  66.351  1.00  0.00    -0.313 A  
HETATM    6  C   UNL     1     -10.042  13.566  65.733  1.00  0.00    -0.298 A  
HETATM    7  C   UNL     1     -11.387  15.264  64.589  1.00  0.00    -0.364 A  
HETATM    8  C   UNL     1     -11.085  13.914  64.858  1.00  0.00    -0.370 A  
BRANCH   6   9
HETATM    9  C   UNL     1      -9.710  12.081  66.034  1.00  0.00    -0.239 C  
HETATM   10  S   UNL     1     -10.623  10.956  64.889  1.00  0.00    -0.162 SA 
HETATM   11  C   UNL     1      -9.404   9.694  64.884  1.00  0.00    -0.242 A  
HETATM   12  C   UNL     1      -9.201   8.859  65.995  1.00  0.00    -0.228 A  
HETATM   13  C   UNL     1      -8.204   7.891  65.905  1.00  0.00    -0.126 A  
HETATM   14  N   UNL     1      -9.964   9.069  67.205  1.00  0.00    -0.204 N  
HETATM   15  C   UNL     1      -8.608   9.592  63.730  1.00  0.00    -0.222 A  
HETATM   16  C   UNL     1      -7.396   7.799  64.752  1.00  0.00    -0.075 A  
HETATM   17  C   UNL     1      -9.587  10.195  67.966  1.00  0.00    -0.145 C  
HETATM   18  O   UNL     1      -9.077  10.046  69.084  1.00  0.00    -0.161 OA 
HETATM   19  C   UNL     1      -7.593   8.652  63.669  1.00  0.00    -0.127 A  
HETATM   20  C   UNL     1      -9.996  11.628  67.489  1.00  0.00    -0.187 C  
BRANCH  14  21
HETATM   21  C   UNL     1     -10.313   7.839  67.978  1.00  0.00    -0.209 C  
BRANCH  21  22
HETATM   22  C   UNL     1     -11.122   6.810  67.126  1.00  0.00    -0.333 C  
BRANCH  22  23
HETATM   23  N   UNL     1     -10.719   5.381  67.212  1.00  0.00    -0.174 NA 
HETATM   24  C   UNL     1      -9.537   5.254  68.080  1.00  0.00    -0.129 C  
HETATM   25  C   UNL     1     -10.409   4.792  65.909  1.00  0.00    -0.270 C  
ENDBRANCH  22  23
ENDBRANCH  21  22
ENDBRANCH  14  21
BRANCH  20  26
HETATM   26  O   UNL     1     -11.414  11.785  67.696  1.00  0.00    -0.280 OA 
BRANCH  26  27
HETATM   27  C   UNL     1     -11.796  12.287  68.890  1.00  0.00    -0.303 C  
HETATM   28  C   UNL     1     -12.048  13.754  68.742  1.00  0.00    -0.344 C  
HETATM   29  O   UNL     1     -11.887  11.664  69.935  1.00  0.00    -0.312 OA 
ENDBRANCH  26  27
ENDBRANCH  20  26
ENDBRANCH   6   9
ENDBRANCH   2   3
TORSDOF 7
ENDMDL
MODEL       20
REMARK 921   NORMALIZED FREE ENERGY PREDICTED BY IDOCK:   -5.47 KCAL/MOL
REMARK 922        TOTAL FREE ENERGY PREDICTED BY IDOCK:   -8.83 KCAL/MOL
REMARK 923 INTER-LIGAND FREE ENERGY PREDICTED BY IDOCK:   -8.07 KCAL/MOL
REMARK 924 INTRA-LIGAND FREE ENERGY PREDICTED BY IDOCK:   -0.75 KCAL/MOL
REMARK 927      BINDING AFFINITY PREDICTED BY RF-SCORE:    0.00 PKD
ROOT
HETATM    1  C   UNL     1     -13.573  15.744  72.837  1.00  0.00    -0.577 C  
HETATM    2  O   UNL     1     -13.913  14.357  72.827  1.00  0.00    -0.569 OA 
ENDROOT
BRANCH   2   3
HETATM    3  C   UNL     1     -13.289  13.587  71.883  1.00  0.00    -0.443 A  
HETATM    4  C   UNL     1     -12.661  14.072  70.749  1.00  0.00    -0.431 A  
HETATM    5  C   UNL     1     -12.086  13.188  69.832  1.00  0.00    -0.357 A  
HETATM    6  C   UNL     1     -12.107  11.788  70.003  1.00  0.00    -0.387 A  
HETATM    7  C   UNL     1     -13.290  12.209  72.107  1.00  0.00    -0.438 A  
HETATM    8  C   UNL     1     -12.705  11.318  71.185  1.00  0.00    -0.492 A  
BRANCH   6   9
HETATM    9  C   UNL     1     -11.460  10.810  68.988  1.00  0.00    -0.298 C  
HETATM   10  S   UNL     1     -10.048   9.901  69.757  1.00  0.00    -0.252 SA 
HETATM   11  C   UNL     1     -10.238   8.447  68.793  1.00  0.00    -0.207 A  
HETATM   12  C   UNL     1      -9.888   8.412  67.433  1.00  0.00    -0.191 A  
HETATM   13  C   UNL     1     -10.082   7.217  66.745  1.00  0.00    -0.278 A  
HETATM   14  N   UNL     1      -9.414   9.610  66.778  1.00  0.00    -0.154 N  
HETATM   15  C   UNL     1     -10.804   7.334  69.438  1.00  0.00    -0.206 A  
HETATM   16  C   UNL     1     -10.663   6.104  67.389  1.00  0.00    -0.403 A  
HETATM   17  C   UNL     1     -10.402  10.580  66.511  1.00  0.00    -0.233 C  
HETATM   18  O   UNL     1     -10.715  10.842  65.342  1.00  0.00    -0.219 OA 
HETATM   19  C   UNL     1     -11.030   6.164  68.732  1.00  0.00    -0.421 A  
HETATM   20  C   UNL     1     -10.957  11.465  67.676  1.00  0.00    -0.250 C  
BRANCH  14  21
HETATM   21  C   UNL     1      -8.385   9.408  65.714  1.00  0.00    -0.122 C  
BRANCH  21  22
HETATM   22  C   UNL     1      -6.949   9.227  66.300  1.00  0.00    -0.087 C  
BRANCH  22  23
HETATM   23  N   UNL     1      -6.316   7.888  66.162  1.00  0.00    -0.045 NA 
HETATM   24  C   UNL     1      -6.889   7.190  64.999  1.00  0.00    -0.047 C  
HETATM   25  C   UNL     1      -6.490   7.045  67.346  1.00  0.00    -0.054 C  
ENDBRANCH  22  23
ENDBRANCH  21  22
ENDBRANCH  14  21
BRANCH  20  26
HETATM   26  O   UNL     1      -9.933  12.407  68.054  1.00  0.00    -0.195 OA 
BRANCH  26  27
HETATM   27  C   UNL     1      -9.786  13.489  67.259  1.00  0.00    -0.236 C  
HETATM   28  C   UNL     1      -8.339  13.865  67.215  1.00  0.00    -0.199 C  
HETATM   29  O   UNL     1     -10.684  14.092  66.695  1.00  0.00    -0.285 OA 
ENDBRANCH  26  27
ENDBRANCH  20  26
ENDBRANCH   6   9
ENDBRANCH   2   3
TORSDOF 7
ENDMDL
MODEL       21
REMARK 921   NORMALIZED FREE ENERGY PREDICTED BY IDOCK:   -5.45 KCAL/MOL
REMARK 922        TOTAL FREE ENERGY PREDICTED BY IDOCK:   -8.79 KCAL/MOL
REMARK 923 INTER-LIGAND FREE ENERGY PREDICTED BY IDOCK:   -7.89 KCAL/MOL
REMARK 924 INTRA-LIGAND FREE ENERGY PREDICTED BY IDOCK:   -0.90 KCAL/MOL
REMARK 927      BINDING AFFINITY PREDICTED BY RF-SCORE:    0.00 PKD
ROOT
HETATM    1  C   UNL     1     -11.996  16.050  73.057  1.00  0.00    -0.492 C  
HETATM    2  O   UNL     1     -11.971  16.373  71.667  1.00  0.00    -0.424 OA 
ENDROOT
BRANCH   2   3
HETATM    3  C   UNL     1     -11.680  15.344  70.812  1.00  0.00    -0.348 A  
HETATM    4  C   UNL     1     -12.414  14.177  70.692  1.00  0.00    -0.432 A  
HETATM    5  C   UNL     1     -12.001  13.175  69.809  1.00  0.00    -0.382 A  
HETATM    6  C   UNL     1     -10.848  13.292  69.006  1.00  0.00    -0.212 A  
HETATM    7  C   UNL     1     -10.557  15.512  69.999  1.00  0.00    -0.337 A  
HETATM    8  C   UNL     1     -10.145  14.505  69.104  1.00  0.00    -0.145 A  
BRANCH   6   9
HETATM    9  C   UNL     1     -10.399  12.183  68.019  1.00  0.00    -0.205 C  
HETATM   10  S   UNL     1     -11.769  11.730  66.866  1.00  0.00    -0.005 SA 
HETATM   11  C   UNL     1     -10.724  11.293  65.526  1.00  0.00    -0.220 A  
HETATM   12  C   UNL     1      -9.965  10.111  65.536  1.00  0.00    -0.293 A  
HETATM   13  C   UNL     1      -9.157   9.851  64.433  1.00  0.00    -0.299 A  
HETATM   14  N   UNL     1      -9.985   9.251  66.698  1.00  0.00    -0.242 N  
HETATM   15  C   UNL     1     -10.649  12.208  64.462  1.00  0.00    -0.350 A  
HETATM   16  C   UNL     1      -9.071  10.777  63.372  1.00  0.00    -0.244 A  
HETATM   17  C   UNL     1      -9.272   9.734  67.815  1.00  0.00    -0.130 C  
HETATM   18  O   UNL     1      -8.251   9.149  68.201  1.00  0.00    -0.114 OA 
HETATM   19  C   UNL     1      -9.810  11.957  63.389  1.00  0.00    -0.374 A  
HETATM   20  C   UNL     1      -9.878  10.884  68.687  1.00  0.00    -0.190 C  
BRANCH  14  21
HETATM   21  C   UNL     1      -9.870   7.786  66.427  1.00  0.00    -0.128 C  
BRANCH  21  22
HETATM   22  C   UNL     1     -10.875   6.943  67.273  1.00  0.00    -0.356 C  
BRANCH  22  23
HETATM   23  N   UNL     1     -10.393   6.401  68.571  1.00  0.00    -0.177 NA 
HETATM   24  C   UNL     1      -9.974   5.000  68.395  1.00  0.00    -0.136 C  
HETATM   25  C   UNL     1     -11.403   6.457  69.629  1.00  0.00    -0.412 C  
ENDBRANCH  22  23
ENDBRANCH  21  22
ENDBRANCH  14  21
BRANCH  20  26
HETATM   26  O   UNL     1     -10.980  10.342  69.443  1.00  0.00    -0.219 OA 
BRANCH  26  27
HETATM   27  C   UNL     1     -10.686   9.851  70.667  1.00  0.00    -0.303 C  
HETATM   28  C   UNL     1     -11.940   9.795  71.481  1.00  0.00    -0.488 C  
HETATM   29  O   UNL     1      -9.577   9.538  71.067  1.00  0.00    -0.238 OA 
ENDBRANCH  26  27
ENDBRANCH  20  26
ENDBRANCH   6   9
ENDBRANCH   2   3
TORSDOF 7
ENDMDL
MODEL       22
REMARK 921   NORMALIZED FREE ENERGY PREDICTED BY IDOCK:   -5.38 KCAL/MOL
REMARK 922        TOTAL FREE ENERGY PREDICTED BY IDOCK:   -8.69 KCAL/MOL
REMARK 923 INTER-LIGAND FREE ENERGY PREDICTED BY IDOCK:   -7.69 KCAL/MOL
REMARK 924 INTRA-LIGAND FREE ENERGY PREDICTED BY IDOCK:   -1.00 KCAL/MOL
REMARK 927      BINDING AFFINITY PREDICTED BY RF-SCORE:    0.00 PKD
ROOT
HETATM    1  C   UNL     1     -10.479   7.262  67.326  1.00  0.00    -0.310 C  
HETATM    2  O   UNL     1      -9.151   7.779  67.240  1.00  0.00    -0.128 OA 
ENDROOT
BRANCH   2   3
HETATM    3  C   UNL     1      -9.035   9.141  67.173  1.00  0.00    -0.123 A  
HETATM    4  C   UNL     1      -8.940   9.987  68.265  1.00  0.00    -0.119 A  
HETATM    5  C   UNL     1      -8.862  11.370  68.077  1.00  0.00    -0.155 A  
HETATM    6  C   UNL     1      -8.871  11.970  66.801  1.00  0.00    -0.198 A  
HETATM    7  C   UNL     1      -9.001   9.699  65.893  1.00  0.00    -0.203 A  
HETATM    8  C   UNL     1      -8.917  11.093  65.704  1.00  0.00    -0.195 A  
BRANCH   6   9
HETATM    9  C   UNL     1      -8.774  13.505  66.597  1.00  0.00     0.003 C  
HETATM   10  S   UNL     1      -8.339  14.355  68.177  1.00  0.00    -0.169 SA 
HETATM   11  C   UNL     1      -7.477  15.684  67.423  1.00  0.00    -0.205 A  
HETATM   12  C   UNL     1      -8.152  16.704  66.732  1.00  0.00    -0.246 A  
HETATM   13  C   UNL     1      -7.384  17.713  66.157  1.00  0.00    -0.344 A  
HETATM   14  N   UNL     1      -9.588  16.643  66.576  1.00  0.00    -0.258 N  
HETATM   15  C   UNL     1      -6.075  15.651  67.503  1.00  0.00    -0.143 A  
HETATM   16  C   UNL     1      -5.976  17.672  66.226  1.00  0.00    -0.255 A  
HETATM   17  C   UNL     1     -10.051  15.689  65.646  1.00  0.00    -0.365 C  
HETATM   18  O   UNL     1     -10.602  16.059  64.600  1.00  0.00    -0.564 OA 
HETATM   19  C   UNL     1      -5.321  16.639  66.892  1.00  0.00    -0.076 A  
HETATM   20  C   UNL     1     -10.052  14.171  66.024  1.00  0.00    -0.316 C  
BRANCH  14  21
HETATM   21  C   UNL     1     -10.301  17.956  66.584  1.00  0.00    -0.361 C  
BRANCH  21  22
HETATM   22  C   UNL     1     -10.437  18.551  68.021  1.00  0.00    -0.360 C  
BRANCH  22  23
HETATM   23  N   UNL     1      -9.665  19.784  68.329  1.00  0.00    -0.384 NA 
HETATM   24  C   UNL     1      -9.490  20.575  67.099  1.00  0.00    -0.404 C  
HETATM   25  C   UNL     1      -8.346  19.509  68.899  1.00  0.00    -0.265 C  
ENDBRANCH  22  23
ENDBRANCH  21  22
ENDBRANCH  14  21
BRANCH  20  26
HETATM   26  O   UNL     1     -11.099  13.948  66.990  1.00  0.00    -0.291 OA 
BRANCH  26  27
HETATM   27  C   UNL     1     -12.013  13.003  66.679  1.00  0.00    -0.387 C  
HETATM   28  C   UNL     1     -12.574  13.297  65.324  1.00  0.00    -0.528 C  
HETATM   29  O   UNL     1     -12.362  12.079  67.396  1.00  0.00    -0.340 OA 
ENDBRANCH  26  27
ENDBRANCH  20  26
ENDBRANCH   6   9
ENDBRANCH   2   3
TORSDOF 7
ENDMDL
MODEL       23
REMARK 921   NORMALIZED FREE ENERGY PREDICTED BY IDOCK:   -5.36 KCAL/MOL
REMARK 922        TOTAL FREE ENERGY PREDICTED BY IDOCK:   -8.66 KCAL/MOL
REMARK 923 INTER-LIGAND FREE ENERGY PREDICTED BY IDOCK:   -7.48 KCAL/MOL
REMARK 924 INTRA-LIGAND FREE ENERGY PREDICTED BY IDOCK:   -1.18 KCAL/MOL
REMARK 927      BINDING AFFINITY PREDICTED BY RF-SCORE:    0.00 PKD
ROOT
HETATM    1  C   UNL     1     -12.268  14.706  64.391  1.00  0.00    -0.452 C  
HETATM    2  O   UNL     1     -12.694  14.506  65.739  1.00  0.00    -0.306 OA 
ENDROOT
BRANCH   2   3
HETATM    3  C   UNL     1     -12.057  13.513  66.434  1.00  0.00    -0.417 A  
HETATM    4  C   UNL     1     -11.671  13.592  67.761  1.00  0.00    -0.394 A  
HETATM    5  C   UNL     1     -10.992  12.526  68.359  1.00  0.00    -0.277 A  
HETATM    6  C   UNL     1     -10.672  11.340  67.668  1.00  0.00    -0.270 A  
HETATM    7  C   UNL     1     -11.796  12.335  65.732  1.00  0.00    -0.417 A  
HETATM    8  C   UNL     1     -11.116  11.258  66.338  1.00  0.00    -0.257 A  
BRANCH   6   9
HETATM    9  C   UNL     1      -9.927  10.155  68.338  1.00  0.00    -0.156 C  
HETATM   10  S   UNL     1     -10.303   8.566  67.475  1.00  0.00    -0.268 SA 
HETATM   11  C   UNL     1      -8.758   7.814  67.826  1.00  0.00    -0.123 A  
HETATM   12  C   UNL     1      -8.431   7.362  69.115  1.00  0.00    -0.133 A  
HETATM   13  C   UNL     1      -7.177   6.786  69.302  1.00  0.00    -0.090 A  
HETATM   14  N   UNL     1      -9.356   7.569  70.207  1.00  0.00    -0.161 N  
HETATM   15  C   UNL     1      -7.843   7.729  66.762  1.00  0.00    -0.106 A  
HETATM   16  C   UNL     1      -6.255   6.715  68.237  1.00  0.00    -0.030 A  
HETATM   17  C   UNL     1      -9.441   8.895  70.680  1.00  0.00    -0.214 C  
HETATM   18  O   UNL     1      -9.042   9.176  71.817  1.00  0.00    -0.346 OA 
HETATM   19  C   UNL     1      -6.584   7.192  66.970  1.00  0.00    -0.059 A  
HETATM   20  C   UNL     1     -10.221   9.967  69.849  1.00  0.00    -0.260 C  
BRANCH  14  21
HETATM   21  C   UNL     1      -9.386   6.496  71.247  1.00  0.00    -0.155 C  
BRANCH  21  22
HETATM   22  C   UNL     1     -10.821   5.920  71.466  1.00  0.00    -0.266 C  
BRANCH  22  23
HETATM   23  N   UNL     1     -11.288   5.760  72.869  1.00  0.00    -0.277 NA 
HETATM   24  C   UNL     1     -10.522   6.657  73.749  1.00  0.00    -0.333 C  
HETATM   25  C   UNL     1     -11.154   4.390  73.367  1.00  0.00    -0.305 C  
ENDBRANCH  22  23
ENDBRANCH  21  22
ENDBRANCH  14  21
BRANCH  20  26
HETATM   26  O   UNL     1     -11.631   9.685  69.960  1.00  0.00    -0.198 OA 
BRANCH  26  27
HETATM   27  C   UNL     1     -12.272  10.227  71.019  1.00  0.00    -0.384 C  
HETATM   28  C   UNL     1     -12.759   9.126  71.907  1.00  0.00    -0.464 C  
HETATM   29  O   UNL     1     -12.463  11.417  71.210  1.00  0.00    -0.364 OA 
ENDBRANCH  26  27
ENDBRANCH  20  26
ENDBRANCH   6   9
ENDBRANCH   2   3
TORSDOF 7
ENDMDL
MODEL       24
REMARK 921   NORMALIZED FREE ENERGY PREDICTED BY IDOCK:   -5.33 KCAL/MOL
REMARK 922        TOTAL FREE ENERGY PREDICTED BY IDOCK:   -8.63 KCAL/MOL
REMARK 923 INTER-LIGAND FREE ENERGY PREDICTED BY IDOCK:   -7.41 KCAL/MOL
REMARK 924 INTRA-LIGAND FREE ENERGY PREDICTED BY IDOCK:   -1.22 KCAL/MOL
REMARK 927      BINDING AFFINITY PREDICTED BY RF-SCORE:    0.00 PKD
ROOT
HETATM    1  C   UNL     1     -10.485  18.968  65.967  1.00  0.00    -0.458 C  
HETATM    2  O   UNL     1     -10.995  18.087  64.966  1.00  0.00    -0.748 OA 
ENDROOT
BRANCH   2   3
HETATM    3  C   UNL     1     -10.762  16.752  65.158  1.00  0.00    -0.143 A  
HETATM    4  C   UNL     1     -11.452  15.726  64.536  1.00  0.00    -0.292 A  
HETATM    5  C   UNL     1     -11.152  14.394  64.838  1.00  0.00    -0.404 A  
HETATM    6  C   UNL     1     -10.155  14.026  65.764  1.00  0.00    -0.345 A  
HETATM    7  C   UNL     1      -9.737  16.423  66.048  1.00  0.00    -0.356 A  
HETATM    8  C   UNL     1      -9.431  15.080  66.347  1.00  0.00    -0.325 A  
BRANCH   6   9
HETATM    9  C   UNL     1      -9.818  12.547  66.089  1.00  0.00    -0.258 C  
HETATM   10  S   UNL     1     -10.893  11.398  65.122  1.00  0.00    -0.195 SA 
HETATM   11  C   UNL     1      -9.711  10.105  65.021  1.00  0.00    -0.318 A  
HETATM   12  C   UNL     1      -9.385   9.314  66.134  1.00  0.00    -0.212 A  
HETATM   13  C   UNL     1      -8.428   8.317  65.963  1.00  0.00    -0.148 A  
HETATM   14  N   UNL     1      -9.983   9.596  67.421  1.00  0.00    -0.175 N  
HETATM   15  C   UNL     1      -9.072   9.932  63.781  1.00  0.00    -0.293 A  
HETATM   16  C   UNL     1      -7.777   8.153  64.722  1.00  0.00    -0.123 A  
HETATM   17  C   UNL     1      -9.488  10.743  68.074  1.00  0.00    -0.160 C  
HETATM   18  O   UNL     1      -8.842  10.629  69.125  1.00  0.00    -0.164 OA 
HETATM   19  C   UNL     1      -8.093   8.964  63.634  1.00  0.00    -0.167 A  
HETATM   20  C   UNL     1      -9.924  12.165  67.587  1.00  0.00    -0.197 C  
BRANCH  14  21
HETATM   21  C   UNL     1     -10.255   8.410  68.287  1.00  0.00    -0.205 C  
BRANCH  21  22
HETATM   22  C   UNL     1     -11.254   8.733  69.442  1.00  0.00     0.183 C  
BRANCH  22  23
HETATM   23  N   UNL     1     -11.030   8.063  70.751  1.00  0.00    -0.244 NA 
HETATM   24  C   UNL     1     -11.220   9.035  71.841  1.00  0.00    -0.368 C  
HETATM   25  C   UNL     1      -9.695   7.476  70.875  1.00  0.00    -0.173 C  
ENDBRANCH  22  23
ENDBRANCH  21  22
ENDBRANCH  14  21
BRANCH  20  26
HETATM   26  O   UNL     1     -11.300  12.368  67.965  1.00  0.00    -0.246 OA 
BRANCH  26  27
HETATM   27  C   UNL     1     -11.523  12.778  69.234  1.00  0.00    -0.289 C  
HETATM   28  C   UNL     1     -11.109  14.210  69.361  1.00  0.00    -0.261 C  
HETATM   29  O   UNL     1     -11.953  12.090  70.144  1.00  0.00    -0.333 OA 
ENDBRANCH  26  27
ENDBRANCH  20  26
ENDBRANCH   6   9
ENDBRANCH   2   3
TORSDOF 7
ENDMDL
MODEL       25
REMARK 921   NORMALIZED FREE ENERGY PREDICTED BY IDOCK:   -5.26 KCAL/MOL
REMARK 922        TOTAL FREE ENERGY PREDICTED BY IDOCK:   -8.53 KCAL/MOL
REMARK 923 INTER-LIGAND FREE ENERGY PREDICTED BY IDOCK:   -7.16 KCAL/MOL
REMARK 924 INTRA-LIGAND FREE ENERGY PREDICTED BY IDOCK:   -1.38 KCAL/MOL
REMARK 927      BINDING AFFINITY PREDICTED BY RF-SCORE:    0.00 PKD
ROOT
HETATM    1  C   UNL     1     -10.529  16.807  65.593  1.00  0.00    -0.269 C  
HETATM    2  O   UNL     1     -10.760  15.558  64.942  1.00  0.00    -0.428 OA 
ENDROOT
BRANCH   2   3
HETATM    3  C   UNL     1     -10.426  14.435  65.650  1.00  0.00    -0.334 A  
HETATM    4  C   UNL     1      -9.426  14.364  66.604  1.00  0.00    -0.300 A  
HETATM    5  C   UNL     1      -9.148  13.151  67.241  1.00  0.00    -0.217 A  
HETATM    6  C   UNL     1      -9.851  11.962  66.961  1.00  0.00    -0.206 A  
HETATM    7  C   UNL     1     -11.173  13.287  65.380  1.00  0.00    -0.306 A  
HETATM    8  C   UNL     1     -10.896  12.065  66.026  1.00  0.00    -0.329 A  
BRANCH   6   9
HETATM    9  C   UNL     1      -9.546  10.620  67.676  1.00  0.00    -0.161 C  
HETATM   10  S   UNL     1     -10.291   9.199  66.760  1.00  0.00    -0.202 SA 
HETATM   11  C   UNL     1      -9.070   8.033  67.235  1.00  0.00    -0.135 A  
HETATM   12  C   UNL     1      -9.005   7.521  68.541  1.00  0.00    -0.128 A  
HETATM   13  C   UNL     1      -7.995   6.607  68.829  1.00  0.00    -0.118 A  
HETATM   14  N   UNL     1      -9.921   8.001  69.551  1.00  0.00    -0.182 N  
HETATM   15  C   UNL     1      -8.129   7.673  66.254  1.00  0.00    -0.112 A  
HETATM   16  C   UNL     1      -7.043   6.256  67.848  1.00  0.00    -0.085 A  
HETATM   17  C   UNL     1      -9.657   9.300  70.033  1.00  0.00    -0.209 C  
HETATM   18  O   UNL     1      -9.296   9.466  71.205  1.00  0.00    -0.246 OA 
HETATM   19  C   UNL     1      -7.105   6.794  66.565  1.00  0.00    -0.071 A  
HETATM   20  C   UNL     1     -10.015  10.543  69.152  1.00  0.00    -0.220 C  
BRANCH  14  21
HETATM   21  C   UNL     1     -10.355   6.997  70.568  1.00  0.00    -0.201 C  
BRANCH  21  22
HETATM   22  C   UNL     1     -11.894   6.739  70.532  1.00  0.00    -0.362 C  
BRANCH  22  23
HETATM   23  N   UNL     1     -12.770   7.714  71.236  1.00  0.00    -0.305 NA 
HETATM   24  C   UNL     1     -12.135   8.121  72.501  1.00  0.00    -0.318 C  
HETATM   25  C   UNL     1     -14.102   7.184  71.529  1.00  0.00    -0.326 C  
ENDBRANCH  22  23
ENDBRANCH  21  22
ENDBRANCH  14  21
BRANCH  20  26
HETATM   26  O   UNL     1     -11.449  10.686  69.135  1.00  0.00    -0.259 OA 
BRANCH  26  27
HETATM   27  C   UNL     1     -11.985  11.500  70.071  1.00  0.00    -0.357 C  
HETATM   28  C   UNL     1     -11.900  12.914  69.591  1.00  0.00    -0.387 C  
HETATM   29  O   UNL     1     -12.432  11.153  71.152  1.00  0.00    -0.382 OA 
ENDBRANCH  26  27
ENDBRANCH  20  26
ENDBRANCH   6   9
ENDBRANCH   2   3
TORSDOF 7
ENDMDL
MODEL       26
REMARK 921   NORMALIZED FREE ENERGY PREDICTED BY IDOCK:   -5.25 KCAL/MOL
REMARK 922        TOTAL FREE ENERGY PREDICTED BY IDOCK:   -8.51 KCAL/MOL
REMARK 923 INTER-LIGAND FREE ENERGY PREDICTED BY IDOCK:   -7.24 KCAL/MOL
REMARK 924 INTRA-LIGAND FREE ENERGY PREDICTED BY IDOCK:   -1.27 KCAL/MOL
REMARK 927      BINDING AFFINITY PREDICTED BY RF-SCORE:    0.00 PKD
ROOT
HETATM    1  C   UNL     1      -7.946   6.807  64.808  1.00  0.00    -0.120 C  
HETATM    2  O   UNL     1      -7.090   7.941  64.947  1.00  0.00    -0.064 OA 
ENDROOT
BRANCH   2   3
HETATM    3  C   UNL     1      -7.680   9.094  65.389  1.00  0.00    -0.098 A  
HETATM    4  C   UNL     1      -8.994   9.458  65.151  1.00  0.00    -0.258 A  
HETATM    5  C   UNL     1      -9.480  10.681  65.621  1.00  0.00    -0.257 A  
HETATM    6  C   UNL     1      -8.686  11.591  66.349  1.00  0.00    -0.179 A  
HETATM    7  C   UNL     1      -6.877   9.951  66.145  1.00  0.00    -0.097 A  
HETATM    8  C   UNL     1      -7.370  11.182  66.624  1.00  0.00    -0.145 A  
BRANCH   6   9
HETATM    9  C   UNL     1      -9.231  12.943  66.878  1.00  0.00    -0.234 C  
HETATM   10  S   UNL     1      -7.986  13.782  67.953  1.00  0.00    -0.175 SA 
HETATM   11  C   UNL     1      -8.496  15.414  67.560  1.00  0.00    -0.173 A  
HETATM   12  C   UNL     1      -9.697  15.951  68.051  1.00  0.00    -0.216 A  
HETATM   13  C   UNL     1     -10.025  17.252  67.678  1.00  0.00    -0.297 A  
HETATM   14  N   UNL     1     -10.579  15.133  68.853  1.00  0.00    -0.233 N  
HETATM   15  C   UNL     1      -7.665  16.141  66.689  1.00  0.00    -0.265 A  
HETATM   16  C   UNL     1      -9.198  17.976  66.793  1.00  0.00    -0.285 A  
HETATM   17  C   UNL     1     -11.295  14.147  68.142  1.00  0.00    -0.290 C  
HETATM   18  O   UNL     1     -12.526  14.230  68.035  1.00  0.00    -0.098 OA 
HETATM   19  C   UNL     1      -8.023  17.419  66.294  1.00  0.00    -0.314 A  
HETATM   20  C   UNL     1     -10.564  12.849  67.664  1.00  0.00    -0.223 C  
BRANCH  14  21
HETATM   21  C   UNL     1     -11.331  15.846  69.929  1.00  0.00    -0.348 C  
BRANCH  21  22
HETATM   22  C   UNL     1     -11.291  15.082  71.290  1.00  0.00    -0.267 C  
BRANCH  22  23
HETATM   23  N   UNL     1     -12.578  14.560  71.822  1.00  0.00    -0.333 NA 
HETATM   24  C   UNL     1     -13.699  15.212  71.125  1.00  0.00    -0.437 C  
HETATM   25  C   UNL     1     -12.734  14.774  73.261  1.00  0.00    -0.482 C  
ENDBRANCH  22  23
ENDBRANCH  21  22
ENDBRANCH  14  21
BRANCH  20  26
HETATM   26  O   UNL     1     -10.301  12.028  68.820  1.00  0.00    -0.218 OA 
BRANCH  26  27
HETATM   27  C   UNL     1     -11.163  11.013  69.047  1.00  0.00    -0.258 C  
HETATM   28  C   UNL     1     -10.547  10.062  70.024  1.00  0.00    -0.344 C  
HETATM   29  O   UNL     1     -12.252  10.865  68.518  1.00  0.00    -0.535 OA 
ENDBRANCH  26  27
ENDBRANCH  20  26
ENDBRANCH   6   9
ENDBRANCH   2   3
TORSDOF 7
ENDMDL
MODEL       27
REMARK 921   NORMALIZED FREE ENERGY PREDICTED BY IDOCK:   -5.17 KCAL/MOL
REMARK 922        TOTAL FREE ENERGY PREDICTED BY IDOCK:   -8.40 KCAL/MOL
REMARK 923 INTER-LIGAND FREE ENERGY PREDICTED BY IDOCK:   -7.00 KCAL/MOL
REMARK 924 INTRA-LIGAND FREE ENERGY PREDICTED BY IDOCK:   -1.40 KCAL/MOL
REMARK 927      BINDING AFFINITY PREDICTED BY RF-SCORE:    0.00 PKD
ROOT
HETATM    1  C   UNL     1     -10.061   4.425  74.367  1.00  0.00    -0.206 C  
HETATM    2  O   UNL     1     -11.141   5.288  74.011  1.00  0.00    -0.212 OA 
ENDROOT
BRANCH   2   3
HETATM    3  C   UNL     1     -10.951   6.072  72.905  1.00  0.00    -0.269 A  
HETATM    4  C   UNL     1     -11.647   5.952  71.715  1.00  0.00    -0.220 A  
HETATM    5  C   UNL     1     -11.342   6.787  70.636  1.00  0.00    -0.384 A  
HETATM    6  C   UNL     1     -10.338   7.775  70.693  1.00  0.00    -0.202 A  
HETATM    7  C   UNL     1      -9.980   7.070  73.012  1.00  0.00    -0.227 A  
HETATM    8  C   UNL     1      -9.677   7.915  71.925  1.00  0.00    -0.231 A  
BRANCH   6   9
HETATM    9  C   UNL     1     -10.009   8.706  69.497  1.00  0.00    -0.196 C  
HETATM   10  S   UNL     1      -8.333   9.458  69.687  1.00  0.00    -0.164 SA 
HETATM   11  C   UNL     1      -8.006   9.578  67.968  1.00  0.00    -0.091 A  
HETATM   12  C   UNL     1      -8.649  10.528  67.158  1.00  0.00    -0.127 A  
HETATM   13  C   UNL     1      -8.333  10.544  65.802  1.00  0.00    -0.166 A  
HETATM   14  N   UNL     1      -9.655  11.398  67.726  1.00  0.00    -0.169 N  
HETATM   15  C   UNL     1      -7.103   8.644  67.432  1.00  0.00    -0.080 A  
HETATM   16  C   UNL     1      -7.437   9.597  65.263  1.00  0.00    -0.113 A  
HETATM   17  C   UNL     1     -10.892  10.782  68.008  1.00  0.00    -0.255 C  
HETATM   18  O   UNL     1     -11.904  11.100  67.369  1.00  0.00    -0.570 OA 
HETATM   19  C   UNL     1      -6.828   8.643  66.075  1.00  0.00    -0.065 A  
HETATM   20  C   UNL     1     -11.029   9.849  69.257  1.00  0.00    -0.211 C  
BRANCH  14  21
HETATM   21  C   UNL     1      -9.721  12.777  67.156  1.00  0.00    -0.216 C  
BRANCH  21  22
HETATM   22  C   UNL     1      -9.876  13.871  68.260  1.00  0.00    -0.231 C  
BRANCH  22  23
HETATM   23  N   UNL     1     -10.959  14.874  68.084  1.00  0.00    -0.263 NA 
HETATM   24  C   UNL     1     -11.786  14.507  66.922  1.00  0.00    -0.377 C  
HETATM   25  C   UNL     1     -10.457  16.235  67.890  1.00  0.00    -0.295 C  
ENDBRANCH  22  23
ENDBRANCH  21  22
ENDBRANCH  14  21
BRANCH  20  26
HETATM   26  O   UNL     1     -11.007  10.673  70.439  1.00  0.00    -0.256 OA 
BRANCH  26  27
HETATM   27  C   UNL     1     -12.175  11.256  70.789  1.00  0.00    -0.380 C  
HETATM   28  C   UNL     1     -13.150  10.192  71.182  1.00  0.00    -0.480 C  
HETATM   29  O   UNL     1     -12.417  12.451  70.756  1.00  0.00    -0.349 OA 
ENDBRANCH  26  27
ENDBRANCH  20  26
ENDBRANCH   6   9
ENDBRANCH   2   3
TORSDOF 7
ENDMDL
MODEL       28
REMARK 921   NORMALIZED FREE ENERGY PREDICTED BY IDOCK:   -5.16 KCAL/MOL
REMARK 922        TOTAL FREE ENERGY PREDICTED BY IDOCK:   -8.38 KCAL/MOL
REMARK 923 INTER-LIGAND FREE ENERGY PREDICTED BY IDOCK:   -7.30 KCAL/MOL
REMARK 924 INTRA-LIGAND FREE ENERGY PREDICTED BY IDOCK:   -1.08 KCAL/MOL
REMARK 927      BINDING AFFINITY PREDICTED BY RF-SCORE:    0.00 PKD
ROOT
HETATM    1  C   UNL     1     -10.533   5.384  73.540  1.00  0.00    -0.247 C  
HETATM    2  O   UNL     1     -10.925   6.717  73.867  1.00  0.00    -0.105 OA 
ENDROOT
BRANCH   2   3
HETATM    3  C   UNL     1     -10.834   7.639  72.859  1.00  0.00    -0.389 A  
HETATM    4  C   UNL     1     -11.910   8.268  72.256  1.00  0.00    -0.451 A  
HETATM    5  C   UNL     1     -11.700   9.169  71.208  1.00  0.00    -0.396 A  
HETATM    6  C   UNL     1     -10.416   9.485  70.719  1.00  0.00    -0.384 A  
HETATM    7  C   UNL     1      -9.546   7.964  72.430  1.00  0.00    -0.270 A  
HETATM    8  C   UNL     1      -9.334   8.876  71.377  1.00  0.00    -0.338 A  
BRANCH   6   9
HETATM    9  C   UNL     1     -10.185  10.493  69.562  1.00  0.00    -0.200 C  
HETATM   10  S   UNL     1     -11.767  11.314  69.077  1.00  0.00    -0.362 SA 
HETATM   11  C   UNL     1     -11.027  12.821  68.569  1.00  0.00    -0.258 A  
HETATM   12  C   UNL     1     -10.286  12.916  67.380  1.00  0.00    -0.233 A  
HETATM   13  C   UNL     1      -9.727  14.151  67.062  1.00  0.00    -0.258 A  
HETATM   14  N   UNL     1     -10.065  11.738  66.571  1.00  0.00    -0.200 N  
HETATM   15  C   UNL     1     -11.173  13.918  69.436  1.00  0.00    -0.273 A  
HETATM   16  C   UNL     1      -9.861  15.247  67.940  1.00  0.00    -0.216 A  
HETATM   17  C   UNL     1      -9.133  10.817  67.093  1.00  0.00    -0.144 C  
HETATM   18  O   UNL     1      -8.056  10.626  66.513  1.00  0.00    -0.129 OA 
HETATM   19  C   UNL     1     -10.577  15.129  69.129  1.00  0.00    -0.256 A  
HETATM   20  C   UNL     1      -9.541   9.891  68.287  1.00  0.00    -0.140 C  
BRANCH  14  21
HETATM   21  C   UNL     1     -10.014  11.961  65.095  1.00  0.00    -0.247 C  
BRANCH  21  22
HETATM   22  C   UNL     1     -10.483  10.710  64.287  1.00  0.00    -0.151 C  
BRANCH  22  23
HETATM   23  N   UNL     1      -9.615  10.249  63.171  1.00  0.00    -0.297 NA 
HETATM   24  C   UNL     1      -8.649   9.258  63.676  1.00  0.00    -0.196 C  
HETATM   25  C   UNL     1      -8.877  11.337  62.529  1.00  0.00    -0.216 C  
ENDBRANCH  22  23
ENDBRANCH  21  22
ENDBRANCH  14  21
BRANCH  20  26
HETATM   26  O   UNL     1     -10.462   8.898  67.793  1.00  0.00    -0.237 OA 
BRANCH  26  27
HETATM   27  C   UNL     1      -9.970   7.650  67.628  1.00  0.00    -0.175 C  
HETATM   28  C   UNL     1     -11.068   6.756  67.144  1.00  0.00    -0.404 C  
HETATM   29  O   UNL     1      -8.830   7.291  67.868  1.00  0.00    -0.129 OA 
ENDBRANCH  26  27
ENDBRANCH  20  26
ENDBRANCH   6   9
ENDBRANCH   2   3
TORSDOF 7
ENDMDL
MODEL       29
REMARK 921   NORMALIZED FREE ENERGY PREDICTED BY IDOCK:   -5.12 KCAL/MOL
REMARK 922        TOTAL FREE ENERGY PREDICTED BY IDOCK:   -8.33 KCAL/MOL
REMARK 923 INTER-LIGAND FREE ENERGY PREDICTED BY IDOCK:   -7.03 KCAL/MOL
REMARK 924 INTRA-LIGAND FREE ENERGY PREDICTED BY IDOCK:   -1.30 KCAL/MOL
REMARK 927      BINDING AFFINITY PREDICTED BY RF-SCORE:    0.00 PKD
ROOT
HETATM    1  C   UNL     1      -9.418   3.317  70.117  1.00  0.00    -0.163 C  
HETATM    2  O   UNL     1      -8.992   3.608  68.786  1.00  0.00    -0.104 OA 
ENDROOT
BRANCH   2   3
HETATM    3  C   UNL     1      -9.165   4.898  68.363  1.00  0.00    -0.124 A  
HETATM    4  C   UNL     1      -8.149   5.745  67.955  1.00  0.00    -0.104 A  
HETATM    5  C   UNL     1      -8.440   7.060  67.578  1.00  0.00    -0.122 A  
HETATM    6  C   UNL     1      -9.748   7.586  67.586  1.00  0.00    -0.182 A  
HETATM    7  C   UNL     1     -10.478   5.373  68.341  1.00  0.00    -0.191 A  
HETATM    8  C   UNL     1     -10.771   6.696  67.955  1.00  0.00    -0.341 A  
BRANCH   6   9
HETATM    9  C   UNL     1     -10.068   9.042  67.157  1.00  0.00    -0.243 C  
HETATM   10  S   UNL     1      -8.550   9.898  66.545  1.00  0.00    -0.125 SA 
HETATM   11  C   UNL     1      -9.390  10.944  65.415  1.00  0.00    -0.208 A  
HETATM   12  C   UNL     1     -10.168  12.030  65.851  1.00  0.00    -0.232 A  
HETATM   13  C   UNL     1     -10.807  12.800  64.882  1.00  0.00    -0.326 A  
HETATM   14  N   UNL     1     -10.343  12.270  67.266  1.00  0.00    -0.213 N  
HETATM   15  C   UNL     1      -9.285  10.613  64.053  1.00  0.00    -0.269 A  
HETATM   16  C   UNL     1     -10.712  12.458  63.517  1.00  0.00    -0.473 A  
HETATM   17  C   UNL     1     -11.205  11.370  67.927  1.00  0.00    -0.288 C  
HETATM   18  O   UNL     1     -12.284  11.767  68.385  1.00  0.00    -0.467 OA 
HETATM   19  C   UNL     1      -9.958  11.363  63.103  1.00  0.00    -0.402 A  
HETATM   20  C   UNL     1     -10.711   9.923  68.258  1.00  0.00    -0.234 C  
BRANCH  14  21
HETATM   21  C   UNL     1     -10.447  13.703  67.676  1.00  0.00    -0.238 C  
BRANCH  21  22
HETATM   22  C   UNL     1      -9.050  14.360  67.905  1.00  0.00    -0.187 C  
BRANCH  22  23
HETATM   23  N   UNL     1      -8.943  15.831  67.712  1.00  0.00    -0.176 NA 
HETATM   24  C   UNL     1      -8.332  16.113  66.402  1.00  0.00    -0.322 C  
HETATM   25  C   UNL     1      -8.151  16.492  68.749  1.00  0.00    -0.244 C  
ENDBRANCH  22  23
ENDBRANCH  21  22
ENDBRANCH  14  21
BRANCH  20  26
HETATM   26  O   UNL     1      -9.748  10.009  69.328  1.00  0.00    -0.191 OA 
BRANCH  26  27
HETATM   27  C   UNL     1     -10.141   9.536  70.532  1.00  0.00    -0.285 C  
HETATM   28  C   UNL     1      -9.072   8.640  71.073  1.00  0.00    -0.248 C  
HETATM   29  O   UNL     1     -11.207   9.764  71.079  1.00  0.00    -0.330 OA 
ENDBRANCH  26  27
ENDBRANCH  20  26
ENDBRANCH   6   9
ENDBRANCH   2   3
TORSDOF 7
ENDMDL
MODEL       30
REMARK 921   NORMALIZED FREE ENERGY PREDICTED BY IDOCK:   -5.06 KCAL/MOL
REMARK 922        TOTAL FREE ENERGY PREDICTED BY IDOCK:   -8.25 KCAL/MOL
REMARK 923 INTER-LIGAND FREE ENERGY PREDICTED BY IDOCK:   -7.58 KCAL/MOL
REMARK 924 INTRA-LIGAND FREE ENERGY PREDICTED BY IDOCK:   -0.67 KCAL/MOL
REMARK 927      BINDING AFFINITY PREDICTED BY RF-SCORE:    0.00 PKD
ROOT
HETATM    1  C   UNL     1     -13.399  15.529  72.289  1.00  0.00    -0.473 C  
HETATM    2  O   UNL     1     -13.828  14.206  72.612  1.00  0.00    -0.598 OA 
ENDROOT
BRANCH   2   3
HETATM    3  C   UNL     1     -13.267  13.192  71.884  1.00  0.00    -0.431 A  
HETATM    4  C   UNL     1     -13.394  11.843  72.167  1.00  0.00    -0.361 A  
HETATM    5  C   UNL     1     -12.744  10.894  71.372  1.00  0.00    -0.539 A  
HETATM    6  C   UNL     1     -11.946  11.244  70.264  1.00  0.00    -0.466 A  
HETATM    7  C   UNL     1     -12.520  13.572  70.767  1.00  0.00    -0.428 A  
HETATM    8  C   UNL     1     -11.869  12.614  69.962  1.00  0.00    -0.358 A  
BRANCH   6   9
HETATM    9  C   UNL     1     -11.234  10.188  69.378  1.00  0.00    -0.215 C  
HETATM   10  S   UNL     1      -9.838   9.393  70.291  1.00  0.00    -0.259 SA 
HETATM   11  C   UNL     1      -9.956   7.849  69.468  1.00  0.00    -0.189 A  
HETATM   12  C   UNL     1      -9.545   7.689  68.134  1.00  0.00    -0.149 A  
HETATM   13  C   UNL     1      -9.684   6.428  67.560  1.00  0.00    -0.137 A  
HETATM   14  N   UNL     1      -9.067   8.830  67.385  1.00  0.00    -0.132 N  
HETATM   15  C   UNL     1     -10.526   6.789  70.195  1.00  0.00    -0.240 A  
HETATM   16  C   UNL     1     -10.270   5.370  68.285  1.00  0.00    -0.224 A  
HETATM   17  C   UNL     1     -10.063   9.744  66.982  1.00  0.00    -0.218 C  
HETATM   18  O   UNL     1     -10.330   9.883  65.781  1.00  0.00    -0.221 OA 
HETATM   19  C   UNL     1     -10.697   5.551  69.599  1.00  0.00    -0.349 A  
HETATM   20  C   UNL     1     -10.687  10.724  68.030  1.00  0.00    -0.228 C  
BRANCH  14  21
HETATM   21  C   UNL     1      -7.989   8.551  66.390  1.00  0.00    -0.099 C  
BRANCH  21  22
HETATM   22  C   UNL     1      -6.932   9.697  66.319  1.00  0.00    -0.092 C  
BRANCH  22  23
HETATM   23  N   UNL     1      -6.702  10.338  64.997  1.00  0.00    -0.125 NA 
HETATM   24  C   UNL     1      -7.178   9.445  63.927  1.00  0.00    -0.102 C  
HETATM   25  C   UNL     1      -5.295  10.656  64.749  1.00  0.00    -0.135 C  
ENDBRANCH  22  23
ENDBRANCH  21  22
ENDBRANCH  14  21
BRANCH  20  26
HETATM   26  O   UNL     1      -9.701  11.723  68.356  1.00  0.00    -0.194 OA 
BRANCH  26  27
HETATM   27  C   UNL     1      -9.462  12.664  67.416  1.00  0.00    -0.189 C  
HETATM   28  C   UNL     1      -8.024  13.071  67.491  1.00  0.00    -0.177 C  
HETATM   29  O   UNL     1     -10.285  13.139  66.652  1.00  0.00    -0.250 OA 
ENDBRANCH  26  27
ENDBRANCH  20  26
ENDBRANCH   6   9
ENDBRANCH   2   3
TORSDOF 7
ENDMDL
MODEL       31
REMARK 921   NORMALIZED FREE ENERGY PREDICTED BY IDOCK:   -5.02 KCAL/MOL
REMARK 922        TOTAL FREE ENERGY PREDICTED BY IDOCK:   -8.20 KCAL/MOL
REMARK 923 INTER-LIGAND FREE ENERGY PREDICTED BY IDOCK:   -8.08 KCAL/MOL
REMARK 924 INTRA-LIGAND FREE ENERGY PREDICTED BY IDOCK:   -0.11 KCAL/MOL
REMARK 927      BINDING AFFINITY PREDICTED BY RF-SCORE:    0.00 PKD
ROOT
HETATM    1  C   UNL     1      -8.610   3.052  65.635  1.00  0.00    -0.115 C  
HETATM    2  O   UNL     1      -8.916   3.674  66.884  1.00  0.00    -0.122 OA 
ENDROOT
BRANCH   2   3
HETATM    3  C   UNL     1      -9.220   5.008  66.838  1.00  0.00    -0.120 A  
HETATM    4  C   UNL     1      -8.314   6.022  66.578  1.00  0.00    -0.113 A  
HETATM    5  C   UNL     1      -8.731   7.356  66.593  1.00  0.00    -0.141 A  
HETATM    6  C   UNL     1     -10.061   7.738  66.861  1.00  0.00    -0.356 A  
HETATM    7  C   UNL     1     -10.555   5.348  67.064  1.00  0.00    -0.298 A  
HETATM    8  C   UNL     1     -10.976   6.693  67.072  1.00  0.00    -0.463 A  
BRANCH   6   9
HETATM    9  C   UNL     1     -10.522   9.220  66.866  1.00  0.00    -0.214 C  
HETATM   10  S   UNL     1      -9.312  10.290  65.970  1.00  0.00    -0.191 SA 
HETATM   11  C   UNL     1     -10.498  11.461  65.420  1.00  0.00    -0.280 A  
HETATM   12  C   UNL     1     -11.090  12.382  66.300  1.00  0.00    -0.303 A  
HETATM   13  C   UNL     1     -12.028  13.267  65.775  1.00  0.00    -0.463 A  
HETATM   14  N   UNL     1     -10.772  12.340  67.710  1.00  0.00    -0.211 N  
HETATM   15  C   UNL     1     -10.861  11.399  64.064  1.00  0.00    -0.450 A  
HETATM   16  C   UNL     1     -12.402  13.195  64.417  1.00  0.00    -0.426 A  
HETATM   17  C   UNL     1     -11.348  11.269  68.423  1.00  0.00    -0.281 C  
HETATM   18  O   UNL     1     -12.210  11.488  69.285  1.00  0.00    -0.283 OA 
HETATM   19  C   UNL     1     -11.825  12.258  63.564  1.00  0.00    -0.601 A  
HETATM   20  C   UNL     1     -10.758   9.827  68.273  1.00  0.00    -0.233 C  
BRANCH  14  21
HETATM   21  C   UNL     1     -10.744  13.659  68.411  1.00  0.00    -0.258 C  
BRANCH  21  22
HETATM   22  C   UNL     1     -12.142  14.063  68.977  1.00  0.00    -0.323 C  
BRANCH  22  23
HETATM   23  N   UNL     1     -12.168  14.936  70.181  1.00  0.00    -0.321 NA 
HETATM   24  C   UNL     1     -10.859  15.589  70.344  1.00  0.00    -0.335 C  
HETATM   25  C   UNL     1     -12.486  14.210  71.411  1.00  0.00    -0.359 C  
ENDBRANCH  22  23
ENDBRANCH  21  22
ENDBRANCH  14  21
BRANCH  20  26
HETATM   26  O   UNL     1      -9.488   9.787  68.955  1.00  0.00    -0.151 OA 
BRANCH  26  27
HETATM   27  C   UNL     1      -9.505   9.347  70.232  1.00  0.00    -0.251 C  
HETATM   28  C   UNL     1     -10.683   8.444  70.420  1.00  0.00    -0.244 C  
HETATM   29  O   UNL     1      -8.715   9.660  71.108  1.00  0.00    -0.180 OA 
ENDBRANCH  26  27
ENDBRANCH  20  26
ENDBRANCH   6   9
ENDBRANCH   2   3
TORSDOF 7
ENDMDL
MODEL       32
REMARK 921   NORMALIZED FREE ENERGY PREDICTED BY IDOCK:   -5.01 KCAL/MOL
REMARK 922        TOTAL FREE ENERGY PREDICTED BY IDOCK:   -8.17 KCAL/MOL
REMARK 923 INTER-LIGAND FREE ENERGY PREDICTED BY IDOCK:   -6.98 KCAL/MOL
REMARK 924 INTRA-LIGAND FREE ENERGY PREDICTED BY IDOCK:   -1.20 KCAL/MOL
REMARK 927      BINDING AFFINITY PREDICTED BY RF-SCORE:    0.00 PKD
ROOT
HETATM    1  C   UNL     1     -10.627  19.545  65.814  1.00  0.00    -0.427 C  
HETATM    2  O   UNL     1      -9.661  19.170  66.796  1.00  0.00    -0.307 OA 
ENDROOT
BRANCH   2   3
HETATM    3  C   UNL     1      -9.536  17.829  67.041  1.00  0.00    -0.271 A  
HETATM    4  C   UNL     1      -8.443  17.055  66.690  1.00  0.00    -0.283 A  
HETATM    5  C   UNL     1      -8.439  15.683  66.958  1.00  0.00    -0.257 A  
HETATM    6  C   UNL     1      -9.515  15.025  67.587  1.00  0.00    -0.195 A  
HETATM    7  C   UNL     1     -10.600  17.218  67.705  1.00  0.00    -0.367 A  
HETATM    8  C   UNL     1     -10.594  15.835  67.980  1.00  0.00    -0.279 A  
BRANCH   6   9
HETATM    9  C   UNL     1      -9.504  13.504  67.892  1.00  0.00    -0.215 C  
HETATM   10  S   UNL     1      -7.984  12.706  67.210  1.00  0.00    -0.137 SA 
HETATM   11  C   UNL     1      -7.885  11.455  68.436  1.00  0.00    -0.135 A  
HETATM   12  C   UNL     1      -8.781  10.374  68.463  1.00  0.00    -0.135 A  
HETATM   13  C   UNL     1      -8.632   9.434  69.480  1.00  0.00    -0.158 A  
HETATM   14  N   UNL     1      -9.857  10.305  67.500  1.00  0.00    -0.169 N  
HETATM   15  C   UNL     1      -6.893  11.615  69.419  1.00  0.00    -0.086 A  
HETATM   16  C   UNL     1      -7.645   9.603  70.474  1.00  0.00    -0.151 A  
HETATM   17  C   UNL     1     -10.919  11.207  67.720  1.00  0.00    -0.262 C  
HETATM   18  O   UNL     1     -12.039  10.783  68.035  1.00  0.00    -0.474 OA 
HETATM   19  C   UNL     1      -6.781  10.695  70.448  1.00  0.00    -0.017 A  
HETATM   20  C   UNL     1     -10.737  12.721  67.371  1.00  0.00    -0.230 C  
BRANCH  14  21
HETATM   21  C   UNL     1     -10.242   8.933  67.050  1.00  0.00    -0.275 C  
BRANCH  21  22
HETATM   22  C   UNL     1      -9.106   8.233  66.238  1.00  0.00    -0.188 C  
BRANCH  22  23
HETATM   23  N   UNL     1      -8.832   6.802  66.536  1.00  0.00    -0.138 NA 
HETATM   24  C   UNL     1      -9.413   6.451  67.843  1.00  0.00    -0.115 C  
HETATM   25  C   UNL     1      -7.405   6.482  66.557  1.00  0.00    -0.078 C  
ENDBRANCH  22  23
ENDBRANCH  21  22
ENDBRANCH  14  21
BRANCH  20  26
HETATM   26  O   UNL     1     -10.731  12.856  65.936  1.00  0.00    -0.266 OA 
BRANCH  26  27
HETATM   27  C   UNL     1     -11.868  13.317  65.369  1.00  0.00    -0.359 C  
HETATM   28  C   UNL     1     -11.583  14.630  64.711  1.00  0.00    -0.418 C  
HETATM   29  O   UNL     1     -12.961  12.779  65.414  1.00  0.00    -0.587 OA 
ENDBRANCH  26  27
ENDBRANCH  20  26
ENDBRANCH   6   9
ENDBRANCH   2   3
TORSDOF 7
ENDMDL
MODEL       33
REMARK 921   NORMALIZED FREE ENERGY PREDICTED BY IDOCK:   -5.01 KCAL/MOL
REMARK 922        TOTAL FREE ENERGY PREDICTED BY IDOCK:   -8.17 KCAL/MOL
REMARK 923 INTER-LIGAND FREE ENERGY PREDICTED BY IDOCK:   -6.83 KCAL/MOL
REMARK 924 INTRA-LIGAND FREE ENERGY PREDICTED BY IDOCK:   -1.33 KCAL/MOL
REMARK 927      BINDING AFFINITY PREDICTED BY RF-SCORE:    0.00 PKD
ROOT
HETATM    1  C   UNL     1     -10.591  17.661  65.804  1.00  0.00    -0.177 C  
HETATM    2  O   UNL     1     -10.734  16.633  64.824  1.00  0.00    -0.721 OA 
ENDROOT
BRANCH   2   3
HETATM    3  C   UNL     1     -10.460  15.358  65.240  1.00  0.00    -0.415 A  
HETATM    4  C   UNL     1     -10.997  14.208  64.688  1.00  0.00    -0.393 A  
HETATM    5  C   UNL     1     -10.672  12.956  65.219  1.00  0.00    -0.318 A  
HETATM    6  C   UNL     1      -9.800  12.794  66.315  1.00  0.00    -0.269 A  
HETATM    7  C   UNL     1      -9.558  15.232  66.298  1.00  0.00    -0.331 A  
HETATM    8  C   UNL     1      -9.226  13.969  66.830  1.00  0.00    -0.280 A  
BRANCH   6   9
HETATM    9  C   UNL     1      -9.434  11.403  66.896  1.00  0.00    -0.179 C  
HETATM   10  S   UNL     1     -10.057  10.048  65.805  1.00  0.00    -0.208 SA 
HETATM   11  C   UNL     1      -8.780   8.913  66.201  1.00  0.00    -0.153 A  
HETATM   12  C   UNL     1      -8.725   8.267  67.447  1.00  0.00    -0.124 A  
HETATM   13  C   UNL     1      -7.669   7.388  67.676  1.00  0.00    -0.112 A  
HETATM   14  N   UNL     1      -9.704   8.579  68.465  1.00  0.00    -0.160 N  
HETATM   15  C   UNL     1      -7.786   8.717  65.226  1.00  0.00    -0.109 A  
HETATM   16  C   UNL     1      -6.665   7.204  66.702  1.00  0.00    -0.060 A  
HETATM   17  C   UNL     1      -9.539   9.831  69.092  1.00  0.00    -0.188 C  
HETATM   18  O   UNL     1      -9.227   9.890  70.289  1.00  0.00    -0.215 OA 
HETATM   19  C   UNL     1      -6.719   7.873  65.482  1.00  0.00    -0.045 A  
HETATM   20  C   UNL     1      -9.945  11.139  68.335  1.00  0.00    -0.187 C  
BRANCH  14  21
HETATM   21  C   UNL     1     -10.106   7.446  69.351  1.00  0.00    -0.185 C  
BRANCH  21  22
HETATM   22  C   UNL     1     -11.577   7.578  69.857  1.00  0.00     0.135 C  
BRANCH  22  23
HETATM   23  N   UNL     1     -11.817   7.426  71.317  1.00  0.00    -0.290 NA 
HETATM   24  C   UNL     1     -11.054   6.273  71.824  1.00  0.00    -0.273 C  
HETATM   25  C   UNL     1     -13.229   7.236  71.651  1.00  0.00    -0.366 C  
ENDBRANCH  22  23
ENDBRANCH  21  22
ENDBRANCH  14  21
BRANCH  20  26
HETATM   26  O   UNL     1     -11.385  11.197  68.277  1.00  0.00    -0.247 OA 
BRANCH  26  27
HETATM   27  C   UNL     1     -12.012  11.702  69.361  1.00  0.00    -0.316 C  
HETATM   28  C   UNL     1     -12.004  13.196  69.275  1.00  0.00    -0.344 C  
HETATM   29  O   UNL     1     -12.478  11.057  70.286  1.00  0.00    -0.305 OA 
ENDBRANCH  26  27
ENDBRANCH  20  26
ENDBRANCH   6   9
ENDBRANCH   2   3
TORSDOF 7
ENDMDL
MODEL       34
REMARK 921   NORMALIZED FREE ENERGY PREDICTED BY IDOCK:   -4.92 KCAL/MOL
REMARK 922        TOTAL FREE ENERGY PREDICTED BY IDOCK:   -8.05 KCAL/MOL
REMARK 923 INTER-LIGAND FREE ENERGY PREDICTED BY IDOCK:   -6.69 KCAL/MOL
REMARK 924 INTRA-LIGAND FREE ENERGY PREDICTED BY IDOCK:   -1.37 KCAL/MOL
REMARK 927      BINDING AFFINITY PREDICTED BY RF-SCORE:    0.00 PKD
ROOT
HETATM    1  C   UNL     1      -7.975   6.617  62.837  1.00  0.00    -0.083 C  
HETATM    2  O   UNL     1      -8.267   6.626  64.234  1.00  0.00    -0.082 OA 
ENDROOT
BRANCH   2   3
HETATM    3  C   UNL     1      -8.395   7.857  64.818  1.00  0.00    -0.058 A  
HETATM    4  C   UNL     1      -9.030   8.106  66.023  1.00  0.00    -0.213 A  
HETATM    5  C   UNL     1      -9.132   9.413  66.507  1.00  0.00    -0.188 A  
HETATM    6  C   UNL     1      -8.606  10.526  65.819  1.00  0.00    -0.180 A  
HETATM    7  C   UNL     1      -7.823   8.931  64.132  1.00  0.00    -0.135 A  
HETATM    8  C   UNL     1      -7.921  10.248  64.623  1.00  0.00    -0.131 A  
BRANCH   6   9
HETATM    9  C   UNL     1      -8.712  11.974  66.363  1.00  0.00    -0.088 C  
HETATM   10  S   UNL     1      -9.030  11.973  68.183  1.00  0.00    -0.190 SA 
HETATM   11  C   UNL     1      -8.202  13.487  68.500  1.00  0.00    -0.104 A  
HETATM   12  C   UNL     1      -8.751  14.723  68.120  1.00  0.00    -0.168 A  
HETATM   13  C   UNL     1      -8.017  15.872  68.404  1.00  0.00    -0.147 A  
HETATM   14  N   UNL     1     -10.000  14.765  67.394  1.00  0.00    -0.223 N  
HETATM   15  C   UNL     1      -6.939  13.398  69.110  1.00  0.00    -0.044 A  
HETATM   16  C   UNL     1      -6.744  15.781  69.004  1.00  0.00    -0.143 A  
HETATM   17  C   UNL     1      -9.923  14.370  66.043  1.00  0.00    -0.317 C  
HETATM   18  O   UNL     1     -10.118  15.196  65.142  1.00  0.00    -0.347 OA 
HETATM   19  C   UNL     1      -6.202  14.545  69.350  1.00  0.00    -0.115 A  
HETATM   20  C   UNL     1      -9.794  12.852  65.683  1.00  0.00    -0.175 C  
BRANCH  14  21
HETATM   21  C   UNL     1     -10.887  15.931  67.690  1.00  0.00    -0.312 C  
BRANCH  21  22
HETATM   22  C   UNL     1     -12.010  15.580  68.716  1.00  0.00    -0.243 C  
BRANCH  22  23
HETATM   23  N   UNL     1     -11.597  14.927  69.987  1.00  0.00    -0.273 NA 
HETATM   24  C   UNL     1     -12.138  13.558  70.035  1.00  0.00    -0.341 C  
HETATM   25  C   UNL     1     -12.048  15.649  71.178  1.00  0.00    -0.404 C  
ENDBRANCH  22  23
ENDBRANCH  21  22
ENDBRANCH  14  21
BRANCH  20  26
HETATM   26  O   UNL     1     -11.062  12.217  65.946  1.00  0.00    -0.296 OA 
BRANCH  26  27
HETATM   27  C   UNL     1     -11.981  12.275  64.957  1.00  0.00    -0.354 C  
HETATM   28  C   UNL     1     -11.364  11.771  63.691  1.00  0.00    -0.525 C  
HETATM   29  O   UNL     1     -13.119  12.703  65.059  1.00  0.00    -0.808 OA 
ENDBRANCH  26  27
ENDBRANCH  20  26
ENDBRANCH   6   9
ENDBRANCH   2   3
TORSDOF 7
ENDMDL
MODEL       35
REMARK 921   NORMALIZED FREE ENERGY PREDICTED BY IDOCK:   -4.91 KCAL/MOL
REMARK 922        TOTAL FREE ENERGY PREDICTED BY IDOCK:   -8.04 KCAL/MOL
REMARK 923 INTER-LIGAND FREE ENERGY PREDICTED BY IDOCK:   -6.88 KCAL/MOL
REMARK 924 INTRA-LIGAND FREE ENERGY PREDICTED BY IDOCK:   -1.16 KCAL/MOL
REMARK 927      BINDING AFFINITY PREDICTED BY RF-SCORE:    0.00 PKD
ROOT
HETATM    1  C   UNL     1      -8.912   5.592  73.930  1.00  0.00    -0.126 C  
HETATM    2  O   UNL     1      -9.981   5.765  72.999  1.00  0.00    -0.169 OA 
ENDROOT
BRANCH   2   3
HETATM    3  C   UNL     1      -9.901   6.860  72.182  1.00  0.00    -0.147 A  
HETATM    4  C   UNL     1      -8.769   7.258  71.493  1.00  0.00    -0.120 A  
HETATM    5  C   UNL     1      -8.792   8.418  70.713  1.00  0.00    -0.171 A  
HETATM    6  C   UNL     1      -9.939   9.227  70.581  1.00  0.00    -0.336 A  
HETATM    7  C   UNL     1     -11.068   7.613  72.038  1.00  0.00    -0.300 A  
HETATM    8  C   UNL     1     -11.093   8.779  71.247  1.00  0.00    -0.348 A  
BRANCH   6   9
HETATM    9  C   UNL     1      -9.965  10.508  69.707  1.00  0.00    -0.045 C  
HETATM   10  S   UNL     1     -11.680  10.879  69.129  1.00  0.00    -0.319 SA 
HETATM   11  C   UNL     1     -11.465  12.618  69.068  1.00  0.00    -0.303 A  
HETATM   12  C   UNL     1     -10.693  13.233  68.068  1.00  0.00    -0.240 A  
HETATM   13  C   UNL     1     -10.571  14.619  68.104  1.00  0.00    -0.237 A  
HETATM   14  N   UNL     1     -10.000  12.423  67.091  1.00  0.00    -0.206 N  
HETATM   15  C   UNL     1     -12.064  13.363  70.098  1.00  0.00    -0.415 A  
HETATM   16  C   UNL     1     -11.161  15.365  69.146  1.00  0.00    -0.291 A  
HETATM   17  C   UNL     1      -8.861  11.745  67.572  1.00  0.00    -0.162 C  
HETATM   18  O   UNL     1      -7.735  12.054  67.160  1.00  0.00    -0.157 OA 
HETATM   19  C   UNL     1     -11.901  14.738  70.146  1.00  0.00    -0.360 A  
HETATM   20  C   UNL     1      -9.033  10.474  68.468  1.00  0.00    -0.147 C  
BRANCH  14  21
HETATM   21  C   UNL     1      -9.890  13.007  65.720  1.00  0.00    -0.209 C  
BRANCH  21  22
HETATM   22  C   UNL     1     -10.560  12.108  64.634  1.00  0.00    -0.300 C  
BRANCH  22  23
HETATM   23  N   UNL     1     -11.498  12.764  63.684  1.00  0.00    -0.466 NA 
HETATM   24  C   UNL     1     -12.121  13.930  64.334  1.00  0.00    -0.443 C  
HETATM   25  C   UNL     1     -12.557  11.871  63.212  1.00  0.00    -0.344 C  
ENDBRANCH  22  23
ENDBRANCH  21  22
ENDBRANCH  14  21
BRANCH  20  26
HETATM   26  O   UNL     1      -9.499   9.394  67.634  1.00  0.00    -0.131 OA 
BRANCH  26  27
HETATM   27  C   UNL     1      -8.661   8.981  66.658  1.00  0.00    -0.127 C  
HETATM   28  C   UNL     1      -7.442   8.384  67.286  1.00  0.00    -0.093 C  
HETATM   29  O   UNL     1      -8.840   9.106  65.458  1.00  0.00    -0.167 OA 
ENDBRANCH  26  27
ENDBRANCH  20  26
ENDBRANCH   6   9
ENDBRANCH   2   3
TORSDOF 7
ENDMDL
MODEL       36
REMARK 921   NORMALIZED FREE ENERGY PREDICTED BY IDOCK:   -4.91 KCAL/MOL
REMARK 922        TOTAL FREE ENERGY PREDICTED BY IDOCK:   -8.03 KCAL/MOL
REMARK 923 INTER-LIGAND FREE ENERGY PREDICTED BY IDOCK:   -6.69 KCAL/MOL
REMARK 924 INTRA-LIGAND FREE ENERGY PREDICTED BY IDOCK:   -1.35 KCAL/MOL
REMARK 927      BINDING AFFINITY PREDICTED BY RF-SCORE:    0.00 PKD
ROOT
HETATM    1  C   UNL     1      -7.885   2.488  63.948  1.00  0.00    -0.076 C  
HETATM    2  O   UNL     1      -8.702   3.590  63.554  1.00  0.00    -0.093 OA 
ENDROOT
BRANCH   2   3
HETATM    3  C   UNL     1      -9.039   4.477  64.541  1.00  0.00    -0.148 A  
HETATM    4  C   UNL     1      -8.242   5.519  64.981  1.00  0.00    -0.139 A  
HETATM    5  C   UNL     1      -8.675   6.342  66.025  1.00  0.00    -0.157 A  
HETATM    6  C   UNL     1      -9.916   6.168  66.671  1.00  0.00    -0.207 A  
HETATM    7  C   UNL     1     -10.294   4.303  65.129  1.00  0.00    -0.215 A  
HETATM    8  C   UNL     1     -10.733   5.137  66.177  1.00  0.00    -0.247 A  
BRANCH   6   9
HETATM    9  C   UNL     1     -10.397   7.090  67.822  1.00  0.00    -0.202 C  
HETATM   10  S   UNL     1      -9.144   8.396  68.190  1.00  0.00    -0.137 SA 
HETATM   11  C   UNL     1     -10.305   9.601  68.718  1.00  0.00    -0.213 A  
HETATM   12  C   UNL     1     -10.970   9.495  69.950  1.00  0.00    -0.238 A  
HETATM   13  C   UNL     1     -11.882  10.494  70.282  1.00  0.00    -0.418 A  
HETATM   14  N   UNL     1     -10.751   8.340  70.792  1.00  0.00    -0.214 N  
HETATM   15  C   UNL     1     -10.573  10.652  67.824  1.00  0.00    -0.275 A  
HETATM   16  C   UNL     1     -12.160  11.541  69.378  1.00  0.00    -0.345 A  
HETATM   17  C   UNL     1     -11.359   7.149  70.347  1.00  0.00    -0.289 C  
HETATM   18  O   UNL     1     -12.282   6.642  70.999  1.00  0.00    -0.367 OA 
HETATM   19  C   UNL     1     -11.512  11.616  68.148  1.00  0.00    -0.382 A  
HETATM   20  C   UNL     1     -10.739   6.360  69.146  1.00  0.00    -0.284 C  
BRANCH  14  21
HETATM   21  C   UNL     1     -10.790   8.590  72.265  1.00  0.00    -0.348 C  
BRANCH  21  22
HETATM   22  C   UNL     1      -9.647   7.847  73.026  1.00  0.00    -0.276 C  
BRANCH  22  23
HETATM   23  N   UNL     1      -8.319   8.514  73.089  1.00  0.00    -0.400 NA 
HETATM   24  C   UNL     1      -7.438   7.957  72.049  1.00  0.00    -0.082 C  
HETATM   25  C   UNL     1      -7.662   8.364  74.388  1.00  0.00    -0.205 C  
ENDBRANCH  22  23
ENDBRANCH  21  22
ENDBRANCH  14  21
BRANCH  20  26
HETATM   26  O   UNL     1      -9.519   5.738  69.598  1.00  0.00    -0.135 OA 
BRANCH  26  27
HETATM   27  C   UNL     1      -9.640   4.519  70.168  1.00  0.00    -0.194 C  
HETATM   28  C   UNL     1      -9.465   3.471  69.114  1.00  0.00    -0.224 C  
HETATM   29  O   UNL     1      -9.891   4.297  71.341  1.00  0.00    -0.177 OA 
ENDBRANCH  26  27
ENDBRANCH  20  26
ENDBRANCH   6   9
ENDBRANCH   2   3
TORSDOF 7
ENDMDL
MODEL       37
REMARK 921   NORMALIZED FREE ENERGY PREDICTED BY IDOCK:   -4.90 KCAL/MOL
REMARK 922        TOTAL FREE ENERGY PREDICTED BY IDOCK:   -8.02 KCAL/MOL
REMARK 923 INTER-LIGAND FREE ENERGY PREDICTED BY IDOCK:   -6.85 KCAL/MOL
REMARK 924 INTRA-LIGAND FREE ENERGY PREDICTED BY IDOCK:   -1.17 KCAL/MOL
REMARK 927      BINDING AFFINITY PREDICTED BY RF-SCORE:    0.00 PKD
ROOT
HETATM    1  C   UNL     1     -10.718  16.251  65.338  1.00  0.00    -0.327 C  
HETATM    2  O   UNL     1     -11.526  15.105  65.070  1.00  0.00    -0.368 OA 
ENDROOT
BRANCH   2   3
HETATM    3  C   UNL     1     -11.131  13.935  65.660  1.00  0.00    -0.298 A  
HETATM    4  C   UNL     1     -11.790  12.723  65.544  1.00  0.00    -0.466 A  
HETATM    5  C   UNL     1     -11.315  11.597  66.223  1.00  0.00    -0.293 A  
HETATM    6  C   UNL     1     -10.166  11.627  67.041  1.00  0.00    -0.240 A  
HETATM    7  C   UNL     1      -9.965  13.989  66.426  1.00  0.00    -0.301 A  
HETATM    8  C   UNL     1      -9.483  12.853  67.106  1.00  0.00    -0.229 A  
BRANCH   6   9
HETATM    9  C   UNL     1      -9.636  10.373  67.785  1.00  0.00    -0.152 C  
HETATM   10  S   UNL     1     -10.274   8.824  67.007  1.00  0.00    -0.285 SA 
HETATM   11  C   UNL     1      -8.881   7.842  67.418  1.00  0.00    -0.127 A  
HETATM   12  C   UNL     1      -8.639   7.415  68.734  1.00  0.00    -0.129 A  
HETATM   13  C   UNL     1      -7.502   6.646  68.968  1.00  0.00    -0.095 A  
HETATM   14  N   UNL     1      -9.518   7.838  69.802  1.00  0.00    -0.160 N  
HETATM   15  C   UNL     1      -7.991   7.542  66.371  1.00  0.00    -0.107 A  
HETATM   16  C   UNL     1      -6.603   6.358  67.920  1.00  0.00    -0.062 A  
HETATM   17  C   UNL     1      -9.377   9.184  70.198  1.00  0.00    -0.209 C  
HETATM   18  O   UNL     1      -8.938   9.457  71.323  1.00  0.00    -0.282 OA 
HETATM   19  C   UNL     1      -6.843   6.811  66.625  1.00  0.00    -0.061 A  
HETATM   20  C   UNL     1      -9.961  10.324  69.300  1.00  0.00    -0.227 C  
BRANCH  14  21
HETATM   21  C   UNL     1      -9.733   6.847  70.899  1.00  0.00    -0.178 C  
BRANCH  21  22
HETATM   22  C   UNL     1     -10.541   5.598  70.424  1.00  0.00    -0.294 C  
BRANCH  22  23
HETATM   23  N   UNL     1      -9.928   4.261  70.641  1.00  0.00    -0.188 NA 
HETATM   24  C   UNL     1      -8.780   4.388  71.555  1.00  0.00    -0.117 C  
HETATM   25  C   UNL     1      -9.472   3.630  69.402  1.00  0.00    -0.179 C  
ENDBRANCH  22  23
ENDBRANCH  21  22
ENDBRANCH  14  21
BRANCH  20  26
HETATM   26  O   UNL     1     -11.398  10.293  69.409  1.00  0.00    -0.239 OA 
BRANCH  26  27
HETATM   27  C   UNL     1     -11.969  11.280  70.135  1.00  0.00    -0.369 C  
HETATM   28  C   UNL     1     -12.667  10.675  71.312  1.00  0.00    -0.537 C  
HETATM   29  O   UNL     1     -11.956  12.469  69.863  1.00  0.00    -0.326 OA 
ENDBRANCH  26  27
ENDBRANCH  20  26
ENDBRANCH   6   9
ENDBRANCH   2   3
TORSDOF 7
ENDMDL
MODEL       38
REMARK 921   NORMALIZED FREE ENERGY PREDICTED BY IDOCK:   -4.87 KCAL/MOL
REMARK 922        TOTAL FREE ENERGY PREDICTED BY IDOCK:   -7.98 KCAL/MOL
REMARK 923 INTER-LIGAND FREE ENERGY PREDICTED BY IDOCK:   -6.71 KCAL/MOL
REMARK 924 INTRA-LIGAND FREE ENERGY PREDICTED BY IDOCK:   -1.27 KCAL/MOL
REMARK 927      BINDING AFFINITY PREDICTED BY RF-SCORE:    0.00 PKD
ROOT
HETATM    1  C   UNL     1      -7.705   2.079  64.300  1.00  0.00    -0.064 C  
HETATM    2  O   UNL     1      -7.840   3.485  64.093  1.00  0.00    -0.079 OA 
ENDROOT
BRANCH   2   3
HETATM    3  C   UNL     1      -8.322   4.209  65.151  1.00  0.00    -0.109 A  
HETATM    4  C   UNL     1      -9.644   4.235  65.561  1.00  0.00    -0.188 A  
HETATM    5  C   UNL     1     -10.030   5.042  66.635  1.00  0.00    -0.246 A  
HETATM    6  C   UNL     1      -9.122   5.851  67.349  1.00  0.00    -0.110 A  
HETATM    7  C   UNL     1      -7.388   4.964  65.863  1.00  0.00    -0.077 A  
HETATM    8  C   UNL     1      -7.777   5.772  66.950  1.00  0.00    -0.101 A  
BRANCH   6   9
HETATM    9  C   UNL     1      -9.552   6.737  68.547  1.00  0.00    -0.130 C  
HETATM   10  S   UNL     1     -11.267   6.322  69.092  1.00  0.00    -0.271 SA 
HETATM   11  C   UNL     1     -11.013   6.735  70.778  1.00  0.00    -0.262 A  
HETATM   12  C   UNL     1     -10.899   8.069  71.203  1.00  0.00    -0.238 A  
HETATM   13  C   UNL     1     -10.689   8.301  72.559  1.00  0.00    -0.411 A  
HETATM   14  N   UNL     1     -10.928   9.141  70.232  1.00  0.00    -0.239 N  
HETATM   15  C   UNL     1     -10.882   5.662  71.676  1.00  0.00    -0.301 A  
HETATM   16  C   UNL     1     -10.543   7.223  73.458  1.00  0.00    -0.408 A  
HETATM   17  C   UNL     1      -9.761   9.276  69.452  1.00  0.00    -0.172 C  
HETATM   18  O   UNL     1      -9.043  10.277  69.576  1.00  0.00    -0.206 OA 
HETATM   19  C   UNL     1     -10.632   5.905  73.016  1.00  0.00    -0.270 A  
HETATM   20  C   UNL     1      -9.481   8.264  68.291  1.00  0.00    -0.138 C  
BRANCH  14  21
HETATM   21  C   UNL     1     -11.569  10.412  70.684  1.00  0.00    -0.349 C  
BRANCH  21  22
HETATM   22  C   UNL     1     -12.094  11.271  69.491  1.00  0.00    -0.317 C  
BRANCH  22  23
HETATM   23  N   UNL     1     -11.589  12.665  69.374  1.00  0.00    -0.303 NA 
HETATM   24  C   UNL     1     -12.214  13.504  70.409  1.00  0.00    -0.356 C  
HETATM   25  C   UNL     1     -11.851  13.263  68.064  1.00  0.00    -0.355 C  
ENDBRANCH  22  23
ENDBRANCH  21  22
ENDBRANCH  14  21
BRANCH  20  26
HETATM   26  O   UNL     1     -10.403   8.543  67.218  1.00  0.00    -0.253 OA 
BRANCH  26  27
HETATM   27  C   UNL     1     -10.046   9.520  66.355  1.00  0.00    -0.258 C  
HETATM   28  C   UNL     1      -8.923   9.024  65.500  1.00  0.00    -0.252 C  
HETATM   29  O   UNL     1     -10.527  10.639  66.300  1.00  0.00    -0.243 OA 
ENDBRANCH  26  27
ENDBRANCH  20  26
ENDBRANCH   6   9
ENDBRANCH   2   3
TORSDOF 7
ENDMDL
MODEL       39
REMARK 921   NORMALIZED FREE ENERGY PREDICTED BY IDOCK:   -4.86 KCAL/MOL
REMARK 922        TOTAL FREE ENERGY PREDICTED BY IDOCK:   -7.96 KCAL/MOL
REMARK 923 INTER-LIGAND FREE ENERGY PREDICTED BY IDOCK:   -6.64 KCAL/MOL
REMARK 924 INTRA-LIGAND FREE ENERGY PREDICTED BY IDOCK:   -1.32 KCAL/MOL
REMARK 927      BINDING AFFINITY PREDICTED BY RF-SCORE:    0.00 PKD
ROOT
HETATM    1  C   UNL     1     -10.116   5.396  66.540  1.00  0.00    -0.216 C  
HETATM    2  O   UNL     1     -10.324   5.862  67.873  1.00  0.00    -0.170 OA 
ENDROOT
BRANCH   2   3
HETATM    3  C   UNL     1     -10.087   7.193  68.092  1.00  0.00    -0.169 A  
HETATM    4  C   UNL     1      -9.534   7.723  69.245  1.00  0.00    -0.155 A  
HETATM    5  C   UNL     1      -9.371   9.106  69.374  1.00  0.00    -0.160 A  
HETATM    6  C   UNL     1      -9.745  10.017  68.365  1.00  0.00    -0.157 A  
HETATM    7  C   UNL     1     -10.427   8.063  67.054  1.00  0.00    -0.410 A  
HETATM    8  C   UNL     1     -10.257   9.456  67.183  1.00  0.00    -0.319 A  
BRANCH   6   9
HETATM    9  C   UNL     1      -9.553  11.549  68.507  1.00  0.00    -0.178 C  
HETATM   10  S   UNL     1     -10.694  12.465  67.379  1.00  0.00    -0.235 SA 
HETATM   11  C   UNL     1     -10.856  13.875  68.410  1.00  0.00    -0.254 A  
HETATM   12  C   UNL     1      -9.812  14.801  68.564  1.00  0.00    -0.218 A  
HETATM   13  C   UNL     1     -10.027  15.885  69.411  1.00  0.00    -0.274 A  
HETATM   14  N   UNL     1      -8.541  14.571  67.913  1.00  0.00    -0.153 N  
HETATM   15  C   UNL     1     -12.067  14.006  69.112  1.00  0.00    -0.375 A  
HETATM   16  C   UNL     1     -11.237  16.008  70.126  1.00  0.00    -0.376 A  
HETATM   17  C   UNL     1      -7.746  13.559  68.488  1.00  0.00    -0.125 C  
HETATM   18  O   UNL     1      -6.676  13.848  69.041  1.00  0.00    -0.100 OA 
HETATM   19  C   UNL     1     -12.253  15.067  69.982  1.00  0.00    -0.373 A  
HETATM   20  C   UNL     1      -8.110  12.056  68.252  1.00  0.00    -0.155 C  
BRANCH  14  21
HETATM   21  C   UNL     1      -7.818  15.793  67.447  1.00  0.00    -0.175 C  
BRANCH  21  22
HETATM   22  C   UNL     1      -8.386  16.345  66.102  1.00  0.00    -0.256 C  
BRANCH  22  23
HETATM   23  N   UNL     1      -8.539  17.819  65.975  1.00  0.00    -0.520 NA 
HETATM   24  C   UNL     1      -7.495  18.492  66.767  1.00  0.00    -0.222 C  
HETATM   25  C   UNL     1      -9.847  18.302  66.420  1.00  0.00    -0.357 C  
ENDBRANCH  22  23
ENDBRANCH  21  22
ENDBRANCH  14  21
BRANCH  20  26
HETATM   26  O   UNL     1      -7.796  11.725  66.885  1.00  0.00    -0.160 OA 
BRANCH  26  27
HETATM   27  C   UNL     1      -6.539  11.291  66.643  1.00  0.00    -0.135 C  
HETATM   28  C   UNL     1      -6.408   9.885  67.134  1.00  0.00    -0.068 C  
HETATM   29  O   UNL     1      -5.638  11.945  66.143  1.00  0.00    -0.174 OA 
ENDBRANCH  26  27
ENDBRANCH  20  26
ENDBRANCH   6   9
ENDBRANCH   2   3
TORSDOF 7
ENDMDL
MODEL       40
REMARK 921   NORMALIZED FREE ENERGY PREDICTED BY IDOCK:   -4.83 KCAL/MOL
REMARK 922        TOTAL FREE ENERGY PREDICTED BY IDOCK:   -7.92 KCAL/MOL
REMARK 923 INTER-LIGAND FREE ENERGY PREDICTED BY IDOCK:   -7.11 KCAL/MOL
REMARK 924 INTRA-LIGAND FREE ENERGY PREDICTED BY IDOCK:   -0.81 KCAL/MOL
REMARK 927      BINDING AFFINITY PREDICTED BY RF-SCORE:    0.00 PKD
ROOT
HETATM    1  C   UNL     1     -14.331  15.125  72.061  1.00  0.00    -0.586 C  
HETATM    2  O   UNL     1     -14.224  13.745  72.413  1.00  0.00    -0.648 OA 
ENDROOT
BRANCH   2   3
HETATM    3  C   UNL     1     -13.364  12.994  71.658  1.00  0.00    -0.292 A  
HETATM    4  C   UNL     1     -13.246  11.616  71.721  1.00  0.00    -0.438 A  
HETATM    5  C   UNL     1     -12.305  10.955  70.926  1.00  0.00    -0.501 A  
HETATM    6  C   UNL     1     -11.447  11.631  70.035  1.00  0.00    -0.266 A  
HETATM    7  C   UNL     1     -12.562  13.691  70.753  1.00  0.00    -0.397 A  
HETATM    8  C   UNL     1     -11.617  13.023  69.948  1.00  0.00    -0.249 A  
BRANCH   6   9
HETATM    9  C   UNL     1     -10.412  10.893  69.147  1.00  0.00    -0.221 C  
HETATM   10  S   UNL     1     -11.255   9.821  67.901  1.00  0.00     0.223 SA 
HETATM   11  C   UNL     1     -10.002   9.962  66.681  1.00  0.00    -0.217 A  
HETATM   12  C   UNL     1      -8.763   9.314  66.816  1.00  0.00    -0.127 A  
HETATM   13  C   UNL     1      -7.826   9.491  65.802  1.00  0.00    -0.104 A  
HETATM   14  N   UNL     1      -8.472   8.556  68.013  1.00  0.00    -0.130 N  
HETATM   15  C   UNL     1     -10.282  10.795  65.584  1.00  0.00    -0.320 A  
HETATM   16  C   UNL     1      -8.102  10.339  64.709  1.00  0.00    -0.151 A  
HETATM   17  C   UNL     1      -8.207   9.328  69.163  1.00  0.00    -0.111 C  
HETATM   18  O   UNL     1      -7.076   9.327  69.665  1.00  0.00    -0.056 OA 
HETATM   19  C   UNL     1      -9.326  10.995  64.603  1.00  0.00    -0.235 A  
HETATM   20  C   UNL     1      -9.387  10.023  69.920  1.00  0.00    -0.169 C  
BRANCH  14  21
HETATM   21  C   UNL     1      -7.621   7.343  67.824  1.00  0.00    -0.107 C  
BRANCH  21  22
HETATM   22  C   UNL     1      -8.448   6.020  67.888  1.00  0.00    -0.115 C  
BRANCH  22  23
HETATM   23  N   UNL     1      -9.908   6.135  68.150  1.00  0.00    -0.127 NA 
HETATM   24  C   UNL     1     -10.307   5.143  69.161  1.00  0.00    -0.156 C  
HETATM   25  C   UNL     1     -10.724   5.936  66.951  1.00  0.00    -0.321 C  
ENDBRANCH  22  23
ENDBRANCH  21  22
ENDBRANCH  14  21
BRANCH  20  26
HETATM   26  O   UNL     1     -10.147   9.006  70.603  1.00  0.00    -0.197 OA 
BRANCH  26  27
HETATM   27  C   UNL     1      -9.779   8.730  71.873  1.00  0.00    -0.316 C  
HETATM   28  C   UNL     1     -10.917   8.058  72.573  1.00  0.00    -0.430 C  
HETATM   29  O   UNL     1      -8.710   9.013  72.388  1.00  0.00    -0.347 OA 
ENDBRANCH  26  27
ENDBRANCH  20  26
ENDBRANCH   6   9
ENDBRANCH   2   3
TORSDOF 7
ENDMDL
MODEL       41
REMARK 921   NORMALIZED FREE ENERGY PREDICTED BY IDOCK:   -4.80 KCAL/MOL
REMARK 922        TOTAL FREE ENERGY PREDICTED BY IDOCK:   -7.87 KCAL/MOL
REMARK 923 INTER-LIGAND FREE ENERGY PREDICTED BY IDOCK:   -6.72 KCAL/MOL
REMARK 924 INTRA-LIGAND FREE ENERGY PREDICTED BY IDOCK:   -1.15 KCAL/MOL
REMARK 927      BINDING AFFINITY PREDICTED BY RF-SCORE:    0.00 PKD
ROOT
HETATM    1  C   UNL     1     -11.981  14.322  67.415  1.00  0.00    -0.391 C  
HETATM    2  O   UNL     1     -12.254  12.972  67.041  1.00  0.00    -0.341 OA 
ENDROOT
BRANCH   2   3
HETATM    3  C   UNL     1     -11.786  12.003  67.887  1.00  0.00    -0.323 A  
HETATM    4  C   UNL     1     -11.893  12.031  69.267  1.00  0.00    -0.377 A  
HETATM    5  C   UNL     1     -11.343  11.000  70.035  1.00  0.00    -0.358 A  
HETATM    6  C   UNL     1     -10.670   9.899  69.467  1.00  0.00    -0.265 A  
HETATM    7  C   UNL     1     -11.164  10.905  67.288  1.00  0.00    -0.307 A  
HETATM    8  C   UNL     1     -10.616   9.863  68.063  1.00  0.00    -0.288 A  
BRANCH   6   9
HETATM    9  C   UNL     1     -10.071   8.752  70.322  1.00  0.00    -0.191 C  
HETATM   10  S   UNL     1      -9.841   7.225  69.309  1.00  0.00    -0.169 SA 
HETATM   11  C   UNL     1      -8.455   6.634  70.207  1.00  0.00    -0.135 A  
HETATM   12  C   UNL     1      -8.585   6.097  71.498  1.00  0.00    -0.131 A  
HETATM   13  C   UNL     1      -7.428   5.661  72.139  1.00  0.00    -0.099 A  
HETATM   14  N   UNL     1      -9.878   6.079  72.145  1.00  0.00    -0.161 N  
HETATM   15  C   UNL     1      -7.200   6.768  69.588  1.00  0.00    -0.081 A  
HETATM   16  C   UNL     1      -6.167   5.809  71.522  1.00  0.00    -0.043 A  
HETATM   17  C   UNL     1     -10.337   7.330  72.605  1.00  0.00    -0.225 C  
HETATM   18  O   UNL     1     -10.453   7.541  73.820  1.00  0.00    -0.317 OA 
HETATM   19  C   UNL     1      -6.052   6.368  70.252  1.00  0.00    -0.034 A  
HETATM   20  C   UNL     1     -10.890   8.378  71.584  1.00  0.00    -0.268 C  
BRANCH  14  21
HETATM   21  C   UNL     1     -10.143   4.911  73.039  1.00  0.00    -0.163 C  
BRANCH  21  22
HETATM   22  C   UNL     1     -10.527   3.625  72.240  1.00  0.00    -0.000 C  
BRANCH  22  23
HETATM   23  N   UNL     1      -9.909   2.342  72.669  1.00  0.00    -0.111 NA 
HETATM   24  C   UNL     1     -10.939   1.476  73.267  1.00  0.00    -0.143 C  
HETATM   25  C   UNL     1      -8.827   2.520  73.638  1.00  0.00    -0.074 C  
ENDBRANCH  22  23
ENDBRANCH  21  22
ENDBRANCH  14  21
BRANCH  20  26
HETATM   26  O   UNL     1     -12.174   7.918  71.117  1.00  0.00    -0.304 OA 
BRANCH  26  27
HETATM   27  C   UNL     1     -13.256   8.362  71.794  1.00  0.00    -0.355 C  
HETATM   28  C   UNL     1     -14.361   7.363  71.652  1.00  0.00    -0.614 C  
HETATM   29  O   UNL     1     -13.342   9.420  72.394  1.00  0.00    -0.452 OA 
ENDBRANCH  26  27
ENDBRANCH  20  26
ENDBRANCH   6   9
ENDBRANCH   2   3
TORSDOF 7
ENDMDL
MODEL       42
REMARK 921   NORMALIZED FREE ENERGY PREDICTED BY IDOCK:   -4.75 KCAL/MOL
REMARK 922        TOTAL FREE ENERGY PREDICTED BY IDOCK:   -7.81 KCAL/MOL
REMARK 923 INTER-LIGAND FREE ENERGY PREDICTED BY IDOCK:   -7.08 KCAL/MOL
REMARK 924 INTRA-LIGAND FREE ENERGY PREDICTED BY IDOCK:   -0.72 KCAL/MOL
REMARK 927      BINDING AFFINITY PREDICTED BY RF-SCORE:    0.00 PKD
ROOT
HETATM    1  C   UNL     1      -7.946   7.009  66.338  1.00  0.00    -0.109 C  
HETATM    2  O   UNL     1      -9.000   7.802  65.791  1.00  0.00    -0.150 OA 
ENDROOT
BRANCH   2   3
HETATM    3  C   UNL     1      -9.359   8.910  66.509  1.00  0.00    -0.195 A  
HETATM    4  C   UNL     1     -10.661   9.306  66.765  1.00  0.00    -0.207 A  
HETATM    5  C   UNL     1     -10.911  10.480  67.482  1.00  0.00    -0.357 A  
HETATM    6  C   UNL     1      -9.881  11.306  67.977  1.00  0.00    -0.186 A  
HETATM    7  C   UNL     1      -8.315   9.681  67.024  1.00  0.00    -0.117 A  
HETATM    8  C   UNL     1      -8.567  10.862  67.751  1.00  0.00    -0.128 A  
BRANCH   6   9
HETATM    9  C   UNL     1     -10.161  12.603  68.780  1.00  0.00    -0.079 C  
HETATM   10  S   UNL     1     -11.911  13.152  68.557  1.00  0.00    -0.309 SA 
HETATM   11  C   UNL     1     -12.058  13.896  70.139  1.00  0.00    -0.349 A  
HETATM   12  C   UNL     1     -11.420  15.109  70.448  1.00  0.00    -0.286 A  
HETATM   13  C   UNL     1     -11.585  15.619  71.732  1.00  0.00    -0.531 A  
HETATM   14  N   UNL     1     -10.567  15.745  69.469  1.00  0.00    -0.248 N  
HETATM   15  C   UNL     1     -12.806  13.192  71.098  1.00  0.00    -0.349 A  
HETATM   16  C   UNL     1     -12.326  14.906  72.698  1.00  0.00    -0.419 A  
HETATM   17  C   UNL     1      -9.317  15.124  69.267  1.00  0.00    -0.207 C  
HETATM   18  O   UNL     1      -8.275  15.704  69.600  1.00  0.00    -0.213 OA 
HETATM   19  C   UNL     1     -12.930  13.690  72.385  1.00  0.00    -0.416 A  
HETATM   20  C   UNL     1      -9.232  13.797  68.443  1.00  0.00    -0.182 C  
BRANCH  14  21
HETATM   21  C   UNL     1     -10.567  17.239  69.477  1.00  0.00     0.008 C  
BRANCH  21  22
HETATM   22  C   UNL     1     -10.728  17.842  68.046  1.00  0.00    -0.294 C  
BRANCH  22  23
HETATM   23  N   UNL     1      -9.868  19.003  67.691  1.00  0.00    -0.319 NA 
HETATM   24  C   UNL     1     -10.148  19.417  66.305  1.00  0.00    -0.456 C  
HETATM   25  C   UNL     1      -8.438  18.718  67.814  1.00  0.00    -0.275 C  
ENDBRANCH  22  23
ENDBRANCH  21  22
ENDBRANCH  14  21
BRANCH  20  26
HETATM   26  O   UNL     1      -9.459  14.113  67.055  1.00  0.00    -0.232 OA 
BRANCH  26  27
HETATM   27  C   UNL     1      -8.665  15.064  66.516  1.00  0.00    -0.208 C  
HETATM   28  C   UNL     1      -9.479  15.905  65.585  1.00  0.00    -0.217 C  
HETATM   29  O   UNL     1      -7.470  15.200  66.718  1.00  0.00    -0.050 OA 
ENDBRANCH  26  27
ENDBRANCH  20  26
ENDBRANCH   6   9
ENDBRANCH   2   3
TORSDOF 7
ENDMDL
MODEL       43
REMARK 921   NORMALIZED FREE ENERGY PREDICTED BY IDOCK:   -4.74 KCAL/MOL
REMARK 922        TOTAL FREE ENERGY PREDICTED BY IDOCK:   -7.79 KCAL/MOL
REMARK 923 INTER-LIGAND FREE ENERGY PREDICTED BY IDOCK:   -7.01 KCAL/MOL
REMARK 924 INTRA-LIGAND FREE ENERGY PREDICTED BY IDOCK:   -0.78 KCAL/MOL
REMARK 927      BINDING AFFINITY PREDICTED BY RF-SCORE:    0.00 PKD
ROOT
HETATM    1  C   UNL     1      -5.365   5.809  65.584  1.00  0.00    -0.010 C  
HETATM    2  O   UNL     1      -6.430   5.570  66.504  1.00  0.00    -0.044 OA 
ENDROOT
BRANCH   2   3
HETATM    3  C   UNL     1      -7.351   6.573  66.637  1.00  0.00    -0.078 A  
HETATM    4  C   UNL     1      -8.720   6.390  66.735  1.00  0.00    -0.119 A  
HETATM    5  C   UNL     1      -9.572   7.494  66.831  1.00  0.00    -0.242 A  
HETATM    6  C   UNL     1      -9.102   8.823  66.838  1.00  0.00    -0.169 A  
HETATM    7  C   UNL     1      -6.848   7.875  66.686  1.00  0.00    -0.071 A  
HETATM    8  C   UNL     1      -7.707   8.988  66.788  1.00  0.00    -0.093 A  
BRANCH   6   9
HETATM    9  C   UNL     1     -10.050  10.046  66.954  1.00  0.00    -0.229 C  
HETATM   10  S   UNL     1      -9.144  11.618  66.611  1.00  0.00    -0.197 SA 
HETATM   11  C   UNL     1     -10.528  12.471  65.952  1.00  0.00    -0.265 A  
HETATM   12  C   UNL     1     -11.575  12.924  66.770  1.00  0.00    -0.360 A  
HETATM   13  C   UNL     1     -12.638  13.582  66.158  1.00  0.00    -0.355 A  
HETATM   14  N   UNL     1     -11.560  12.636  68.187  1.00  0.00    -0.317 N  
HETATM   15  C   UNL     1     -10.559  12.636  64.556  1.00  0.00    -0.369 A  
HETATM   16  C   UNL     1     -12.675  13.735  64.756  1.00  0.00    -0.259 A  
HETATM   17  C   UNL     1     -11.851  11.300  68.532  1.00  0.00    -0.285 C  
HETATM   18  O   UNL     1     -12.891  11.030  69.146  1.00  0.00    -0.137 OA 
HETATM   19  C   UNL     1     -11.641  13.256  63.955  1.00  0.00    -0.451 A  
HETATM   20  C   UNL     1     -10.769  10.189  68.320  1.00  0.00    -0.238 C  
BRANCH  14  21
HETATM   21  C   UNL     1     -12.146  13.687  69.072  1.00  0.00    -0.309 C  
BRANCH  21  22
HETATM   22  C   UNL     1     -11.703  13.528  70.561  1.00  0.00    -0.066 C  
BRANCH  22  23
HETATM   23  N   UNL     1     -12.428  14.330  71.582  1.00  0.00    -0.347 NA 
HETATM   24  C   UNL     1     -13.352  13.458  72.327  1.00  0.00    -0.544 C  
HETATM   25  C   UNL     1     -13.192  15.438  71.007  1.00  0.00    -0.496 C  
ENDBRANCH  22  23
ENDBRANCH  21  22
ENDBRANCH  14  21
BRANCH  20  26
HETATM   26  O   UNL     1      -9.737  10.370  69.310  1.00  0.00    -0.206 OA 
BRANCH  26  27
HETATM   27  C   UNL     1      -9.538   9.346  70.168  1.00  0.00    -0.238 C  
HETATM   28  C   UNL     1     -10.732   9.223  71.062  1.00  0.00    -0.387 C  
HETATM   29  O   UNL     1      -8.537   8.653  70.238  1.00  0.00    -0.127 OA 
ENDBRANCH  26  27
ENDBRANCH  20  26
ENDBRANCH   6   9
ENDBRANCH   2   3
TORSDOF 7
ENDMDL
MODEL       44
REMARK 921   NORMALIZED FREE ENERGY PREDICTED BY IDOCK:   -4.71 KCAL/MOL
REMARK 922        TOTAL FREE ENERGY PREDICTED BY IDOCK:   -7.76 KCAL/MOL
REMARK 923 INTER-LIGAND FREE ENERGY PREDICTED BY IDOCK:   -6.59 KCAL/MOL
REMARK 924 INTRA-LIGAND FREE ENERGY PREDICTED BY IDOCK:   -1.17 KCAL/MOL
REMARK 927      BINDING AFFINITY PREDICTED BY RF-SCORE:    0.00 PKD
ROOT
HETATM    1  C   UNL     1     -13.225  13.363  72.014  1.00  0.00    -0.438 C  
HETATM    2  O   UNL     1     -13.790  12.059  72.145  1.00  0.00    -0.182 OA 
ENDROOT
BRANCH   2   3
HETATM    3  C   UNL     1     -13.023  11.018  71.697  1.00  0.00    -0.456 A  
HETATM    4  C   UNL     1     -13.130   9.707  72.127  1.00  0.00    -0.520 A  
HETATM    5  C   UNL     1     -12.265   8.730  71.624  1.00  0.00    -0.399 A  
HETATM    6  C   UNL     1     -11.263   9.012  70.674  1.00  0.00    -0.318 A  
HETATM    7  C   UNL     1     -12.070  11.325  70.723  1.00  0.00    -0.450 A  
HETATM    8  C   UNL     1     -11.203  10.338  70.212  1.00  0.00    -0.395 A  
BRANCH   6   9
HETATM    9  C   UNL     1     -10.312   7.924  70.111  1.00  0.00    -0.215 C  
HETATM   10  S   UNL     1     -11.214   6.334  69.843  1.00  0.00    -0.428 SA 
HETATM   11  C   UNL     1     -10.224   5.804  68.495  1.00  0.00    -0.192 A  
HETATM   12  C   UNL     1      -8.907   5.352  68.678  1.00  0.00    -0.103 A  
HETATM   13  C   UNL     1      -8.194   4.960  67.548  1.00  0.00    -0.105 A  
HETATM   14  N   UNL     1      -8.313   5.374  69.996  1.00  0.00    -0.105 N  
HETATM   15  C   UNL     1     -10.799   5.899  67.216  1.00  0.00    -0.351 A  
HETATM   16  C   UNL     1      -8.767   5.069  66.264  1.00  0.00    -0.117 A  
HETATM   17  C   UNL     1      -7.954   6.652  70.472  1.00  0.00    -0.111 C  
HETATM   18  O   UNL     1      -6.761   6.941  70.636  1.00  0.00    -0.051 OA 
HETATM   19  C   UNL     1     -10.065   5.545  66.097  1.00  0.00    -0.135 A  
HETATM   20  C   UNL     1      -9.063   7.631  70.982  1.00  0.00    -0.147 C  
BRANCH  14  21
HETATM   21  C   UNL     1      -7.358   4.266  70.299  1.00  0.00    -0.045 C  
BRANCH  21  22
HETATM   22  C   UNL     1      -8.031   3.097  71.085  1.00  0.00    -0.054 C  
BRANCH  22  23
HETATM   23  N   UNL     1      -8.913   3.457  72.227  1.00  0.00    -0.097 NA 
HETATM   24  C   UNL     1      -8.318   2.967  73.482  1.00  0.00    -0.073 C  
HETATM   25  C   UNL     1     -10.264   2.908  72.105  1.00  0.00    -0.081 C  
ENDBRANCH  22  23
ENDBRANCH  21  22
ENDBRANCH  14  21
BRANCH  20  26
HETATM   26  O   UNL     1      -9.551   7.140  72.246  1.00  0.00    -0.143 OA 
BRANCH  26  27
HETATM   27  C   UNL     1      -9.042   7.722  73.355  1.00  0.00    -0.276 C  
HETATM   28  C   UNL     1      -9.450   6.923  74.552  1.00  0.00    -0.222 C  
HETATM   29  O   UNL     1      -8.390   8.752  73.389  1.00  0.00    -0.374 OA 
ENDBRANCH  26  27
ENDBRANCH  20  26
ENDBRANCH   6   9
ENDBRANCH   2   3
TORSDOF 7
ENDMDL
MODEL       45
REMARK 921   NORMALIZED FREE ENERGY PREDICTED BY IDOCK:   -4.69 KCAL/MOL
REMARK 922        TOTAL FREE ENERGY PREDICTED BY IDOCK:   -7.72 KCAL/MOL
REMARK 923 INTER-LIGAND FREE ENERGY PREDICTED BY IDOCK:   -7.27 KCAL/MOL
REMARK 924 INTRA-LIGAND FREE ENERGY PREDICTED BY IDOCK:   -0.45 KCAL/MOL
REMARK 927      BINDING AFFINITY PREDICTED BY RF-SCORE:    0.00 PKD
ROOT
HETATM    1  C   UNL     1     -13.659   9.109  72.057  1.00  0.00    -0.459 C  
HETATM    2  O   UNL     1     -12.468   8.892  71.301  1.00  0.00    -0.305 OA 
ENDROOT
BRANCH   2   3
HETATM    3  C   UNL     1     -11.958   9.981  70.648  1.00  0.00    -0.313 A  
HETATM    4  C   UNL     1     -12.404  11.283  70.802  1.00  0.00    -0.495 A  
HETATM    5  C   UNL     1     -11.830  12.315  70.054  1.00  0.00    -0.372 A  
HETATM    6  C   UNL     1     -10.791  12.100  69.126  1.00  0.00    -0.165 A  
HETATM    7  C   UNL     1     -10.899   9.739  69.770  1.00  0.00    -0.285 A  
HETATM    8  C   UNL     1     -10.318  10.781  69.020  1.00  0.00    -0.235 A  
BRANCH   6   9
HETATM    9  C   UNL     1     -10.150  13.249  68.304  1.00  0.00    -0.250 C  
HETATM   10  S   UNL     1     -10.298  14.860  69.197  1.00  0.00    -0.235 SA 
HETATM   11  C   UNL     1      -8.825  15.552  68.541  1.00  0.00    -0.186 A  
HETATM   12  C   UNL     1      -8.739  15.978  67.206  1.00  0.00    -0.185 A  
HETATM   13  C   UNL     1      -7.527  16.506  66.770  1.00  0.00    -0.281 A  
HETATM   14  N   UNL     1      -9.864  15.794  66.316  1.00  0.00    -0.274 N  
HETATM   15  C   UNL     1      -7.719  15.614  69.407  1.00  0.00    -0.218 A  
HETATM   16  C   UNL     1      -6.414  16.555  67.636  1.00  0.00    -0.170 A  
HETATM   17  C   UNL     1     -10.084  14.467  65.892  1.00  0.00    -0.326 C  
HETATM   18  O   UNL     1      -9.922  14.160  64.703  1.00  0.00    -0.239 OA 
HETATM   19  C   UNL     1      -6.507  16.104  68.950  1.00  0.00    -0.133 A  
HETATM   20  C   UNL     1     -10.724  13.433  66.876  1.00  0.00    -0.273 C  
BRANCH  14  21
HETATM   21  C   UNL     1     -10.059  16.856  65.284  1.00  0.00     0.248 C  
BRANCH  21  22
HETATM   22  C   UNL     1     -10.750  18.131  65.863  1.00  0.00    -0.124 C  
BRANCH  22  23
HETATM   23  N   UNL     1      -9.957  18.976  66.796  1.00  0.00    -0.336 NA 
HETATM   24  C   UNL     1     -10.869  19.717  67.684  1.00  0.00    -0.227 C  
HETATM   25  C   UNL     1      -9.092  19.935  66.108  1.00  0.00    -0.322 C  
ENDBRANCH  22  23
ENDBRANCH  21  22
ENDBRANCH  14  21
BRANCH  20  26
HETATM   26  O   UNL     1     -12.118  13.764  67.034  1.00  0.00    -0.406 OA 
BRANCH  26  27
HETATM   27  C   UNL     1     -12.889  13.673  65.928  1.00  0.00    -0.269 C  
HETATM   28  C   UNL     1     -12.513  12.436  65.175  1.00  0.00    -0.329 C  
HETATM   29  O   UNL     1     -13.729  14.482  65.570  1.00  0.00    -0.103 OA 
ENDBRANCH  26  27
ENDBRANCH  20  26
ENDBRANCH   6   9
ENDBRANCH   2   3
TORSDOF 7
ENDMDL
MODEL       46
REMARK 921   NORMALIZED FREE ENERGY PREDICTED BY IDOCK:   -4.68 KCAL/MOL
REMARK 922        TOTAL FREE ENERGY PREDICTED BY IDOCK:   -7.71 KCAL/MOL
REMARK 923 INTER-LIGAND FREE ENERGY PREDICTED BY IDOCK:   -6.78 KCAL/MOL
REMARK 924 INTRA-LIGAND FREE ENERGY PREDICTED BY IDOCK:   -0.92 KCAL/MOL
REMARK 927      BINDING AFFINITY PREDICTED BY RF-SCORE:    0.00 PKD
ROOT
HETATM    1  C   UNL     1     -11.877  16.229  72.636  1.00  0.00    -0.497 C  
HETATM    2  O   UNL     1     -12.546  16.003  71.395  1.00  0.00    -0.443 OA 
ENDROOT
BRANCH   2   3
HETATM    3  C   UNL     1     -11.942  15.128  70.532  1.00  0.00    -0.325 A  
HETATM    4  C   UNL     1     -10.715  15.329  69.924  1.00  0.00    -0.300 A  
HETATM    5  C   UNL     1     -10.211  14.381  69.029  1.00  0.00    -0.185 A  
HETATM    6  C   UNL     1     -10.900  13.194  68.705  1.00  0.00    -0.287 A  
HETATM    7  C   UNL     1     -12.631  13.943  70.268  1.00  0.00    -0.328 A  
HETATM    8  C   UNL     1     -12.120  12.984  69.370  1.00  0.00    -0.267 A  
BRANCH   6   9
HETATM    9  C   UNL     1     -10.333  12.139  67.719  1.00  0.00    -0.206 C  
HETATM   10  S   UNL     1     -11.655  11.511  66.592  1.00  0.00     0.150 SA 
HETATM   11  C   UNL     1     -10.586  11.192  65.238  1.00  0.00    -0.238 A  
HETATM   12  C   UNL     1      -9.688  10.113  65.245  1.00  0.00    -0.300 A  
HETATM   13  C   UNL     1      -8.871   9.944  64.130  1.00  0.00    -0.251 A  
HETATM   14  N   UNL     1      -9.582   9.268  66.414  1.00  0.00    -0.217 N  
HETATM   15  C   UNL     1     -10.641  12.100  64.166  1.00  0.00    -0.403 A  
HETATM   16  C   UNL     1      -8.916  10.863  63.061  1.00  0.00    -0.261 A  
HETATM   17  C   UNL     1      -8.917   9.846  67.515  1.00  0.00    -0.134 C  
HETATM   18  O   UNL     1      -7.826   9.395  67.888  1.00  0.00    -0.091 OA 
HETATM   19  C   UNL     1      -9.795  11.943  63.081  1.00  0.00    -0.279 A  
HETATM   20  C   UNL     1      -9.647  10.921  68.387  1.00  0.00    -0.177 C  
BRANCH  14  21
HETATM   21  C   UNL     1      -9.293   7.826  66.151  1.00  0.00    -0.100 C  
BRANCH  21  22
HETATM   22  C   UNL     1     -10.116   6.876  67.076  1.00  0.00    -0.221 C  
BRANCH  22  23
HETATM   23  N   UNL     1      -9.373   5.812  67.803  1.00  0.00    -0.105 NA 
HETATM   24  C   UNL     1      -7.945   5.879  67.449  1.00  0.00    -0.102 C  
HETATM   25  C   UNL     1      -9.864   4.465  67.512  1.00  0.00    -0.128 C  
ENDBRANCH  22  23
ENDBRANCH  21  22
ENDBRANCH  14  21
BRANCH  20  26
HETATM   26  O   UNL     1     -10.661  10.255  69.167  1.00  0.00    -0.201 OA 
BRANCH  26  27
HETATM   27  C   UNL     1     -10.309   9.875  70.415  1.00  0.00    -0.260 C  
HETATM   28  C   UNL     1     -11.503   9.983  71.309  1.00  0.00    -0.390 C  
HETATM   29  O   UNL     1      -9.194   9.535  70.773  1.00  0.00    -0.236 OA 
ENDBRANCH  26  27
ENDBRANCH  20  26
ENDBRANCH   6   9
ENDBRANCH   2   3
TORSDOF 7
ENDMDL
MODEL       47
REMARK 921   NORMALIZED FREE ENERGY PREDICTED BY IDOCK:   -4.66 KCAL/MOL
REMARK 922        TOTAL FREE ENERGY PREDICTED BY IDOCK:   -7.68 KCAL/MOL
REMARK 923 INTER-LIGAND FREE ENERGY PREDICTED BY IDOCK:   -6.39 KCAL/MOL
REMARK 924 INTRA-LIGAND FREE ENERGY PREDICTED BY IDOCK:   -1.29 KCAL/MOL
REMARK 927      BINDING AFFINITY PREDICTED BY RF-SCORE:    0.00 PKD
ROOT
HETATM    1  C   UNL     1     -10.372  17.553  68.386  1.00  0.00    -0.378 C  
HETATM    2  O   UNL     1     -11.420  16.585  68.333  1.00  0.00    -0.301 OA 
ENDROOT
BRANCH   2   3
HETATM    3  C   UNL     1     -11.047  15.307  68.015  1.00  0.00    -0.312 A  
HETATM    4  C   UNL     1     -11.825  14.401  67.315  1.00  0.00    -0.434 A  
HETATM    5  C   UNL     1     -11.355  13.106  67.078  1.00  0.00    -0.349 A  
HETATM    6  C   UNL     1     -10.093  12.658  67.522  1.00  0.00    -0.212 A  
HETATM    7  C   UNL     1      -9.773  14.911  68.430  1.00  0.00    -0.209 A  
HETATM    8  C   UNL     1      -9.297  13.607  68.186  1.00  0.00    -0.212 A  
BRANCH   6   9
HETATM    9  C   UNL     1      -9.570  11.224  67.248  1.00  0.00    -0.173 C  
HETATM   10  S   UNL     1     -10.514  10.428  65.874  1.00  0.00    -0.063 SA 
HETATM   11  C   UNL     1      -9.184   9.433  65.310  1.00  0.00    -0.238 A  
HETATM   12  C   UNL     1      -8.741   8.313  66.031  1.00  0.00    -0.155 A  
HETATM   13  C   UNL     1      -7.672   7.588  65.511  1.00  0.00    -0.103 A  
HETATM   14  N   UNL     1      -9.344   7.990  67.305  1.00  0.00    -0.140 N  
HETATM   15  C   UNL     1      -8.553   9.842  64.122  1.00  0.00    -0.207 A  
HETATM   16  C   UNL     1      -7.030   8.007  64.326  1.00  0.00    -0.072 A  
HETATM   17  C   UNL     1      -8.982   8.837  68.373  1.00  0.00    -0.141 C  
HETATM   18  O   UNL     1      -8.306   8.397  69.313  1.00  0.00    -0.118 OA 
HETATM   19  C   UNL     1      -7.465   9.136  63.636  1.00  0.00    -0.106 A  
HETATM   20  C   UNL     1      -9.599  10.272  68.471  1.00  0.00    -0.161 C  
BRANCH  14  21
HETATM   21  C   UNL     1      -9.451   6.535  67.626  1.00  0.00    -0.123 C  
BRANCH  21  22
HETATM   22  C   UNL     1     -10.585   5.828  66.818  1.00  0.00    -0.306 C  
BRANCH  22  23
HETATM   23  N   UNL     1     -10.296   4.476  66.270  1.00  0.00    -0.245 NA 
HETATM   24  C   UNL     1      -9.454   3.729  67.220  1.00  0.00    -0.200 C  
HETATM   25  C   UNL     1      -9.619   4.514  64.973  1.00  0.00    -0.142 C  
ENDBRANCH  22  23
ENDBRANCH  21  22
ENDBRANCH  14  21
BRANCH  20  26
HETATM   26  O   UNL     1     -10.983  10.141  68.856  1.00  0.00    -0.219 OA 
BRANCH  26  27
HETATM   27  C   UNL     1     -11.264  10.326  70.165  1.00  0.00    -0.318 C  
HETATM   28  C   UNL     1     -12.199  11.485  70.301  1.00  0.00    -0.415 C  
HETATM   29  O   UNL     1     -10.806   9.683  71.095  1.00  0.00    -0.337 OA 
ENDBRANCH  26  27
ENDBRANCH  20  26
ENDBRANCH   6   9
ENDBRANCH   2   3
TORSDOF 7
ENDMDL
MODEL       48
REMARK 921   NORMALIZED FREE ENERGY PREDICTED BY IDOCK:   -4.62 KCAL/MOL
REMARK 922        TOTAL FREE ENERGY PREDICTED BY IDOCK:   -7.63 KCAL/MOL
REMARK 923 INTER-LIGAND FREE ENERGY PREDICTED BY IDOCK:   -6.43 KCAL/MOL
REMARK 924 INTRA-LIGAND FREE ENERGY PREDICTED BY IDOCK:   -1.20 KCAL/MOL
REMARK 927      BINDING AFFINITY PREDICTED BY RF-SCORE:    0.00 PKD
ROOT
HETATM    1  C   UNL     1     -10.449  18.872  66.237  1.00  0.00    -0.445 C  
HETATM    2  O   UNL     1     -10.820  18.283  67.483  1.00  0.00    -0.399 OA 
ENDROOT
BRANCH   2   3
HETATM    3  C   UNL     1     -10.528  16.954  67.636  1.00  0.00    -0.332 A  
HETATM    4  C   UNL     1     -11.181  16.089  68.497  1.00  0.00    -0.374 A  
HETATM    5  C   UNL     1     -10.772  14.756  68.597  1.00  0.00    -0.253 A  
HETATM    6  C   UNL     1      -9.704  14.226  67.844  1.00  0.00    -0.222 A  
HETATM    7  C   UNL     1      -9.495  16.452  66.842  1.00  0.00    -0.249 A  
HETATM    8  C   UNL     1      -9.087  15.106  66.939  1.00  0.00    -0.270 A  
BRANCH   6   9
HETATM    9  C   UNL     1      -9.260  12.744  67.950  1.00  0.00    -0.205 C  
HETATM   10  S   UNL     1      -7.533  12.526  67.330  1.00  0.00    -0.135 SA 
HETATM   11  C   UNL     1      -7.142  11.183  68.389  1.00  0.00    -0.076 A  
HETATM   12  C   UNL     1      -7.676   9.901  68.184  1.00  0.00    -0.082 A  
HETATM   13  C   UNL     1      -7.317   8.898  69.081  1.00  0.00    -0.072 A  
HETATM   14  N   UNL     1      -8.624   9.676  67.115  1.00  0.00    -0.131 N  
HETATM   15  C   UNL     1      -6.303  11.466  69.481  1.00  0.00    -0.113 A  
HETATM   16  C   UNL     1      -6.487   9.186  70.184  1.00  0.00    -0.046 A  
HETATM   17  C   UNL     1      -9.916  10.194  67.339  1.00  0.00    -0.195 C  
HETATM   18  O   UNL     1     -10.877   9.425  67.479  1.00  0.00    -0.269 OA 
HETATM   19  C   UNL     1      -5.986  10.469  70.389  1.00  0.00    -0.112 A  
HETATM   20  C   UNL     1     -10.171  11.732  67.208  1.00  0.00    -0.203 C  
BRANCH  14  21
HETATM   21  C   UNL     1      -8.555   8.338  66.453  1.00  0.00    -0.133 C  
BRANCH  21  22
HETATM   22  C   UNL     1      -7.410   8.254  65.396  1.00  0.00    -0.083 C  
BRANCH  22  23
HETATM   23  N   UNL     1      -7.797   8.290  63.960  1.00  0.00    -0.140 NA 
HETATM   24  C   UNL     1      -6.614   8.591  63.138  1.00  0.00    -0.090 C  
HETATM   25  C   UNL     1      -8.834   9.281  63.669  1.00  0.00    -0.116 C  
ENDBRANCH  22  23
ENDBRANCH  21  22
ENDBRANCH  14  21
BRANCH  20  26
HETATM   26  O   UNL     1     -10.118  12.081  65.811  1.00  0.00    -0.227 OA 
BRANCH  26  27
HETATM   27  C   UNL     1     -11.303  12.298  65.199  1.00  0.00    -0.329 C  
HETATM   28  C   UNL     1     -11.109  12.206  63.718  1.00  0.00    -0.505 C  
HETATM   29  O   UNL     1     -12.357  12.566  65.751  1.00  0.00    -0.627 OA 
ENDBRANCH  26  27
ENDBRANCH  20  26
ENDBRANCH   6   9
ENDBRANCH   2   3
TORSDOF 7
ENDMDL
MODEL       49
REMARK 921   NORMALIZED FREE ENERGY PREDICTED BY IDOCK:   -4.58 KCAL/MOL
REMARK 922        TOTAL FREE ENERGY PREDICTED BY IDOCK:   -7.57 KCAL/MOL
REMARK 923 INTER-LIGAND FREE ENERGY PREDICTED BY IDOCK:   -6.42 KCAL/MOL
REMARK 924 INTRA-LIGAND FREE ENERGY PREDICTED BY IDOCK:   -1.15 KCAL/MOL
REMARK 927      BINDING AFFINITY PREDICTED BY RF-SCORE:    0.00 PKD
ROOT
HETATM    1  C   UNL     1     -12.143  15.590  64.139  1.00  0.00    -0.045 C  
HETATM    2  O   UNL     1     -12.609  14.291  63.771  1.00  0.00    -0.821 OA 
ENDROOT
BRANCH   2   3
HETATM    3  C   UNL     1     -11.976  13.231  64.362  1.00  0.00    -0.406 A  
HETATM    4  C   UNL     1     -12.098  12.871  65.693  1.00  0.00    -0.511 A  
HETATM    5  C   UNL     1     -11.373  11.787  66.196  1.00  0.00    -0.342 A  
HETATM    6  C   UNL     1     -10.502  11.015  65.401  1.00  0.00    -0.306 A  
HETATM    7  C   UNL     1     -11.156  12.460  63.535  1.00  0.00    -0.521 A  
HETATM    8  C   UNL     1     -10.430  11.364  64.042  1.00  0.00    -0.435 A  
BRANCH   6   9
HETATM    9  C   UNL     1      -9.707   9.806  65.961  1.00  0.00    -0.255 C  
HETATM   10  S   UNL     1     -10.490   9.158  67.503  1.00  0.00    -0.249 SA 
HETATM   11  C   UNL     1      -9.985   7.495  67.264  1.00  0.00    -0.210 A  
HETATM   12  C   UNL     1      -8.650   7.097  67.439  1.00  0.00    -0.121 A  
HETATM   13  C   UNL     1      -8.339   5.758  67.218  1.00  0.00    -0.104 A  
HETATM   14  N   UNL     1      -7.640   8.079  67.766  1.00  0.00    -0.100 N  
HETATM   15  C   UNL     1     -10.974   6.591  66.841  1.00  0.00    -0.408 A  
HETATM   16  C   UNL     1      -9.330   4.854  66.780  1.00  0.00    -0.141 A  
HETATM   17  C   UNL     1      -7.261   8.926  66.704  1.00  0.00    -0.085 C  
HETATM   18  O   UNL     1      -6.119   8.858  66.232  1.00  0.00    -0.060 OA 
HETATM   19  C   UNL     1     -10.645   5.271  66.585  1.00  0.00    -0.334 A  
HETATM   20  C   UNL     1      -8.212  10.087  66.259  1.00  0.00    -0.124 C  
BRANCH  14  21
HETATM   21  C   UNL     1      -6.538   7.609  68.659  1.00  0.00    -0.053 C  
BRANCH  21  22
HETATM   22  C   UNL     1      -6.406   8.478  69.949  1.00  0.00    -0.034 C  
BRANCH  22  23
HETATM   23  N   UNL     1      -7.366   8.216  71.054  1.00  0.00    -0.055 NA 
HETATM   24  C   UNL     1      -7.732   6.790  71.060  1.00  0.00    -0.097 C  
HETATM   25  C   UNL     1      -8.589   9.013  70.954  1.00  0.00    -0.215 C  
ENDBRANCH  22  23
ENDBRANCH  21  22
ENDBRANCH  14  21
BRANCH  20  26
HETATM   26  O   UNL     1      -8.181  11.109  67.275  1.00  0.00    -0.128 OA 
BRANCH  26  27
HETATM   27  C   UNL     1      -7.022  11.791  67.410  1.00  0.00    -0.121 C  
HETATM   28  C   UNL     1      -6.752  12.005  68.866  1.00  0.00    -0.093 C  
HETATM   29  O   UNL     1      -6.322  12.203  66.500  1.00  0.00    -0.042 OA 
ENDBRANCH  26  27
ENDBRANCH  20  26
ENDBRANCH   6   9
ENDBRANCH   2   3
TORSDOF 7
ENDMDL
MODEL       50
REMARK 921   NORMALIZED FREE ENERGY PREDICTED BY IDOCK:   -4.51 KCAL/MOL
REMARK 922        TOTAL FREE ENERGY PREDICTED BY IDOCK:   -7.47 KCAL/MOL
REMARK 923 INTER-LIGAND FREE ENERGY PREDICTED BY IDOCK:   -6.34 KCAL/MOL
REMARK 924 INTRA-LIGAND FREE ENERGY PREDICTED BY IDOCK:   -1.13 KCAL/MOL
REMARK 927      BINDING AFFINITY PREDICTED BY RF-SCORE:    0.00 PKD
ROOT
HETATM    1  C   UNL     1      -6.208  19.633  69.365  1.00  0.00    -0.315 C  
HETATM    2  O   UNL     1      -7.530  19.626  68.827  1.00  0.00    -0.339 OA 
ENDROOT
BRANCH   2   3
HETATM    3  C   UNL     1      -7.984  18.425  68.352  1.00  0.00    -0.307 A  
HETATM    4  C   UNL     1      -9.201  17.849  68.676  1.00  0.00    -0.269 A  
HETATM    5  C   UNL     1      -9.545  16.597  68.159  1.00  0.00    -0.228 A  
HETATM    6  C   UNL     1      -8.701  15.867  67.297  1.00  0.00    -0.206 A  
HETATM    7  C   UNL     1      -7.142  17.750  67.466  1.00  0.00    -0.198 A  
HETATM    8  C   UNL     1      -7.493  16.490  66.940  1.00  0.00    -0.256 A  
BRANCH   6   9
HETATM    9  C   UNL     1      -9.091  14.483  66.717  1.00  0.00    -0.261 C  
HETATM   10  S   UNL     1     -10.803  14.012  67.226  1.00  0.00    -0.287 SA 
HETATM   11  C   UNL     1     -11.153  13.068  65.790  1.00  0.00    -0.278 A  
HETATM   12  C   UNL     1     -10.570  11.810  65.572  1.00  0.00    -0.276 A  
HETATM   13  C   UNL     1     -10.899  11.137  64.398  1.00  0.00    -0.340 A  
HETATM   14  N   UNL     1      -9.605  11.288  66.515  1.00  0.00    -0.187 N  
HETATM   15  C   UNL     1     -12.011  13.656  64.844  1.00  0.00    -0.410 A  
HETATM   16  C   UNL     1     -11.749  11.734  63.443  1.00  0.00    -0.423 A  
HETATM   17  C   UNL     1      -8.335  11.898  66.475  1.00  0.00    -0.062 C  
HETATM   18  O   UNL     1      -7.348  11.254  66.097  1.00  0.00    -0.070 OA 
HETATM   19  C   UNL     1     -12.299  12.995  63.662  1.00  0.00    -0.499 A  
HETATM   20  C   UNL     1      -8.136  13.321  67.096  1.00  0.00    -0.088 C  
BRANCH  14  21
HETATM   21  C   UNL     1      -9.619   9.807  66.709  1.00  0.00    -0.177 C  
BRANCH  21  22
HETATM   22  C   UNL     1      -9.177   9.390  68.147  1.00  0.00    -0.130 C  
BRANCH  22  23
HETATM   23  N   UNL     1      -8.743   7.982  68.351  1.00  0.00    -0.131 NA 
HETATM   24  C   UNL     1      -7.889   7.563  67.226  1.00  0.00    -0.118 C  
HETATM   25  C   UNL     1      -9.862   7.046  68.463  1.00  0.00    -0.147 C  
ENDBRANCH  22  23
ENDBRANCH  21  22
ENDBRANCH  14  21
BRANCH  20  26
HETATM   26  O   UNL     1      -8.189  13.198  68.531  1.00  0.00    -0.145 OA 
BRANCH  26  27
HETATM   27  C   UNL     1      -7.007  13.241  69.184  1.00  0.00    -0.031 C  
HETATM   28  C   UNL     1      -6.638  11.855  69.611  1.00  0.00    -0.062 C  
HETATM   29  O   UNL     1      -6.358  14.244  69.426  1.00  0.00    -0.105 OA 
ENDBRANCH  26  27
ENDBRANCH  20  26
ENDBRANCH   6   9
ENDBRANCH   2   3
TORSDOF 7
ENDMDL
MODEL       51
REMARK 921   NORMALIZED FREE ENERGY PREDICTED BY IDOCK:   -4.49 KCAL/MOL
REMARK 922        TOTAL FREE ENERGY PREDICTED BY IDOCK:   -7.44 KCAL/MOL
REMARK 923 INTER-LIGAND FREE ENERGY PREDICTED BY IDOCK:   -6.35 KCAL/MOL
REMARK 924 INTRA-LIGAND FREE ENERGY PREDICTED BY IDOCK:   -1.08 KCAL/MOL
REMARK 927      BINDING AFFINITY PREDICTED BY RF-SCORE:    0.00 PKD
ROOT
HETATM    1  C   UNL     1     -10.270   3.431  72.707  1.00  0.00    -0.168 C  
HETATM    2  O   UNL     1     -10.071   4.824  72.951  1.00  0.00    -0.157 OA 
ENDROOT
BRANCH   2   3
HETATM    3  C   UNL     1     -10.092   5.639  71.852  1.00  0.00    -0.189 A  
HETATM    4  C   UNL     1     -11.159   5.776  70.981  1.00  0.00    -0.264 A  
HETATM    5  C   UNL     1     -11.054   6.614  69.867  1.00  0.00    -0.403 A  
HETATM    6  C   UNL     1      -9.889   7.352  69.573  1.00  0.00    -0.165 A  
HETATM    7  C   UNL     1      -8.938   6.390  71.616  1.00  0.00    -0.144 A  
HETATM    8  C   UNL     1      -8.835   7.239  70.495  1.00  0.00    -0.153 A  
BRANCH   6   9
HETATM    9  C   UNL     1      -9.780   8.288  68.341  1.00  0.00    -0.158 C  
HETATM   10  S   UNL     1      -8.034   8.830  68.078  1.00  0.00    -0.107 SA 
HETATM   11  C   UNL     1      -8.166   8.985  66.335  1.00  0.00    -0.111 A  
HETATM   12  C   UNL     1      -8.879  10.038  65.739  1.00  0.00    -0.150 A  
HETATM   13  C   UNL     1      -8.939  10.075  64.349  1.00  0.00    -0.265 A  
HETATM   14  N   UNL     1      -9.581  10.994  66.567  1.00  0.00    -0.191 N  
HETATM   15  C   UNL     1      -7.562   7.976  65.566  1.00  0.00    -0.085 A  
HETATM   16  C   UNL     1      -8.345   9.054  63.578  1.00  0.00    -0.182 A  
HETATM   17  C   UNL     1     -10.764  10.515  67.167  1.00  0.00    -0.265 C  
HETATM   18  O   UNL     1     -11.862  10.976  66.830  1.00  0.00    -0.160 OA 
HETATM   19  C   UNL     1      -7.663   8.002  64.185  1.00  0.00    -0.129 A  
HETATM   20  C   UNL     1     -10.676   9.552  68.397  1.00  0.00    -0.186 C  
BRANCH  14  21
HETATM   21  C   UNL     1      -9.625  12.395  66.049  1.00  0.00    -0.209 C  
BRANCH  21  22
HETATM   22  C   UNL     1      -9.453  13.454  67.183  1.00  0.00    -0.244 C  
BRANCH  22  23
HETATM   23  N   UNL     1     -10.377  14.619  67.180  1.00  0.00    -0.263 NA 
HETATM   24  C   UNL     1     -11.677  14.217  67.743  1.00  0.00    -0.373 C  
HETATM   25  C   UNL     1     -10.598  15.175  65.845  1.00  0.00    -0.337 C  
ENDBRANCH  22  23
ENDBRANCH  21  22
ENDBRANCH  14  21
BRANCH  20  26
HETATM   26  O   UNL     1     -10.237  10.316  69.538  1.00  0.00    -0.216 OA 
BRANCH  26  27
HETATM   27  C   UNL     1     -11.121  10.449  70.551  1.00  0.00    -0.265 C  
HETATM   28  C   UNL     1     -11.945  11.675  70.318  1.00  0.00    -0.445 C  
HETATM   29  O   UNL     1     -11.213   9.716  71.522  1.00  0.00    -0.372 OA 
ENDBRANCH  26  27
ENDBRANCH  20  26
ENDBRANCH   6   9
ENDBRANCH   2   3
TORSDOF 7
ENDMDL
MODEL       52
REMARK 921   NORMALIZED FREE ENERGY PREDICTED BY IDOCK:   -4.48 KCAL/MOL
REMARK 922        TOTAL FREE ENERGY PREDICTED BY IDOCK:   -7.43 KCAL/MOL
REMARK 923 INTER-LIGAND FREE ENERGY PREDICTED BY IDOCK:   -7.22 KCAL/MOL
REMARK 924 INTRA-LIGAND FREE ENERGY PREDICTED BY IDOCK:   -0.21 KCAL/MOL
REMARK 927      BINDING AFFINITY PREDICTED BY RF-SCORE:    0.00 PKD
ROOT
HETATM    1  C   UNL     1      -8.700   3.763  68.087  1.00  0.00    -0.103 C  
HETATM    2  O   UNL     1      -9.805   4.207  67.298  1.00  0.00    -0.196 OA 
ENDROOT
BRANCH   2   3
HETATM    3  C   UNL     1      -9.973   5.561  67.200  1.00  0.00    -0.169 A  
HETATM    4  C   UNL     1     -10.921   6.298  67.889  1.00  0.00    -0.421 A  
HETATM    5  C   UNL     1     -11.026   7.677  67.682  1.00  0.00    -0.059 A  
HETATM    6  C   UNL     1     -10.194   8.380  66.788  1.00  0.00    -0.376 A  
HETATM    7  C   UNL     1      -9.103   6.234  66.340  1.00  0.00    -0.164 A  
HETATM    8  C   UNL     1      -9.205   7.625  66.136  1.00  0.00    -0.168 A  
BRANCH   6   9
HETATM    9  C   UNL     1     -10.307   9.912  66.568  1.00  0.00    -0.188 C  
HETATM   10  S   UNL     1      -9.392  10.430  65.049  1.00  0.00    -0.254 SA 
HETATM   11  C   UNL     1     -10.440  11.786  64.675  1.00  0.00    -0.299 A  
HETATM   12  C   UNL     1     -10.418  12.968  65.432  1.00  0.00    -0.296 A  
HETATM   13  C   UNL     1     -11.293  13.988  65.067  1.00  0.00    -0.342 A  
HETATM   14  N   UNL     1      -9.560  13.066  66.592  1.00  0.00    -0.254 N  
HETATM   15  C   UNL     1     -11.338  11.611  63.607  1.00  0.00    -0.485 A  
HETATM   16  C   UNL     1     -12.203  13.807  64.004  1.00  0.00    -0.429 A  
HETATM   17  C   UNL     1      -9.988  12.337  67.720  1.00  0.00    -0.200 C  
HETATM   18  O   UNL     1     -10.352  12.931  68.743  1.00  0.00    -0.216 OA 
HETATM   19  C   UNL     1     -12.230  12.618  63.280  1.00  0.00    -0.512 A  
HETATM   20  C   UNL     1      -9.812  10.782  67.752  1.00  0.00    -0.166 C  
BRANCH  14  21
HETATM   21  C   UNL     1      -8.982  14.417  66.862  1.00  0.00    -0.243 C  
BRANCH  21  22
HETATM   22  C   UNL     1     -10.078  15.479  67.191  1.00  0.00    -0.254 C  
BRANCH  22  23
HETATM   23  N   UNL     1      -9.626  16.783  67.745  1.00  0.00    -0.238 NA 
HETATM   24  C   UNL     1      -8.656  16.547  68.829  1.00  0.00    -0.262 C  
HETATM   25  C   UNL     1     -10.723  17.597  68.269  1.00  0.00    -0.280 C  
ENDBRANCH  22  23
ENDBRANCH  21  22
ENDBRANCH  14  21
BRANCH  20  26
HETATM   26  O   UNL     1      -8.410  10.490  67.917  1.00  0.00    -0.113 OA 
BRANCH  26  27
HETATM   27  C   UNL     1      -7.950  10.443  69.187  1.00  0.00    -0.141 C  
HETATM   28  C   UNL     1      -8.937   9.703  70.033  1.00  0.00    -0.266 C  
HETATM   29  O   UNL     1      -6.919  10.951  69.595  1.00  0.00    -0.122 OA 
ENDBRANCH  26  27
ENDBRANCH  20  26
ENDBRANCH   6   9
ENDBRANCH   2   3
TORSDOF 7
ENDMDL
MODEL       53
REMARK 921   NORMALIZED FREE ENERGY PREDICTED BY IDOCK:   -4.47 KCAL/MOL
REMARK 922        TOTAL FREE ENERGY PREDICTED BY IDOCK:   -7.42 KCAL/MOL
REMARK 923 INTER-LIGAND FREE ENERGY PREDICTED BY IDOCK:   -6.48 KCAL/MOL
REMARK 924 INTRA-LIGAND FREE ENERGY PREDICTED BY IDOCK:   -0.94 KCAL/MOL
REMARK 927      BINDING AFFINITY PREDICTED BY RF-SCORE:    0.00 PKD
ROOT
HETATM    1  C   UNL     1      -9.136   3.861  74.327  1.00  0.00    -0.092 C  
HETATM    2  O   UNL     1      -9.798   3.838  73.062  1.00  0.00    -0.123 OA 
ENDROOT
BRANCH   2   3
HETATM    3  C   UNL     1      -9.708   4.978  72.310  1.00  0.00    -0.158 A  
HETATM    4  C   UNL     1      -8.871   6.047  72.583  1.00  0.00    -0.124 A  
HETATM    5  C   UNL     1      -8.889   7.179  71.763  1.00  0.00    -0.129 A  
HETATM    6  C   UNL     1      -9.733   7.296  70.639  1.00  0.00    -0.175 A  
HETATM    7  C   UNL     1     -10.525   5.042  71.180  1.00  0.00    -0.205 A  
HETATM    8  C   UNL     1     -10.538   6.181  70.350  1.00  0.00    -0.317 A  
BRANCH   6   9
HETATM    9  C   UNL     1      -9.743   8.550  69.726  1.00  0.00    -0.179 C  
HETATM   10  S   UNL     1      -8.272   9.618  70.056  1.00  0.00    -0.191 SA 
HETATM   11  C   UNL     1      -8.149  10.245  68.422  1.00  0.00    -0.109 A  
HETATM   12  C   UNL     1      -9.068  11.181  67.919  1.00  0.00    -0.150 A  
HETATM   13  C   UNL     1      -8.897  11.615  66.607  1.00  0.00    -0.187 A  
HETATM   14  N   UNL     1     -10.186  11.604  68.732  1.00  0.00    -0.204 N  
HETATM   15  C   UNL     1      -7.113   9.728  67.626  1.00  0.00    -0.088 A  
HETATM   16  C   UNL     1      -7.865  11.085  65.804  1.00  0.00     0.011 A  
HETATM   17  C   UNL     1     -11.216  10.652  68.879  1.00  0.00    -0.275 C  
HETATM   18  O   UNL     1     -12.331  10.862  68.383  1.00  0.00    -0.477 OA 
HETATM   19  C   UNL     1      -6.978  10.138  66.310  1.00  0.00    -0.109 A  
HETATM   20  C   UNL     1     -11.015   9.430  69.835  1.00  0.00    -0.229 C  
BRANCH  14  21
HETATM   21  C   UNL     1     -10.620  13.022  68.556  1.00  0.00    -0.258 C  
BRANCH  21  22
HETATM   22  C   UNL     1     -11.436  13.552  69.777  1.00  0.00    -0.175 C  
BRANCH  22  23
HETATM   23  N   UNL     1     -11.499  15.024  69.974  1.00  0.00    -0.260 NA 
HETATM   24  C   UNL     1     -10.266  15.643  69.458  1.00  0.00    -0.277 C  
HETATM   25  C   UNL     1     -11.664  15.411  71.376  1.00  0.00    -0.395 C  
ENDBRANCH  22  23
ENDBRANCH  21  22
ENDBRANCH  14  21
BRANCH  20  26
HETATM   26  O   UNL     1     -11.067   9.907  71.194  1.00  0.00    -0.350 OA 
BRANCH  26  27
HETATM   27  C   UNL     1     -12.211   9.669  71.873  1.00  0.00    -0.336 C  
HETATM   28  C   UNL     1     -13.052  10.905  71.857  1.00  0.00    -0.537 C  
HETATM   29  O   UNL     1     -12.503   8.631  72.444  1.00  0.00    -0.382 OA 
ENDBRANCH  26  27
ENDBRANCH  20  26
ENDBRANCH   6   9
ENDBRANCH   2   3
TORSDOF 7
ENDMDL
MODEL       54
REMARK 921   NORMALIZED FREE ENERGY PREDICTED BY IDOCK:   -4.47 KCAL/MOL
REMARK 922        TOTAL FREE ENERGY PREDICTED BY IDOCK:   -7.42 KCAL/MOL
REMARK 923 INTER-LIGAND FREE ENERGY PREDICTED BY IDOCK:   -6.23 KCAL/MOL
REMARK 924 INTRA-LIGAND FREE ENERGY PREDICTED BY IDOCK:   -1.19 KCAL/MOL
REMARK 927      BINDING AFFINITY PREDICTED BY RF-SCORE:    0.00 PKD
ROOT
HETATM    1  C   UNL     1     -11.763  15.533  71.855  1.00  0.00    -0.446 C  
HETATM    2  O   UNL     1     -12.259  15.338  70.530  1.00  0.00    -0.317 OA 
ENDROOT
BRANCH   2   3
HETATM    3  C   UNL     1     -11.519  14.519  69.722  1.00  0.00    -0.279 A  
HETATM    4  C   UNL     1     -10.365  14.891  69.053  1.00  0.00    -0.245 A  
HETATM    5  C   UNL     1      -9.709  13.977  68.222  1.00  0.00    -0.225 A  
HETATM    6  C   UNL     1     -10.167  12.659  68.024  1.00  0.00    -0.230 A  
HETATM    7  C   UNL     1     -11.976  13.206  69.583  1.00  0.00    -0.370 A  
HETATM    8  C   UNL     1     -11.311  12.284  68.750  1.00  0.00    -0.337 A  
BRANCH   6   9
HETATM    9  C   UNL     1      -9.431  11.645  67.109  1.00  0.00    -0.176 C  
HETATM   10  S   UNL     1     -10.635  10.665  66.107  1.00  0.00    -0.086 SA 
HETATM   11  C   UNL     1      -9.565  10.433  64.737  1.00  0.00    -0.293 A  
HETATM   12  C   UNL     1      -8.469   9.556  64.795  1.00  0.00    -0.159 A  
HETATM   13  C   UNL     1      -7.669   9.443  63.662  1.00  0.00    -0.123 A  
HETATM   14  N   UNL     1      -8.163   8.864  66.028  1.00  0.00    -0.114 N  
HETATM   15  C   UNL     1      -9.831  11.205  63.593  1.00  0.00    -0.387 A  
HETATM   16  C   UNL     1      -7.928  10.229  62.519  1.00  0.00    -0.166 A  
HETATM   17  C   UNL     1      -7.594   9.664  67.040  1.00  0.00    -0.095 C  
HETATM   18  O   UNL     1      -6.424   9.473  67.398  1.00  0.00    -0.067 OA 
HETATM   19  C   UNL     1      -9.003  11.113  62.486  1.00  0.00    -0.347 A  
HETATM   20  C   UNL     1      -8.496  10.654  67.848  1.00  0.00    -0.120 C  
BRANCH  14  21
HETATM   21  C   UNL     1      -7.600   7.489  65.880  1.00  0.00    -0.088 C  
BRANCH  21  22
HETATM   22  C   UNL     1      -8.599   6.383  66.347  1.00  0.00    -0.134 C  
BRANCH  22  23
HETATM   23  N   UNL     1      -9.459   6.687  67.522  1.00  0.00    -0.125 NA 
HETATM   24  C   UNL     1      -8.812   6.189  68.747  1.00  0.00    -0.121 C  
HETATM   25  C   UNL     1     -10.794   6.096  67.425  1.00  0.00    -0.343 C  
ENDBRANCH  22  23
ENDBRANCH  21  22
ENDBRANCH  14  21
BRANCH  20  26
HETATM   26  O   UNL     1      -9.334   9.882  68.732  1.00  0.00    -0.147 OA 
BRANCH  26  27
HETATM   27  C   UNL     1      -8.896   9.733  70.001  1.00  0.00    -0.215 C  
HETATM   28  C   UNL     1      -9.908   8.949  70.775  1.00  0.00    -0.278 C  
HETATM   29  O   UNL     1      -7.864  10.192  70.462  1.00  0.00    -0.195 OA 
ENDBRANCH  26  27
ENDBRANCH  20  26
ENDBRANCH   6   9
ENDBRANCH   2   3
TORSDOF 7
ENDMDL
MODEL       55
REMARK 921   NORMALIZED FREE ENERGY PREDICTED BY IDOCK:   -4.46 KCAL/MOL
REMARK 922        TOTAL FREE ENERGY PREDICTED BY IDOCK:   -7.40 KCAL/MOL
REMARK 923 INTER-LIGAND FREE ENERGY PREDICTED BY IDOCK:   -6.84 KCAL/MOL
REMARK 924 INTRA-LIGAND FREE ENERGY PREDICTED BY IDOCK:   -0.56 KCAL/MOL
REMARK 927      BINDING AFFINITY PREDICTED BY RF-SCORE:    0.00 PKD
ROOT
HETATM    1  C   UNL     1     -13.382  15.986  73.246  1.00  0.00    -0.532 C  
HETATM    2  O   UNL     1     -13.825  15.635  71.935  1.00  0.00    -0.471 OA 
ENDROOT
BRANCH   2   3
HETATM    3  C   UNL     1     -13.080  14.695  71.277  1.00  0.00    -0.359 A  
HETATM    4  C   UNL     1     -12.219  14.954  70.224  1.00  0.00    -0.389 A  
HETATM    5  C   UNL     1     -11.535  13.906  69.601  1.00  0.00    -0.310 A  
HETATM    6  C   UNL     1     -11.673  12.561  69.999  1.00  0.00    -0.297 A  
HETATM    7  C   UNL     1     -13.206  13.378  71.726  1.00  0.00    -0.495 A  
HETATM    8  C   UNL     1     -12.511  12.323  71.101  1.00  0.00    -0.328 A  
BRANCH   6   9
HETATM    9  C   UNL     1     -10.904  11.402  69.312  1.00  0.00    -0.194 C  
HETATM   10  S   UNL     1     -11.758  10.870  67.763  1.00  0.00     0.223 SA 
HETATM   11  C   UNL     1     -10.298  10.367  66.929  1.00  0.00    -0.240 A  
HETATM   12  C   UNL     1      -9.610   9.196  67.286  1.00  0.00    -0.154 A  
HETATM   13  C   UNL     1      -8.455   8.882  66.575  1.00  0.00    -0.124 A  
HETATM   14  N   UNL     1     -10.066   8.404  68.406  1.00  0.00    -0.192 N  
HETATM   15  C   UNL     1      -9.825  11.221  65.918  1.00  0.00    -0.272 A  
HETATM   16  C   UNL     1      -7.973   9.746  65.569  1.00  0.00    -0.123 A  
HETATM   17  C   UNL     1      -9.809   8.957  69.677  1.00  0.00    -0.180 C  
HETATM   18  O   UNL     1      -9.009   8.406  70.445  1.00  0.00    -0.141 OA 
HETATM   19  C   UNL     1      -8.654  10.918  65.245  1.00  0.00    -0.103 A  
HETATM   20  C   UNL     1     -10.681  10.148  70.197  1.00  0.00    -0.300 C  
BRANCH  14  21
HETATM   21  C   UNL     1      -9.876   6.927  68.280  1.00  0.00    -0.138 C  
BRANCH  21  22
HETATM   22  C   UNL     1     -11.033   6.119  68.947  1.00  0.00    -0.356 C  
BRANCH  22  23
HETATM   23  N   UNL     1     -10.657   4.960  69.800  1.00  0.00    -0.014 NA 
HETATM   24  C   UNL     1     -10.689   5.361  71.217  1.00  0.00    -0.179 C  
HETATM   25  C   UNL     1      -9.329   4.428  69.494  1.00  0.00    -0.156 C  
ENDBRANCH  22  23
ENDBRANCH  21  22
ENDBRANCH  14  21
BRANCH  20  26
HETATM   26  O   UNL     1     -11.990   9.640  70.524  1.00  0.00    -0.250 OA 
BRANCH  26  27
HETATM   27  C   UNL     1     -12.083   8.892  71.646  1.00  0.00    -0.346 C  
HETATM   28  C   UNL     1     -13.275   7.996  71.534  1.00  0.00    -0.320 C  
HETATM   29  O   UNL     1     -11.343   8.957  72.614  1.00  0.00    -0.105 OA 
ENDBRANCH  26  27
ENDBRANCH  20  26
ENDBRANCH   6   9
ENDBRANCH   2   3
TORSDOF 7
ENDMDL
MODEL       56
REMARK 921   NORMALIZED FREE ENERGY PREDICTED BY IDOCK:   -4.43 KCAL/MOL
REMARK 922        TOTAL FREE ENERGY PREDICTED BY IDOCK:   -7.35 KCAL/MOL
REMARK 923 INTER-LIGAND FREE ENERGY PREDICTED BY IDOCK:   -6.59 KCAL/MOL
REMARK 924 INTRA-LIGAND FREE ENERGY PREDICTED BY IDOCK:   -0.76 KCAL/MOL
REMARK 927      BINDING AFFINITY PREDICTED BY RF-SCORE:    0.00 PKD
ROOT
HETATM    1  C   UNL     1     -12.734  15.307  73.835  1.00  0.00    -0.518 C  
HETATM    2  O   UNL     1     -13.269  14.210  73.095  1.00  0.00    -0.613 OA 
ENDROOT
BRANCH   2   3
HETATM    3  C   UNL     1     -12.631  13.902  71.923  1.00  0.00    -0.222 A  
HETATM    4  C   UNL     1     -11.887  14.790  71.165  1.00  0.00    -0.387 A  
HETATM    5  C   UNL     1     -11.309  14.373  69.962  1.00  0.00    -0.253 A  
HETATM    6  C   UNL     1     -11.441  13.060  69.465  1.00  0.00    -0.289 A  
HETATM    7  C   UNL     1     -12.745  12.582  71.483  1.00  0.00    -0.325 A  
HETATM    8  C   UNL     1     -12.156  12.161  70.274  1.00  0.00    -0.385 A  
BRANCH   6   9
HETATM    9  C   UNL     1     -10.789  12.598  68.136  1.00  0.00    -0.227 C  
HETATM   10  S   UNL     1     -11.778  11.251  67.349  1.00  0.00     0.145 SA 
HETATM   11  C   UNL     1     -11.353  11.670  65.699  1.00  0.00    -0.170 A  
HETATM   12  C   UNL     1     -10.072  11.418  65.180  1.00  0.00    -0.271 A  
HETATM   13  C   UNL     1      -9.822  11.794  63.862  1.00  0.00    -0.298 A  
HETATM   14  N   UNL     1      -9.046  10.856  66.029  1.00  0.00    -0.184 N  
HETATM   15  C   UNL     1     -12.343  12.315  64.939  1.00  0.00    -0.376 A  
HETATM   16  C   UNL     1     -10.813  12.454  63.104  1.00  0.00    -0.090 A  
HETATM   17  C   UNL     1      -8.500  11.743  66.979  1.00  0.00    -0.175 C  
HETATM   18  O   UNL     1      -7.319  12.102  66.887  1.00  0.00    -0.111 OA 
HETATM   19  C   UNL     1     -12.069  12.720  63.643  1.00  0.00    -0.624 A  
HETATM   20  C   UNL     1      -9.321  12.114  68.259  1.00  0.00    -0.198 C  
BRANCH  14  21
HETATM   21  C   UNL     1      -8.082   9.931  65.361  1.00  0.00    -0.137 C  
BRANCH  21  22
HETATM   22  C   UNL     1      -8.606   8.461  65.306  1.00  0.00    -0.150 C  
BRANCH  22  23
HETATM   23  N   UNL     1      -8.214   7.636  64.132  1.00  0.00    -0.052 NA 
HETATM   24  C   UNL     1      -7.272   6.589  64.559  1.00  0.00    -0.064 C  
HETATM   25  C   UNL     1      -7.592   8.418  63.062  1.00  0.00    -0.120 C  
ENDBRANCH  22  23
ENDBRANCH  21  22
ENDBRANCH  14  21
BRANCH  20  26
HETATM   26  O   UNL     1      -9.341  10.965  69.130  1.00  0.00    -0.170 OA 
BRANCH  26  27
HETATM   27  C   UNL     1      -8.140  10.446  69.470  1.00  0.00    -0.136 C  
HETATM   28  C   UNL     1      -8.174   8.966  69.257  1.00  0.00    -0.114 C  
HETATM   29  O   UNL     1      -7.191  11.068  69.916  1.00  0.00    -0.081 OA 
ENDBRANCH  26  27
ENDBRANCH  20  26
ENDBRANCH   6   9
ENDBRANCH   2   3
TORSDOF 7
ENDMDL
MODEL       57
REMARK 921   NORMALIZED FREE ENERGY PREDICTED BY IDOCK:   -4.42 KCAL/MOL
REMARK 922        TOTAL FREE ENERGY PREDICTED BY IDOCK:   -7.35 KCAL/MOL
REMARK 923 INTER-LIGAND FREE ENERGY PREDICTED BY IDOCK:   -5.98 KCAL/MOL
REMARK 924 INTRA-LIGAND FREE ENERGY PREDICTED BY IDOCK:   -1.37 KCAL/MOL
REMARK 927      BINDING AFFINITY PREDICTED BY RF-SCORE:    0.00 PKD
ROOT
HETATM    1  C   UNL     1     -11.023   3.842  73.475  1.00  0.00    -0.252 C  
HETATM    2  O   UNL     1     -10.927   5.107  74.129  1.00  0.00    -0.285 OA 
ENDROOT
BRANCH   2   3
HETATM    3  C   UNL     1     -10.567   6.169  73.344  1.00  0.00    -0.269 A  
HETATM    4  C   UNL     1      -9.574   7.085  73.649  1.00  0.00    -0.261 A  
HETATM    5  C   UNL     1      -9.317   8.154  72.786  1.00  0.00    -0.344 A  
HETATM    6  C   UNL     1     -10.029   8.357  71.586  1.00  0.00    -0.302 A  
HETATM    7  C   UNL     1     -11.262   6.315  72.141  1.00  0.00    -0.326 A  
HETATM    8  C   UNL     1     -10.998   7.390  71.270  1.00  0.00    -0.263 A  
BRANCH   6   9
HETATM    9  C   UNL     1      -9.733   9.540  70.627  1.00  0.00    -0.245 C  
HETATM   10  S   UNL     1     -11.012   9.647  69.298  1.00  0.00    -0.118 SA 
HETATM   11  C   UNL     1     -10.906  11.387  69.102  1.00  0.00    -0.213 A  
HETATM   12  C   UNL     1      -9.804  11.995  68.480  1.00  0.00    -0.172 A  
HETATM   13  C   UNL     1      -9.802  13.384  68.378  1.00  0.00    -0.216 A  
HETATM   14  N   UNL     1      -8.689  11.188  68.038  1.00  0.00    -0.136 N  
HETATM   15  C   UNL     1     -11.959  12.147  69.642  1.00  0.00    -0.351 A  
HETATM   16  C   UNL     1     -10.852  14.146  68.932  1.00  0.00    -0.276 A  
HETATM   17  C   UNL     1      -7.856  10.699  69.065  1.00  0.00    -0.137 C  
HETATM   18  O   UNL     1      -6.689  11.102  69.164  1.00  0.00    -0.072 OA 
HETATM   19  C   UNL     1     -11.925  13.529  69.570  1.00  0.00    -0.390 A  
HETATM   20  C   UNL     1      -8.337   9.504  69.954  1.00  0.00    -0.170 C  
BRANCH  14  21
HETATM   21  C   UNL     1      -8.000  11.652  66.796  1.00  0.00    -0.140 C  
BRANCH  21  22
HETATM   22  C   UNL     1      -7.756  10.492  65.781  1.00  0.00    -0.145 C  
BRANCH  22  23
HETATM   23  N   UNL     1      -8.904   9.598  65.471  1.00  0.00    -0.160 NA 
HETATM   24  C   UNL     1      -8.403   8.270  65.080  1.00  0.00    -0.148 C  
HETATM   25  C   UNL     1      -9.759  10.110  64.400  1.00  0.00    -0.277 C  
ENDBRANCH  22  23
ENDBRANCH  21  22
ENDBRANCH  14  21
BRANCH  20  26
HETATM   26  O   UNL     1      -8.297   8.304  69.156  1.00  0.00    -0.120 OA 
BRANCH  26  27
HETATM   27  C   UNL     1      -7.242   7.484  69.354  1.00  0.00    -0.082 C  
HETATM   28  C   UNL     1      -6.475   7.364  68.075  1.00  0.00    -0.049 C  
HETATM   29  O   UNL     1      -6.972   6.900  70.390  1.00  0.00    -0.060 OA 
ENDBRANCH  26  27
ENDBRANCH  20  26
ENDBRANCH   6   9
ENDBRANCH   2   3
TORSDOF 7
ENDMDL
MODEL       58
REMARK 921   NORMALIZED FREE ENERGY PREDICTED BY IDOCK:   -4.42 KCAL/MOL
REMARK 922        TOTAL FREE ENERGY PREDICTED BY IDOCK:   -7.34 KCAL/MOL
REMARK 923 INTER-LIGAND FREE ENERGY PREDICTED BY IDOCK:   -7.63 KCAL/MOL
REMARK 924 INTRA-LIGAND FREE ENERGY PREDICTED BY IDOCK:    0.30 KCAL/MOL
REMARK 927      BINDING AFFINITY PREDICTED BY RF-SCORE:    0.00 PKD
ROOT
HETATM    1  C   UNL     1     -13.277  16.008  73.345  1.00  0.00    -0.543 C  
HETATM    2  O   UNL     1     -14.087  15.230  72.463  1.00  0.00    -0.509 OA 
ENDROOT
BRANCH   2   3
HETATM    3  C   UNL     1     -13.442  14.256  71.750  1.00  0.00    -0.381 A  
HETATM    4  C   UNL     1     -12.642  14.477  70.643  1.00  0.00    -0.416 A  
HETATM    5  C   UNL     1     -12.060  13.399  69.969  1.00  0.00    -0.404 A  
HETATM    6  C   UNL     1     -12.246  12.060  70.368  1.00  0.00    -0.379 A  
HETATM    7  C   UNL     1     -13.610  12.944  72.199  1.00  0.00    -0.589 A  
HETATM    8  C   UNL     1     -13.020  11.858  71.523  1.00  0.00    -0.427 A  
BRANCH   6   9
HETATM    9  C   UNL     1     -11.591  10.866  69.624  1.00  0.00    -0.322 C  
HETATM   10  S   UNL     1     -10.326  10.040  70.686  1.00  0.00     0.072 SA 
HETATM   11  C   UNL     1     -10.544   8.442  69.997  1.00  0.00    -0.235 A  
HETATM   12  C   UNL     1     -10.082   8.122  68.710  1.00  0.00    -0.199 A  
HETATM   13  C   UNL     1     -10.309   6.830  68.242  1.00  0.00    -0.215 A  
HETATM   14  N   UNL     1      -9.461   9.140  67.893  1.00  0.00    -0.140 N  
HETATM   15  C   UNL     1     -11.248   7.510  70.779  1.00  0.00    -0.287 A  
HETATM   16  C   UNL     1     -11.028   5.900  69.022  1.00  0.00    -0.359 A  
HETATM   17  C   UNL     1     -10.345  10.097  67.352  1.00  0.00    -0.238 C  
HETATM   18  O   UNL     1     -10.534  10.146  66.129  1.00  0.00    -0.192 OA 
HETATM   19  C   UNL     1     -11.503   6.241  70.286  1.00  0.00    -0.428 A  
HETATM   20  C   UNL     1     -10.928  11.223  68.269  1.00  0.00    -0.224 C  
BRANCH  14  21
HETATM   21  C   UNL     1      -8.363   8.675  66.993  1.00  0.00    -0.106 C  
BRANCH  21  22
HETATM   22  C   UNL     1      -7.615   7.428  67.562  1.00  0.00    -0.106 C  
BRANCH  22  23
HETATM   23  N   UNL     1      -7.311   6.320  66.617  1.00  0.00    -0.077 NA 
HETATM   24  C   UNL     1      -6.592   5.250  67.329  1.00  0.00    -0.053 C  
HETATM   25  C   UNL     1      -6.503   6.746  65.473  1.00  0.00    -0.050 C  
ENDBRANCH  22  23
ENDBRANCH  21  22
ENDBRANCH  14  21
BRANCH  20  26
HETATM   26  O   UNL     1      -9.870  12.157  68.564  1.00  0.00    -0.209 OA 
BRANCH  26  27
HETATM   27  C   UNL     1      -9.282  12.757  67.505  1.00  0.00    -0.191 C  
HETATM   28  C   UNL     1      -7.797  12.696  67.675  1.00  0.00    -0.162 C  
HETATM   29  O   UNL     1      -9.859  13.297  66.576  1.00  0.00    -0.267 OA 
ENDBRANCH  26  27
ENDBRANCH  20  26
ENDBRANCH   6   9
ENDBRANCH   2   3
TORSDOF 7
ENDMDL
MODEL       59
REMARK 921   NORMALIZED FREE ENERGY PREDICTED BY IDOCK:   -4.40 KCAL/MOL
REMARK 922        TOTAL FREE ENERGY PREDICTED BY IDOCK:   -7.32 KCAL/MOL
REMARK 923 INTER-LIGAND FREE ENERGY PREDICTED BY IDOCK:   -6.67 KCAL/MOL
REMARK 924 INTRA-LIGAND FREE ENERGY PREDICTED BY IDOCK:   -0.65 KCAL/MOL
REMARK 927      BINDING AFFINITY PREDICTED BY RF-SCORE:    0.00 PKD
ROOT
HETATM    1  C   UNL     1     -10.595   5.549  69.434  1.00  0.00    -0.279 C  
HETATM    2  O   UNL     1     -10.176   6.492  68.447  1.00  0.00    -0.150 OA 
ENDROOT
BRANCH   2   3
HETATM    3  C   UNL     1     -10.262   7.813  68.796  1.00  0.00    -0.201 A  
HETATM    4  C   UNL     1      -9.925   8.332  70.034  1.00  0.00    -0.188 A  
HETATM    5  C   UNL     1     -10.088   9.697  70.291  1.00  0.00    -0.331 A  
HETATM    6  C   UNL     1     -10.587  10.601  69.331  1.00  0.00    -0.270 A  
HETATM    7  C   UNL     1     -10.717   8.687  67.807  1.00  0.00    -0.178 A  
HETATM    8  C   UNL     1     -10.876  10.064  68.065  1.00  0.00    -0.311 A  
BRANCH   6   9
HETATM    9  C   UNL     1     -10.757  12.116  69.616  1.00  0.00     0.378 C  
HETATM   10  S   UNL     1     -12.530  12.618  69.483  1.00  0.00     0.403 SA 
HETATM   11  C   UNL     1     -12.429  13.909  70.666  1.00  0.00    -0.366 A  
HETATM   12  C   UNL     1     -11.774  15.119  70.386  1.00  0.00    -0.293 A  
HETATM   13  C   UNL     1     -11.736  16.083  71.389  1.00  0.00    -0.536 A  
HETATM   14  N   UNL     1     -11.106  15.300  69.116  1.00  0.00    -0.247 N  
HETATM   15  C   UNL     1     -12.997  13.653  71.927  1.00  0.00    -0.432 A  
HETATM   16  C   UNL     1     -12.293  15.820  72.659  1.00  0.00    -0.559 A  
HETATM   17  C   UNL     1      -9.894  14.595  68.969  1.00  0.00    -0.177 C  
HETATM   18  O   UNL     1      -8.823  15.210  68.886  1.00  0.00    -0.183 OA 
HETATM   19  C   UNL     1     -12.917  14.605  72.930  1.00  0.00    -0.592 A  
HETATM   20  C   UNL     1      -9.920  13.052  68.707  1.00  0.00    -0.010 C  
BRANCH  14  21
HETATM   21  C   UNL     1     -11.134  16.685  68.557  1.00  0.00    -0.301 C  
BRANCH  21  22
HETATM   22  C   UNL     1     -10.785  16.721  67.036  1.00  0.00    -0.161 C  
BRANCH  22  23
HETATM   23  N   UNL     1     -10.227  17.986  66.489  1.00  0.00    -0.366 NA 
HETATM   24  C   UNL     1      -8.757  17.947  66.560  1.00  0.00    -0.256 C  
HETATM   25  C   UNL     1     -10.699  19.176  67.198  1.00  0.00    -0.471 C  
ENDBRANCH  22  23
ENDBRANCH  21  22
ENDBRANCH  14  21
BRANCH  20  26
HETATM   26  O   UNL     1     -10.378  12.831  67.358  1.00  0.00    -0.220 OA 
BRANCH  26  27
HETATM   27  C   UNL     1      -9.464  12.996  66.377  1.00  0.00    -0.224 C  
HETATM   28  C   UNL     1      -8.294  12.104  66.649  1.00  0.00    -0.051 C  
HETATM   29  O   UNL     1      -9.550  13.771  65.439  1.00  0.00    -0.092 OA 
ENDBRANCH  26  27
ENDBRANCH  20  26
ENDBRANCH   6   9
ENDBRANCH   2   3
TORSDOF 7
ENDMDL
MODEL       60
REMARK 921   NORMALIZED FREE ENERGY PREDICTED BY IDOCK:   -4.37 KCAL/MOL
REMARK 922        TOTAL FREE ENERGY PREDICTED BY IDOCK:   -7.27 KCAL/MOL
REMARK 923 INTER-LIGAND FREE ENERGY PREDICTED BY IDOCK:   -6.31 KCAL/MOL
REMARK 924 INTRA-LIGAND FREE ENERGY PREDICTED BY IDOCK:   -0.96 KCAL/MOL
REMARK 927      BINDING AFFINITY PREDICTED BY RF-SCORE:    0.00 PKD
ROOT
HETATM    1  C   UNL     1     -12.320  14.333  65.232  1.00  0.00    -0.424 C  
HETATM    2  O   UNL     1     -12.050  13.005  64.783  1.00  0.00    -0.369 OA 
ENDROOT
BRANCH   2   3
HETATM    3  C   UNL     1     -11.500  12.155  65.704  1.00  0.00    -0.355 A  
HETATM    4  C   UNL     1     -11.611  12.288  67.077  1.00  0.00    -0.418 A  
HETATM    5  C   UNL     1     -10.974  11.378  67.926  1.00  0.00    -0.295 A  
HETATM    6  C   UNL     1     -10.206  10.297  67.447  1.00  0.00    -0.265 A  
HETATM    7  C   UNL     1     -10.783  11.069  65.196  1.00  0.00    -0.253 A  
HETATM    8  C   UNL     1     -10.146  10.148  66.051  1.00  0.00    -0.317 A  
BRANCH   6   9
HETATM    9  C   UNL     1      -9.509   9.282  68.391  1.00  0.00    -0.138 C  
HETATM   10  S   UNL     1      -9.720   7.554  67.775  1.00  0.00    -0.152 SA 
HETATM   11  C   UNL     1      -8.204   6.956  68.425  1.00  0.00    -0.120 A  
HETATM   12  C   UNL     1      -8.024   6.743  69.802  1.00  0.00    -0.124 A  
HETATM   13  C   UNL     1      -6.783   6.275  70.228  1.00  0.00    -0.053 A  
HETATM   14  N   UNL     1      -9.083   7.076  70.728  1.00  0.00    -0.153 N  
HETATM   15  C   UNL     1      -7.163   6.747  67.505  1.00  0.00    -0.090 A  
HETATM   16  C   UNL     1      -5.735   6.079  69.305  1.00  0.00    -0.016 A  
HETATM   17  C   UNL     1      -9.271   8.455  70.954  1.00  0.00    -0.160 C  
HETATM   18  O   UNL     1      -9.025   8.942  72.066  1.00  0.00    -0.365 OA 
HETATM   19  C   UNL     1      -5.921   6.321  67.946  1.00  0.00    -0.020 A  
HETATM   20  C   UNL     1      -9.980   9.331  69.868  1.00  0.00    -0.205 C  
BRANCH  14  21
HETATM   21  C   UNL     1      -9.204   6.190  71.925  1.00  0.00    -0.147 C  
BRANCH  21  22
HETATM   22  C   UNL     1     -10.184   4.998  71.687  1.00  0.00    -0.208 C  
BRANCH  22  23
HETATM   23  N   UNL     1      -9.595   3.636  71.586  1.00  0.00    -0.146 NA 
HETATM   24  C   UNL     1      -8.328   3.590  72.336  1.00  0.00    -0.084 C  
HETATM   25  C   UNL     1      -9.336   3.223  70.206  1.00  0.00    -0.172 C  
ENDBRANCH  22  23
ENDBRANCH  21  22
ENDBRANCH  14  21
BRANCH  20  26
HETATM   26  O   UNL     1     -11.382   8.995  69.862  1.00  0.00    -0.149 OA 
BRANCH  26  27
HETATM   27  C   UNL     1     -12.072   9.269  70.990  1.00  0.00    -0.280 C  
HETATM   28  C   UNL     1     -12.420  10.724  71.004  1.00  0.00    -0.522 C  
HETATM   29  O   UNL     1     -12.340   8.477  71.878  1.00  0.00    -0.310 OA 
ENDBRANCH  26  27
ENDBRANCH  20  26
ENDBRANCH   6   9
ENDBRANCH   2   3
TORSDOF 7
ENDMDL
MODEL       61
REMARK 921   NORMALIZED FREE ENERGY PREDICTED BY IDOCK:   -4.36 KCAL/MOL
REMARK 922        TOTAL FREE ENERGY PREDICTED BY IDOCK:   -7.26 KCAL/MOL
REMARK 923 INTER-LIGAND FREE ENERGY PREDICTED BY IDOCK:   -6.09 KCAL/MOL
REMARK 924 INTRA-LIGAND FREE ENERGY PREDICTED BY IDOCK:   -1.17 KCAL/MOL
REMARK 927      BINDING AFFINITY PREDICTED BY RF-SCORE:    0.00 PKD
ROOT
HETATM    1  C   UNL     1      -7.609   3.920  63.865  1.00  0.00    -0.077 C  
HETATM    2  O   UNL     1      -8.045   4.286  65.175  1.00  0.00    -0.099 OA 
ENDROOT
BRANCH   2   3
HETATM    3  C   UNL     1      -8.442   5.586  65.340  1.00  0.00    -0.146 A  
HETATM    4  C   UNL     1      -8.031   6.649  64.555  1.00  0.00    -0.106 A  
HETATM    5  C   UNL     1      -8.474   7.944  64.839  1.00  0.00    -0.045 A  
HETATM    6  C   UNL     1      -9.345   8.236  65.909  1.00  0.00    -0.165 A  
HETATM    7  C   UNL     1      -9.340   5.833  66.380  1.00  0.00    -0.168 A  
HETATM    8  C   UNL     1      -9.791   7.138  66.663  1.00  0.00    -0.237 A  
BRANCH   6   9
HETATM    9  C   UNL     1      -9.842   9.673  66.215  1.00  0.00    -0.256 C  
HETATM   10  S   UNL     1      -9.074  10.897  65.064  1.00  0.00    -0.163 SA 
HETATM   11  C   UNL     1     -10.430  12.010  65.072  1.00  0.00    -0.287 A  
HETATM   12  C   UNL     1     -10.718  12.816  66.185  1.00  0.00    -0.275 A  
HETATM   13  C   UNL     1     -11.821  13.663  66.105  1.00  0.00    -0.424 A  
HETATM   14  N   UNL     1      -9.926  12.694  67.389  1.00  0.00    -0.203 N  
HETATM   15  C   UNL     1     -11.242  12.021  63.925  1.00  0.00    -0.490 A  
HETATM   16  C   UNL     1     -12.643  13.663  64.959  1.00  0.00    -0.434 A  
HETATM   17  C   UNL     1     -10.165  11.532  68.151  1.00  0.00    -0.194 C  
HETATM   18  O   UNL     1     -10.680  11.621  69.273  1.00  0.00    -0.192 OA 
HETATM   19  C   UNL     1     -12.359  12.838  63.872  1.00  0.00    -0.510 A  
HETATM   20  C   UNL     1      -9.599  10.155  67.668  1.00  0.00    -0.148 C  
BRANCH  14  21
HETATM   21  C   UNL     1      -9.714  13.956  68.160  1.00  0.00    -0.222 C  
BRANCH  21  22
HETATM   22  C   UNL     1      -8.811  14.976  67.398  1.00  0.00    -0.190 C  
BRANCH  22  23
HETATM   23  N   UNL     1      -8.236  16.102  68.181  1.00  0.00    -0.155 NA 
HETATM   24  C   UNL     1      -8.038  15.680  69.578  1.00  0.00    -0.174 C  
HETATM   25  C   UNL     1      -9.078  17.300  68.170  1.00  0.00    -0.257 C  
ENDBRANCH  22  23
ENDBRANCH  21  22
ENDBRANCH  14  21
BRANCH  20  26
HETATM   26  O   UNL     1      -8.170  10.162  67.863  1.00  0.00    -0.109 OA 
BRANCH  26  27
HETATM   27  C   UNL     1      -7.732   9.921  69.118  1.00  0.00    -0.098 C  
HETATM   28  C   UNL     1      -8.146   8.540  69.519  1.00  0.00    -0.111 C  
HETATM   29  O   UNL     1      -7.132  10.707  69.832  1.00  0.00    -0.153 OA 
ENDBRANCH  26  27
ENDBRANCH  20  26
ENDBRANCH   6   9
ENDBRANCH   2   3
TORSDOF 7
ENDMDL
MODEL       62
REMARK 921   NORMALIZED FREE ENERGY PREDICTED BY IDOCK:   -4.32 KCAL/MOL
REMARK 922        TOTAL FREE ENERGY PREDICTED BY IDOCK:   -7.21 KCAL/MOL
REMARK 923 INTER-LIGAND FREE ENERGY PREDICTED BY IDOCK:   -6.55 KCAL/MOL
REMARK 924 INTRA-LIGAND FREE ENERGY PREDICTED BY IDOCK:   -0.65 KCAL/MOL
REMARK 927      BINDING AFFINITY PREDICTED BY RF-SCORE:    0.00 PKD
ROOT
HETATM    1  C   UNL     1      -7.596   5.266  65.815  1.00  0.00    -0.083 C  
HETATM    2  O   UNL     1      -7.995   5.506  67.165  1.00  0.00    -0.101 OA 
ENDROOT
BRANCH   2   3
HETATM    3  C   UNL     1      -8.515   6.744  67.430  1.00  0.00    -0.121 A  
HETATM    4  C   UNL     1      -9.773   7.178  67.048  1.00  0.00    -0.222 A  
HETATM    5  C   UNL     1     -10.187   8.480  67.344  1.00  0.00    -0.329 A  
HETATM    6  C   UNL     1      -9.373   9.403  68.032  1.00  0.00    -0.140 A  
HETATM    7  C   UNL     1      -7.700   7.618  68.153  1.00  0.00    -0.119 A  
HETATM    8  C   UNL     1      -8.120   8.929  68.455  1.00  0.00    -0.108 A  
BRANCH   6   9
HETATM    9  C   UNL     1      -9.840  10.844  68.367  1.00  0.00    -0.177 C  
HETATM   10  S   UNL     1     -11.652  11.038  68.066  1.00  0.00    -0.174 SA 
HETATM   11  C   UNL     1     -11.902  12.247  69.311  1.00  0.00    -0.306 A  
HETATM   12  C   UNL     1     -11.450  13.568  69.159  1.00  0.00    -0.295 A  
HETATM   13  C   UNL     1     -11.684  14.458  70.205  1.00  0.00    -0.361 A  
HETATM   14  N   UNL     1     -10.703  13.945  67.979  1.00  0.00    -0.242 N  
HETATM   15  C   UNL     1     -12.535  11.816  70.490  1.00  0.00    -0.317 A  
HETATM   16  C   UNL     1     -12.307  14.021  71.392  1.00  0.00    -0.410 A  
HETATM   17  C   UNL     1      -9.376  13.471  67.932  1.00  0.00    -0.215 C  
HETATM   18  O   UNL     1      -8.429  14.267  67.995  1.00  0.00    -0.147 OA 
HETATM   19  C   UNL     1     -12.726  12.700  71.538  1.00  0.00    -0.326 A  
HETATM   20  C   UNL     1      -9.098  11.968  67.598  1.00  0.00    -0.179 C  
BRANCH  14  21
HETATM   21  C   UNL     1     -10.924  15.337  67.485  1.00  0.00    -0.315 C  
BRANCH  21  22
HETATM   22  C   UNL     1     -10.697  15.466  65.946  1.00  0.00    -0.336 C  
BRANCH  22  23
HETATM   23  N   UNL     1      -9.968  16.667  65.458  1.00  0.00    -0.573 NA 
HETATM   24  C   UNL     1      -8.652  16.745  66.115  1.00  0.00    -0.264 C  
HETATM   25  C   UNL     1     -10.689  17.916  65.704  1.00  0.00    -0.052 C  
ENDBRANCH  22  23
ENDBRANCH  21  22
ENDBRANCH  14  21
BRANCH  20  26
HETATM   26  O   UNL     1      -9.374  11.758  66.199  1.00  0.00    -0.221 OA 
BRANCH  26  27
HETATM   27  C   UNL     1      -8.473  11.024  65.510  1.00  0.00    -0.069 C  
HETATM   28  C   UNL     1      -9.194  10.206  64.486  1.00  0.00    -0.305 C  
HETATM   29  O   UNL     1      -7.270  10.994  65.709  1.00  0.00    -0.045 OA 
ENDBRANCH  26  27
ENDBRANCH  20  26
ENDBRANCH   6   9
ENDBRANCH   2   3
TORSDOF 7
ENDMDL
MODEL       63
REMARK 921   NORMALIZED FREE ENERGY PREDICTED BY IDOCK:   -4.31 KCAL/MOL
REMARK 922        TOTAL FREE ENERGY PREDICTED BY IDOCK:   -7.19 KCAL/MOL
REMARK 923 INTER-LIGAND FREE ENERGY PREDICTED BY IDOCK:   -6.57 KCAL/MOL
REMARK 924 INTRA-LIGAND FREE ENERGY PREDICTED BY IDOCK:   -0.62 KCAL/MOL
REMARK 927      BINDING AFFINITY PREDICTED BY RF-SCORE:    0.00 PKD
ROOT
HETATM    1  C   UNL     1     -11.653  13.089  64.294  1.00  0.00    -0.385 C  
HETATM    2  O   UNL     1     -10.319  12.594  64.170  1.00  0.00    -0.373 OA 
ENDROOT
BRANCH   2   3
HETATM    3  C   UNL     1     -10.051  11.412  64.807  1.00  0.00    -0.277 A  
HETATM    4  C   UNL     1      -9.147  10.460  64.370  1.00  0.00    -0.267 A  
HETATM    5  C   UNL     1      -8.980   9.269  65.083  1.00  0.00    -0.257 A  
HETATM    6  C   UNL     1      -9.701   8.976  66.259  1.00  0.00    -0.345 A  
HETATM    7  C   UNL     1     -10.749  11.174  65.993  1.00  0.00    -0.272 A  
HETATM    8  C   UNL     1     -10.577   9.976  66.714  1.00  0.00    -0.229 A  
BRANCH   6   9
HETATM    9  C   UNL     1      -9.506   7.658  67.054  1.00  0.00    -0.163 C  
HETATM   10  S   UNL     1     -11.009   6.590  66.937  1.00  0.00    -0.218 SA 
HETATM   11  C   UNL     1     -10.145   5.069  67.068  1.00  0.00    -0.214 A  
HETATM   12  C   UNL     1      -9.588   4.638  68.283  1.00  0.00    -0.149 A  
HETATM   13  C   UNL     1      -8.911   3.421  68.291  1.00  0.00    -0.184 A  
HETATM   14  N   UNL     1      -9.665   5.484  69.453  1.00  0.00    -0.149 N  
HETATM   15  C   UNL     1      -9.996   4.325  65.885  1.00  0.00    -0.232 A  
HETATM   16  C   UNL     1      -8.751   2.682  67.100  1.00  0.00    -0.135 A  
HETATM   17  C   UNL     1      -8.808   6.604  69.443  1.00  0.00    -0.134 C  
HETATM   18  O   UNL     1      -7.871   6.676  70.249  1.00  0.00    -0.102 OA 
HETATM   19  C   UNL     1      -9.286   3.136  65.897  1.00  0.00    -0.104 A  
HETATM   20  C   UNL     1      -9.158   7.843  68.553  1.00  0.00    -0.132 C  
BRANCH  14  21
HETATM   21  C   UNL     1      -9.808   4.777  70.761  1.00  0.00    -0.210 C  
BRANCH  21  22
HETATM   22  C   UNL     1     -10.639   5.600  71.796  1.00  0.00    -0.238 C  
BRANCH  22  23
HETATM   23  N   UNL     1     -10.159   5.617  73.203  1.00  0.00    -0.175 NA 
HETATM   24  C   UNL     1     -10.856   4.573  73.974  1.00  0.00    -0.250 C  
HETATM   25  C   UNL     1     -10.366   6.905  73.866  1.00  0.00    -0.365 C  
ENDBRANCH  22  23
ENDBRANCH  21  22
ENDBRANCH  14  21
BRANCH  20  26
HETATM   26  O   UNL     1     -10.277   8.526  69.153  1.00  0.00    -0.202 OA 
BRANCH  26  27
HETATM   27  C   UNL     1     -10.000   9.327  70.205  1.00  0.00    -0.219 C  
HETATM   28  C   UNL     1     -11.193   9.373  71.107  1.00  0.00    -0.427 C  
HETATM   29  O   UNL     1      -8.965   9.948  70.381  1.00  0.00    -0.160 OA 
ENDBRANCH  26  27
ENDBRANCH  20  26
ENDBRANCH   6   9
ENDBRANCH   2   3
TORSDOF 7
ENDMDL
MODEL       64
REMARK 921   NORMALIZED FREE ENERGY PREDICTED BY IDOCK:   -4.23 KCAL/MOL
REMARK 922        TOTAL FREE ENERGY PREDICTED BY IDOCK:   -7.07 KCAL/MOL
REMARK 923 INTER-LIGAND FREE ENERGY PREDICTED BY IDOCK:   -6.40 KCAL/MOL
REMARK 924 INTRA-LIGAND FREE ENERGY PREDICTED BY IDOCK:   -0.67 KCAL/MOL
REMARK 927      BINDING AFFINITY PREDICTED BY RF-SCORE:    0.00 PKD
ROOT
HETATM    1  C   UNL     1     -12.342  15.232  71.159  1.00  0.00    -0.360 C  
HETATM    2  O   UNL     1     -12.573  14.482  69.966  1.00  0.00    -0.318 OA 
ENDROOT
BRANCH   2   3
HETATM    3  C   UNL     1     -12.110  13.194  69.961  1.00  0.00    -0.305 A  
HETATM    4  C   UNL     1     -11.181  12.685  69.071  1.00  0.00    -0.322 A  
HETATM    5  C   UNL     1     -10.808  11.339  69.137  1.00  0.00    -0.269 A  
HETATM    6  C   UNL     1     -11.338  10.445  70.091  1.00  0.00    -0.397 A  
HETATM    7  C   UNL     1     -12.623  12.348  70.947  1.00  0.00    -0.337 A  
HETATM    8  C   UNL     1     -12.242  10.992  71.017  1.00  0.00    -0.456 A  
BRANCH   6   9
HETATM    9  C   UNL     1     -10.915   8.955  70.168  1.00  0.00    -0.227 C  
HETATM   10  S   UNL     1      -9.489   8.733  71.321  1.00  0.00    -0.272 SA 
HETATM   11  C   UNL     1      -9.924   7.108  71.816  1.00  0.00    -0.175 A  
HETATM   12  C   UNL     1      -9.765   6.007  70.959  1.00  0.00    -0.177 A  
HETATM   13  C   UNL     1     -10.146   4.755  71.435  1.00  0.00    -0.259 A  
HETATM   14  N   UNL     1      -9.290   6.206  69.608  1.00  0.00    -0.145 N  
HETATM   15  C   UNL     1     -10.484   6.969  73.098  1.00  0.00    -0.335 A  
HETATM   16  C   UNL     1     -10.721   4.618  72.716  1.00  0.00    -0.273 A  
HETATM   17  C   UNL     1     -10.225   6.778  68.721  1.00  0.00    -0.175 C  
HETATM   18  O   UNL     1     -10.672   6.115  67.776  1.00  0.00    -0.244 OA 
HETATM   19  C   UNL     1     -10.896   5.725  73.544  1.00  0.00    -0.272 A  
HETATM   20  C   UNL     1     -10.545   8.308  68.809  1.00  0.00    -0.123 C  
BRANCH  14  21
HETATM   21  C   UNL     1      -8.435   5.116  69.050  1.00  0.00    -0.090 C  
BRANCH  21  22
HETATM   22  C   UNL     1      -7.146   5.664  68.360  1.00  0.00    -0.070 C  
BRANCH  22  23
HETATM   23  N   UNL     1      -6.633   4.922  67.177  1.00  0.00    -0.049 NA 
HETATM   24  C   UNL     1      -7.754   4.262  66.486  1.00  0.00    -0.094 C  
HETATM   25  C   UNL     1      -5.635   3.909  67.522  1.00  0.00    -0.021 C  
ENDBRANCH  22  23
ENDBRANCH  21  22
ENDBRANCH  14  21
BRANCH  20  26
HETATM   26  O   UNL     1      -9.406   9.036  68.305  1.00  0.00    -0.139 OA 
BRANCH  26  27
HETATM   27  C   UNL     1      -9.114   8.866  66.997  1.00  0.00    -0.135 C  
HETATM   28  C   UNL     1     -10.259   9.365  66.175  1.00  0.00    -0.264 C  
HETATM   29  O   UNL     1      -8.101   8.354  66.549  1.00  0.00    -0.098 OA 
ENDBRANCH  26  27
ENDBRANCH  20  26
ENDBRANCH   6   9
ENDBRANCH   2   3
TORSDOF 7
ENDMDL
MODEL       65
REMARK 921   NORMALIZED FREE ENERGY PREDICTED BY IDOCK:   -4.20 KCAL/MOL
REMARK 922        TOTAL FREE ENERGY PREDICTED BY IDOCK:   -7.04 KCAL/MOL
REMARK 923 INTER-LIGAND FREE ENERGY PREDICTED BY IDOCK:   -6.50 KCAL/MOL
REMARK 924 INTRA-LIGAND FREE ENERGY PREDICTED BY IDOCK:   -0.54 KCAL/MOL
REMARK 927      BINDING AFFINITY PREDICTED BY RF-SCORE:    0.00 PKD
ROOT
HETATM    1  C   UNL     1     -14.150  14.172  72.127  1.00  0.00    -0.549 C  
HETATM    2  O   UNL     1     -13.301  14.617  71.069  1.00  0.00    -0.374 OA 
ENDROOT
BRANCH   2   3
HETATM    3  C   UNL     1     -12.519  13.662  70.478  1.00  0.00    -0.324 A  
HETATM    4  C   UNL     1     -11.723  13.862  69.364  1.00  0.00    -0.367 A  
HETATM    5  C   UNL     1     -10.992  12.800  68.823  1.00  0.00    -0.289 A  
HETATM    6  C   UNL     1     -11.019  11.499  69.366  1.00  0.00    -0.233 A  
HETATM    7  C   UNL     1     -12.534  12.396  71.068  1.00  0.00    -0.353 A  
HETATM    8  C   UNL     1     -11.793  11.327  70.525  1.00  0.00    -0.421 A  
BRANCH   6   9
HETATM    9  C   UNL     1     -10.199  10.326  68.768  1.00  0.00    -0.192 C  
HETATM   10  S   UNL     1     -10.899   9.790  67.145  1.00  0.00    -0.036 SA 
HETATM   11  C   UNL     1      -9.370   9.265  66.466  1.00  0.00    -0.178 A  
HETATM   12  C   UNL     1      -8.735   8.089  66.899  1.00  0.00    -0.130 A  
HETATM   13  C   UNL     1      -7.518   7.756  66.309  1.00  0.00    -0.079 A  
HETATM   14  N   UNL     1      -9.310   7.311  67.973  1.00  0.00    -0.131 N  
HETATM   15  C   UNL     1      -8.788  10.104  65.501  1.00  0.00    -0.191 A  
HETATM   16  C   UNL     1      -6.928   8.606  65.351  1.00  0.00    -0.075 A  
HETATM   17  C   UNL     1      -9.176   7.873  69.260  1.00  0.00    -0.148 C  
HETATM   18  O   UNL     1      -8.463   7.319  70.108  1.00  0.00    -0.135 OA 
HETATM   19  C   UNL     1      -7.558   9.782  64.952  1.00  0.00    -0.128 A  
HETATM   20  C   UNL     1     -10.081   9.078  69.680  1.00  0.00    -0.197 C  
BRANCH  14  21
HETATM   21  C   UNL     1      -9.126   5.832  67.878  1.00  0.00    -0.109 C  
BRANCH  21  22
HETATM   22  C   UNL     1     -10.159   5.164  66.916  1.00  0.00    -0.226 C  
BRANCH  22  23
HETATM   23  N   UNL     1      -9.699   3.996  66.118  1.00  0.00    -0.197 NA 
HETATM   24  C   UNL     1      -8.227   3.948  66.121  1.00  0.00    -0.101 C  
HETATM   25  C   UNL     1     -10.163   4.029  64.731  1.00  0.00    -0.212 C  
ENDBRANCH  22  23
ENDBRANCH  21  22
ENDBRANCH  14  21
BRANCH  20  26
HETATM   26  O   UNL     1     -11.422   8.587  69.878  1.00  0.00    -0.035 OA 
BRANCH  26  27
HETATM   27  C   UNL     1     -11.597   7.702  70.884  1.00  0.00    -0.280 C  
HETATM   28  C   UNL     1     -11.390   8.403  72.189  1.00  0.00    -0.437 C  
HETATM   29  O   UNL     1     -11.845   6.514  70.759  1.00  0.00    -0.373 OA 
ENDBRANCH  26  27
ENDBRANCH  20  26
ENDBRANCH   6   9
ENDBRANCH   2   3
TORSDOF 7
ENDMDL
MODEL       66
REMARK 921   NORMALIZED FREE ENERGY PREDICTED BY IDOCK:   -4.20 KCAL/MOL
REMARK 922        TOTAL FREE ENERGY PREDICTED BY IDOCK:   -7.03 KCAL/MOL
REMARK 923 INTER-LIGAND FREE ENERGY PREDICTED BY IDOCK:   -6.03 KCAL/MOL
REMARK 924 INTRA-LIGAND FREE ENERGY PREDICTED BY IDOCK:   -1.00 KCAL/MOL
REMARK 927      BINDING AFFINITY PREDICTED BY RF-SCORE:    0.00 PKD
ROOT
HETATM    1  C   UNL     1      -8.739   7.226  65.903  1.00  0.00    -0.131 C  
HETATM    2  O   UNL     1      -9.831   8.095  66.205  1.00  0.00    -0.213 OA 
ENDROOT
BRANCH   2   3
HETATM    3  C   UNL     1      -9.504   9.365  66.596  1.00  0.00    -0.177 A  
HETATM    4  C   UNL     1     -10.132  10.074  67.605  1.00  0.00    -0.232 A  
HETATM    5  C   UNL     1      -9.737  11.384  67.894  1.00  0.00    -0.186 A  
HETATM    6  C   UNL     1      -8.701  12.041  67.198  1.00  0.00    -0.183 A  
HETATM    7  C   UNL     1      -8.445   9.970  65.916  1.00  0.00    -0.139 A  
HETATM    8  C   UNL     1      -8.043  11.288  66.212  1.00  0.00    -0.108 A  
BRANCH   6   9
HETATM    9  C   UNL     1      -8.259  13.490  67.529  1.00  0.00    -0.183 C  
HETATM   10  S   UNL     1      -8.698  13.934  69.267  1.00  0.00     0.675 SA 
HETATM   11  C   UNL     1      -7.358  15.042  69.502  1.00  0.00    -0.202 A  
HETATM   12  C   UNL     1      -7.328  16.306  68.889  1.00  0.00    -0.198 A  
HETATM   13  C   UNL     1      -6.219  17.114  69.125  1.00  0.00    -0.212 A  
HETATM   14  N   UNL     1      -8.390  16.697  67.989  1.00  0.00    -0.183 N  
HETATM   15  C   UNL     1      -6.293  14.583  70.296  1.00  0.00    -0.170 A  
HETATM   16  C   UNL     1      -5.145  16.647  69.911  1.00  0.00    -0.162 A  
HETATM   17  C   UNL     1      -8.369  16.069  66.726  1.00  0.00    -0.270 C  
HETATM   18  O   UNL     1      -8.138  16.733  65.707  1.00  0.00    -0.358 OA 
HETATM   19  C   UNL     1      -5.178  15.381  70.490  1.00  0.00    -0.138 A  
HETATM   20  C   UNL     1      -8.834  14.581  66.590  1.00  0.00    -0.184 C  
BRANCH  14  21
HETATM   21  C   UNL     1      -8.752  18.146  67.998  1.00  0.00    -0.269 C  
BRANCH  21  22
HETATM   22  C   UNL     1     -10.270  18.383  67.720  1.00  0.00    -0.385 C  
BRANCH  22  23
HETATM   23  N   UNL     1     -10.649  19.630  67.003  1.00  0.00    -0.473 NA 
HETATM   24  C   UNL     1     -10.710  19.366  65.555  1.00  0.00    -0.157 C  
HETATM   25  C   UNL     1      -9.719  20.734  67.238  1.00  0.00    -0.347 C  
ENDBRANCH  22  23
ENDBRANCH  21  22
ENDBRANCH  14  21
BRANCH  20  26
HETATM   26  O   UNL     1     -10.267  14.541  66.745  1.00  0.00    -0.259 OA 
BRANCH  26  27
HETATM   27  C   UNL     1     -10.971  14.025  65.713  1.00  0.00    -0.294 C  
HETATM   28  C   UNL     1     -12.428  14.079  66.045  1.00  0.00    -0.489 C  
HETATM   29  O   UNL     1     -10.502  13.553  64.691  1.00  0.00    -0.400 OA 
ENDBRANCH  26  27
ENDBRANCH  20  26
ENDBRANCH   6   9
ENDBRANCH   2   3
TORSDOF 7
ENDMDL
MODEL       67
REMARK 921   NORMALIZED FREE ENERGY PREDICTED BY IDOCK:   -4.20 KCAL/MOL
REMARK 922        TOTAL FREE ENERGY PREDICTED BY IDOCK:   -7.03 KCAL/MOL
REMARK 923 INTER-LIGAND FREE ENERGY PREDICTED BY IDOCK:   -5.65 KCAL/MOL
REMARK 924 INTRA-LIGAND FREE ENERGY PREDICTED BY IDOCK:   -1.38 KCAL/MOL
REMARK 927      BINDING AFFINITY PREDICTED BY RF-SCORE:    0.00 PKD
ROOT
HETATM    1  C   UNL     1     -14.352   8.848  72.114  1.00  0.00    -0.332 C  
HETATM    2  O   UNL     1     -13.015   8.762  72.608  1.00  0.00    -0.389 OA 
ENDROOT
BRANCH   2   3
HETATM    3  C   UNL     1     -12.032   9.227  71.777  1.00  0.00    -0.385 A  
HETATM    4  C   UNL     1     -12.212  10.168  70.778  1.00  0.00    -0.434 A  
HETATM    5  C   UNL     1     -11.139  10.543  69.964  1.00  0.00    -0.376 A  
HETATM    6  C   UNL     1      -9.845  10.003  70.109  1.00  0.00    -0.205 A  
HETATM    7  C   UNL     1     -10.752   8.705  71.978  1.00  0.00    -0.427 A  
HETATM    8  C   UNL     1      -9.670   9.087  71.160  1.00  0.00    -0.369 A  
BRANCH   6   9
HETATM    9  C   UNL     1      -8.655  10.428  69.210  1.00  0.00    -0.150 C  
HETATM   10  S   UNL     1      -9.171  11.726  68.001  1.00  0.00    -0.185 SA 
HETATM   11  C   UNL     1      -7.604  12.510  67.914  1.00  0.00    -0.133 A  
HETATM   12  C   UNL     1      -6.519  11.920  67.245  1.00  0.00    -0.141 A  
HETATM   13  C   UNL     1      -5.310  12.610  67.236  1.00  0.00     0.007 A  
HETATM   14  N   UNL     1      -6.661  10.605  66.659  1.00  0.00    -0.098 N  
HETATM   15  C   UNL     1      -7.475  13.736  68.589  1.00  0.00    -0.116 A  
HETATM   16  C   UNL     1      -5.178  13.834  67.925  1.00  0.00    -0.074 A  
HETATM   17  C   UNL     1      -6.691   9.537  67.580  1.00  0.00    -0.067 C  
HETATM   18  O   UNL     1      -5.765   8.716  67.608  1.00  0.00    -0.038 OA 
HETATM   19  C   UNL     1      -6.256  14.393  68.607  1.00  0.00    -0.087 A  
HETATM   20  C   UNL     1      -7.983   9.274  68.423  1.00  0.00    -0.102 C  
BRANCH  14  21
HETATM   21  C   UNL     1      -5.895  10.367  65.399  1.00  0.00    -0.127 C  
BRANCH  21  22
HETATM   22  C   UNL     1      -6.814   9.920  64.219  1.00  0.00    -0.125 C  
BRANCH  22  23
HETATM   23  N   UNL     1      -8.087   9.233  64.562  1.00  0.00    -0.130 NA 
HETATM   24  C   UNL     1      -8.120   7.908  63.921  1.00  0.00    -0.082 C  
HETATM   25  C   UNL     1      -9.274   9.982  64.150  1.00  0.00    -0.271 C  
ENDBRANCH  22  23
ENDBRANCH  21  22
ENDBRANCH  14  21
BRANCH  20  26
HETATM   26  O   UNL     1      -8.991   8.734  67.546  1.00  0.00    -0.133 OA 
BRANCH  26  27
HETATM   27  C   UNL     1      -9.300   7.429  67.713  1.00  0.00    -0.136 C  
HETATM   28  C   UNL     1     -10.680   7.186  67.190  1.00  0.00    -0.422 C  
HETATM   29  O   UNL     1      -8.592   6.587  68.239  1.00  0.00    -0.116 OA 
ENDBRANCH  26  27
ENDBRANCH  20  26
ENDBRANCH   6   9
ENDBRANCH   2   3
TORSDOF 7
ENDMDL
MODEL       68
REMARK 921   NORMALIZED FREE ENERGY PREDICTED BY IDOCK:   -4.17 KCAL/MOL
REMARK 922        TOTAL FREE ENERGY PREDICTED BY IDOCK:   -6.99 KCAL/MOL
REMARK 923 INTER-LIGAND FREE ENERGY PREDICTED BY IDOCK:   -5.79 KCAL/MOL
REMARK 924 INTRA-LIGAND FREE ENERGY PREDICTED BY IDOCK:   -1.20 KCAL/MOL
REMARK 927      BINDING AFFINITY PREDICTED BY RF-SCORE:    0.00 PKD
ROOT
HETATM    1  C   UNL     1      -5.478   2.595  64.139  1.00  0.00    -0.009 C  
HETATM    2  O   UNL     1      -6.727   3.114  63.683  1.00  0.00    -0.033 OA 
ENDROOT
BRANCH   2   3
HETATM    3  C   UNL     1      -7.300   4.084  64.462  1.00  0.00    -0.071 A  
HETATM    4  C   UNL     1      -8.629   4.114  64.846  1.00  0.00    -0.118 A  
HETATM    5  C   UNL     1      -9.115   5.176  65.614  1.00  0.00    -0.161 A  
HETATM    6  C   UNL     1      -8.302   6.249  66.035  1.00  0.00    -0.138 A  
HETATM    7  C   UNL     1      -6.456   5.107  64.899  1.00  0.00    -0.035 A  
HETATM    8  C   UNL     1      -6.945   6.175  65.678  1.00  0.00    -0.057 A  
BRANCH   6   9
HETATM    9  C   UNL     1      -8.842   7.421  66.896  1.00  0.00    -0.132 C  
HETATM   10  S   UNL     1     -10.658   7.245  67.187  1.00  0.00    -0.339 SA 
HETATM   11  C   UNL     1     -10.656   8.039  68.751  1.00  0.00    -0.118 A  
HETATM   12  C   UNL     1     -10.486   9.428  68.874  1.00  0.00    -0.216 A  
HETATM   13  C   UNL     1     -10.489   9.970  70.156  1.00  0.00    -0.338 A  
HETATM   14  N   UNL     1     -10.243  10.232  67.697  1.00  0.00    -0.193 N  
HETATM   15  C   UNL     1     -10.786   7.210  69.878  1.00  0.00    -0.276 A  
HETATM   16  C   UNL     1     -10.606   9.135  71.288  1.00  0.00    -0.399 A  
HETATM   17  C   UNL     1      -8.953  10.110  67.142  1.00  0.00    -0.135 C  
HETATM   18  O   UNL     1      -8.172  11.071  67.168  1.00  0.00    -0.126 OA 
HETATM   19  C   UNL     1     -10.747   7.756  71.150  1.00  0.00    -0.245 A  
HETATM   20  C   UNL     1      -8.579   8.834  66.317  1.00  0.00    -0.131 C  
BRANCH  14  21
HETATM   21  C   UNL     1     -10.824  11.608  67.717  1.00  0.00    -0.217 C  
BRANCH  21  22
HETATM   22  C   UNL     1     -11.498  11.990  66.362  1.00  0.00    -0.353 C  
BRANCH  22  23
HETATM   23  N   UNL     1     -11.385  13.404  65.913  1.00  0.00    -0.305 NA 
HETATM   24  C   UNL     1     -11.978  14.291  66.928  1.00  0.00    -0.438 C  
HETATM   25  C   UNL     1     -12.042  13.655  64.630  1.00  0.00    -0.412 C  
ENDBRANCH  22  23
ENDBRANCH  21  22
ENDBRANCH  14  21
BRANCH  20  26
HETATM   26  O   UNL     1      -9.272   8.895  65.054  1.00  0.00    -0.130 OA 
BRANCH  26  27
HETATM   27  C   UNL     1      -8.604   9.464  64.026  1.00  0.00    -0.205 C  
HETATM   28  C   UNL     1      -9.500  10.455  63.354  1.00  0.00    -0.356 C  
HETATM   29  O   UNL     1      -7.469   9.194  63.672  1.00  0.00    -0.102 OA 
ENDBRANCH  26  27
ENDBRANCH  20  26
ENDBRANCH   6   9
ENDBRANCH   2   3
TORSDOF 7
ENDMDL
MODEL       69
REMARK 921   NORMALIZED FREE ENERGY PREDICTED BY IDOCK:   -4.15 KCAL/MOL
REMARK 922        TOTAL FREE ENERGY PREDICTED BY IDOCK:   -6.96 KCAL/MOL
REMARK 923 INTER-LIGAND FREE ENERGY PREDICTED BY IDOCK:   -6.19 KCAL/MOL
REMARK 924 INTRA-LIGAND FREE ENERGY PREDICTED BY IDOCK:   -0.77 KCAL/MOL
REMARK 927      BINDING AFFINITY PREDICTED BY RF-SCORE:    0.00 PKD
ROOT
HETATM    1  C   UNL     1     -10.375  20.463  65.237  1.00  0.00     0.410 C  
HETATM    2  O   UNL     1      -9.727  19.998  66.421  1.00  0.00    -0.400 OA 
ENDROOT
BRANCH   2   3
HETATM    3  C   UNL     1     -10.106  18.764  66.874  1.00  0.00    -0.358 A  
HETATM    4  C   UNL     1     -10.558  17.727  66.076  1.00  0.00    -0.229 A  
HETATM    5  C   UNL     1     -10.955  16.517  66.654  1.00  0.00     0.060 A  
HETATM    6  C   UNL     1     -10.916  16.285  68.044  1.00  0.00    -0.328 A  
HETATM    7  C   UNL     1     -10.012  18.553  68.251  1.00  0.00    -0.409 A  
HETATM    8  C   UNL     1     -10.407  17.331  68.833  1.00  0.00    -0.352 A  
BRANCH   6   9
HETATM    9  C   UNL     1     -11.347  14.938  68.681  1.00  0.00    -0.292 C  
HETATM   10  S   UNL     1     -10.446  14.638  70.265  1.00  0.00     0.441 SA 
HETATM   11  C   UNL     1     -11.733  13.718  71.020  1.00  0.00     0.209 A  
HETATM   12  C   UNL     1     -12.038  12.407  70.619  1.00  0.00    -0.225 A  
HETATM   13  C   UNL     1     -13.084  11.757  71.269  1.00  0.00    -0.237 A  
HETATM   14  N   UNL     1     -11.324  11.806  69.515  1.00  0.00    -0.263 N  
HETATM   15  C   UNL     1     -12.477  14.375  72.016  1.00  0.00    -0.368 A  
HETATM   16  C   UNL     1     -13.838  12.422  72.258  1.00  0.00    -0.126 A  
HETATM   17  C   UNL     1     -11.672  12.292  68.238  1.00  0.00    -0.336 C  
HETATM   18  O   UNL     1     -12.244  11.552  67.427  1.00  0.00    -0.401 OA 
HETATM   19  C   UNL     1     -13.540  13.732  72.626  1.00  0.00    -0.617 A  
HETATM   20  C   UNL     1     -11.159  13.695  67.774  1.00  0.00    -0.272 C  
BRANCH  14  21
HETATM   21  C   UNL     1     -11.085  10.334  69.617  1.00  0.00    -0.274 C  
BRANCH  21  22
HETATM   22  C   UNL     1     -10.340   9.942  70.932  1.00  0.00    -0.049 C  
BRANCH  22  23
HETATM   23  N   UNL     1     -10.573   8.575  71.471  1.00  0.00    -0.242 NA 
HETATM   24  C   UNL     1     -11.931   8.494  72.034  1.00  0.00    -0.361 C  
HETATM   25  C   UNL     1      -9.613   8.194  72.507  1.00  0.00    -0.277 C  
ENDBRANCH  22  23
ENDBRANCH  21  22
ENDBRANCH  14  21
BRANCH  20  26
HETATM   26  O   UNL     1      -9.746  13.592  67.506  1.00  0.00    -0.218 OA 
BRANCH  26  27
HETATM   27  C   UNL     1      -9.386  12.832  66.449  1.00  0.00    -0.194 C  
HETATM   28  C   UNL     1     -10.168  13.266  65.250  1.00  0.00    -0.303 C  
HETATM   29  O   UNL     1      -8.585  11.912  66.467  1.00  0.00    -0.183 OA 
ENDBRANCH  26  27
ENDBRANCH  20  26
ENDBRANCH   6   9
ENDBRANCH   2   3
TORSDOF 7
ENDMDL
MODEL       70
REMARK 921   NORMALIZED FREE ENERGY PREDICTED BY IDOCK:   -4.14 KCAL/MOL
REMARK 922        TOTAL FREE ENERGY PREDICTED BY IDOCK:   -6.96 KCAL/MOL
REMARK 923 INTER-LIGAND FREE ENERGY PREDICTED BY IDOCK:   -5.67 KCAL/MOL
REMARK 924 INTRA-LIGAND FREE ENERGY PREDICTED BY IDOCK:   -1.29 KCAL/MOL
REMARK 927      BINDING AFFINITY PREDICTED BY RF-SCORE:    0.00 PKD
ROOT
HETATM    1  C   UNL     1     -11.664  16.077  71.645  1.00  0.00    -0.506 C  
HETATM    2  O   UNL     1     -12.391  15.522  70.548  1.00  0.00    -0.375 OA 
ENDROOT
BRANCH   2   3
HETATM    3  C   UNL     1     -11.686  14.703  69.707  1.00  0.00    -0.313 A  
HETATM    4  C   UNL     1     -12.021  13.396  69.403  1.00  0.00    -0.369 A  
HETATM    5  C   UNL     1     -11.205  12.639  68.557  1.00  0.00    -0.315 A  
HETATM    6  C   UNL     1     -10.025  13.150  67.977  1.00  0.00    -0.233 A  
HETATM    7  C   UNL     1     -10.548  15.255  69.114  1.00  0.00    -0.250 A  
HETATM    8  C   UNL     1      -9.728  14.494  68.257  1.00  0.00    -0.218 A  
BRANCH   6   9
HETATM    9  C   UNL     1      -9.127  12.311  67.031  1.00  0.00    -0.201 C  
HETATM   10  S   UNL     1      -9.851  10.636  66.746  1.00  0.00    -0.205 SA 
HETATM   11  C   UNL     1      -9.200  10.443  65.128  1.00  0.00    -0.208 A  
HETATM   12  C   UNL     1      -7.835  10.200  64.905  1.00  0.00    -0.147 A  
HETATM   13  C   UNL     1      -7.407  10.070  63.587  1.00  0.00    -0.134 A  
HETATM   14  N   UNL     1      -6.917  10.164  66.022  1.00  0.00    -0.109 N  
HETATM   15  C   UNL     1     -10.105  10.592  64.063  1.00  0.00    -0.378 A  
HETATM   16  C   UNL     1      -8.313  10.234  62.518  1.00  0.00    -0.185 A  
HETATM   17  C   UNL     1      -6.613  11.419  66.590  1.00  0.00    -0.114 C  
HETATM   18  O   UNL     1      -5.469  11.882  66.498  1.00  0.00    -0.303 OA 
HETATM   19  C   UNL     1      -9.660  10.501  62.755  1.00  0.00    -0.323 A  
HETATM   20  C   UNL     1      -7.662  12.131  67.507  1.00  0.00    -0.159 C  
BRANCH  14  21
HETATM   21  C   UNL     1      -5.778   9.204  65.899  1.00  0.00    -0.050 C  
BRANCH  21  22
HETATM   22  C   UNL     1      -6.230   7.720  66.070  1.00  0.00    -0.042 C  
BRANCH  22  23
HETATM   23  N   UNL     1      -6.389   7.206  67.457  1.00  0.00    -0.045 NA 
HETATM   24  C   UNL     1      -7.759   7.472  67.927  1.00  0.00    -0.116 C  
HETATM   25  C   UNL     1      -5.445   7.804  68.402  1.00  0.00    -0.028 C  
ENDBRANCH  22  23
ENDBRANCH  21  22
ENDBRANCH  14  21
BRANCH  20  26
HETATM   26  O   UNL     1      -7.724  11.418  68.759  1.00  0.00    -0.132 OA 
BRANCH  26  27
HETATM   27  C   UNL     1      -6.704  11.625  69.621  1.00  0.00    -0.059 C  
HETATM   28  C   UNL     1      -6.419  13.092  69.692  1.00  0.00    -0.047 C  
HETATM   29  O   UNL     1      -6.083  10.762  70.219  1.00  0.00    -0.105 OA 
ENDBRANCH  26  27
ENDBRANCH  20  26
ENDBRANCH   6   9
ENDBRANCH   2   3
TORSDOF 7
ENDMDL
MODEL       71
REMARK 921   NORMALIZED FREE ENERGY PREDICTED BY IDOCK:   -4.13 KCAL/MOL
REMARK 922        TOTAL FREE ENERGY PREDICTED BY IDOCK:   -6.94 KCAL/MOL
REMARK 923 INTER-LIGAND FREE ENERGY PREDICTED BY IDOCK:   -6.20 KCAL/MOL
REMARK 924 INTRA-LIGAND FREE ENERGY PREDICTED BY IDOCK:   -0.74 KCAL/MOL
REMARK 927      BINDING AFFINITY PREDICTED BY RF-SCORE:    0.00 PKD
ROOT
HETATM    1  C   UNL     1     -11.624  14.117  66.413  1.00  0.00    -0.369 C  
HETATM    2  O   UNL     1     -11.439  13.071  65.460  1.00  0.00    -0.305 OA 
ENDROOT
BRANCH   2   3
HETATM    3  C   UNL     1     -11.067  11.853  65.963  1.00  0.00    -0.322 A  
HETATM    4  C   UNL     1     -11.408  11.370  67.214  1.00  0.00    -0.347 A  
HETATM    5  C   UNL     1     -10.939  10.123  67.638  1.00  0.00    -0.331 A  
HETATM    6  C   UNL     1     -10.117   9.304  66.838  1.00  0.00    -0.324 A  
HETATM    7  C   UNL     1     -10.291  11.048  65.126  1.00  0.00    -0.346 A  
HETATM    8  C   UNL     1      -9.823   9.788  65.552  1.00  0.00    -0.378 A  
BRANCH   6   9
HETATM    9  C   UNL     1      -9.608   7.916  67.307  1.00  0.00    -0.159 C  
HETATM   10  S   UNL     1     -11.011   6.735  67.524  1.00  0.00    -0.276 SA 
HETATM   11  C   UNL     1     -10.088   5.299  67.124  1.00  0.00    -0.203 A  
HETATM   12  C   UNL     1      -9.134   4.765  68.006  1.00  0.00    -0.117 A  
HETATM   13  C   UNL     1      -8.441   3.627  67.600  1.00  0.00    -0.105 A  
HETATM   14  N   UNL     1      -8.848   5.437  69.254  1.00  0.00    -0.101 N  
HETATM   15  C   UNL     1     -10.316   4.736  65.856  1.00  0.00    -0.303 A  
HETATM   16  C   UNL     1      -8.661   3.071  66.322  1.00  0.00    -0.121 A  
HETATM   17  C   UNL     1      -8.096   6.624  69.138  1.00  0.00    -0.116 C  
HETATM   18  O   UNL     1      -6.945   6.677  69.593  1.00  0.00    -0.062 OA 
HETATM   19  C   UNL     1      -9.592   3.629  65.448  1.00  0.00    -0.156 A  
HETATM   20  C   UNL     1      -8.781   7.931  68.619  1.00  0.00    -0.128 C  
BRANCH  14  21
HETATM   21  C   UNL     1      -8.508   4.551  70.408  1.00  0.00    -0.078 C  
BRANCH  21  22
HETATM   22  C   UNL     1      -9.778   3.965  71.103  1.00  0.00    -0.178 C  
BRANCH  22  23
HETATM   23  N   UNL     1      -9.890   2.485  71.191  1.00  0.00    -0.101 NA 
HETATM   24  C   UNL     1     -10.268   2.100  72.561  1.00  0.00    -0.156 C  
HETATM   25  C   UNL     1      -8.651   1.792  70.834  1.00  0.00    -0.051 C  
ENDBRANCH  22  23
ENDBRANCH  21  22
ENDBRANCH  14  21
BRANCH  20  26
HETATM   26  O   UNL     1      -9.660   8.420  69.652  1.00  0.00    -0.162 OA 
BRANCH  26  27
HETATM   27  C   UNL     1      -9.071   9.023  70.708  1.00  0.00    -0.245 C  
HETATM   28  C   UNL     1      -9.872   8.737  71.939  1.00  0.00    -0.395 C  
HETATM   29  O   UNL     1      -8.073   9.722  70.670  1.00  0.00    -0.264 OA 
ENDBRANCH  26  27
ENDBRANCH  20  26
ENDBRANCH   6   9
ENDBRANCH   2   3
TORSDOF 7
ENDMDL
MODEL       72
REMARK 921   NORMALIZED FREE ENERGY PREDICTED BY IDOCK:   -4.12 KCAL/MOL
REMARK 922        TOTAL FREE ENERGY PREDICTED BY IDOCK:   -6.91 KCAL/MOL
REMARK 923 INTER-LIGAND FREE ENERGY PREDICTED BY IDOCK:   -5.46 KCAL/MOL
REMARK 924 INTRA-LIGAND FREE ENERGY PREDICTED BY IDOCK:   -1.46 KCAL/MOL
REMARK 927      BINDING AFFINITY PREDICTED BY RF-SCORE:    0.00 PKD
ROOT
HETATM    1  C   UNL     1     -11.716  14.699  66.415  1.00  0.00    -0.322 C  
HETATM    2  O   UNL     1     -11.570  14.159  67.728  1.00  0.00    -0.308 OA 
ENDROOT
BRANCH   2   3
HETATM    3  C   UNL     1     -10.919  12.958  67.819  1.00  0.00    -0.243 A  
HETATM    4  C   UNL     1      -9.596  12.796  68.192  1.00  0.00    -0.223 A  
HETATM    5  C   UNL     1      -9.023  11.521  68.215  1.00  0.00    -0.177 A  
HETATM    6  C   UNL     1      -9.740  10.356  67.875  1.00  0.00    -0.168 A  
HETATM    7  C   UNL     1     -11.671  11.820  67.518  1.00  0.00    -0.312 A  
HETATM    8  C   UNL     1     -11.095  10.534  67.548  1.00  0.00    -0.358 A  
BRANCH   6   9
HETATM    9  C   UNL     1      -9.105   8.941  67.911  1.00  0.00    -0.139 C  
HETATM   10  S   UNL     1     -10.127   7.733  66.959  1.00  0.00    -0.298 SA 
HETATM   11  C   UNL     1      -8.782   6.715  66.477  1.00  0.00    -0.135 A  
HETATM   12  C   UNL     1      -8.130   5.871  67.391  1.00  0.00    -0.102 A  
HETATM   13  C   UNL     1      -7.065   5.107  66.921  1.00  0.00    -0.073 A  
HETATM   14  N   UNL     1      -8.524   5.873  68.782  1.00  0.00    -0.111 N  
HETATM   15  C   UNL     1      -8.358   6.823  65.142  1.00  0.00    -0.084 A  
HETATM   16  C   UNL     1      -6.632   5.225  65.584  1.00  0.00    -0.044 A  
HETATM   17  C   UNL     1      -8.119   7.005  69.520  1.00  0.00    -0.130 C  
HETATM   18  O   UNL     1      -7.284   6.890  70.426  1.00  0.00    -0.072 OA 
HETATM   19  C   UNL     1      -7.272   6.087  64.697  1.00  0.00    -0.063 A  
HETATM   20  C   UNL     1      -8.871   8.364  69.331  1.00  0.00    -0.142 C  
BRANCH  14  21
HETATM   21  C   UNL     1      -8.429   4.559  69.488  1.00  0.00    -0.076 C  
BRANCH  21  22
HETATM   22  C   UNL     1      -9.783   4.135  70.141  1.00  0.00    -0.208 C  
BRANCH  22  23
HETATM   23  N   UNL     1      -9.852   4.118  71.626  1.00  0.00    -0.179 NA 
HETATM   24  C   UNL     1     -10.219   5.457  72.117  1.00  0.00    -0.203 C  
HETATM   25  C   UNL     1      -8.594   3.717  72.256  1.00  0.00    -0.085 C  
ENDBRANCH  22  23
ENDBRANCH  21  22
ENDBRANCH  14  21
BRANCH  20  26
HETATM   26  O   UNL     1     -10.170   8.250  69.946  1.00  0.00    -0.193 OA 
BRANCH  26  27
HETATM   27  C   UNL     1     -10.344   8.908  71.113  1.00  0.00    -0.268 C  
HETATM   28  C   UNL     1     -11.748   9.420  71.177  1.00  0.00    -0.418 C  
HETATM   29  O   UNL     1      -9.492   9.094  71.966  1.00  0.00    -0.323 OA 
ENDBRANCH  26  27
ENDBRANCH  20  26
ENDBRANCH   6   9
ENDBRANCH   2   3
TORSDOF 7
ENDMDL
MODEL       73
REMARK 921   NORMALIZED FREE ENERGY PREDICTED BY IDOCK:   -4.11 KCAL/MOL
REMARK 922        TOTAL FREE ENERGY PREDICTED BY IDOCK:   -6.91 KCAL/MOL
REMARK 923 INTER-LIGAND FREE ENERGY PREDICTED BY IDOCK:   -5.51 KCAL/MOL
REMARK 924 INTRA-LIGAND FREE ENERGY PREDICTED BY IDOCK:   -1.40 KCAL/MOL
REMARK 927      BINDING AFFINITY PREDICTED BY RF-SCORE:    0.00 PKD
ROOT
HETATM    1  C   UNL     1      -7.264  16.171  68.583  1.00  0.00    -0.160 C  
HETATM    2  O   UNL     1      -7.149  15.145  67.597  1.00  0.00    -0.152 OA 
ENDROOT
BRANCH   2   3
HETATM    3  C   UNL     1      -7.645  13.916  67.940  1.00  0.00    -0.156 A  
HETATM    4  C   UNL     1      -6.918  12.905  68.544  1.00  0.00    -0.098 A  
HETATM    5  C   UNL     1      -7.520  11.673  68.817  1.00  0.00    -0.114 A  
HETATM    6  C   UNL     1      -8.867  11.396  68.507  1.00  0.00    -0.151 A  
HETATM    7  C   UNL     1      -8.994  13.691  67.660  1.00  0.00    -0.202 A  
HETATM    8  C   UNL     1      -9.602  12.451  67.940  1.00  0.00    -0.205 A  
BRANCH   6   9
HETATM    9  C   UNL     1      -9.535  10.032  68.820  1.00  0.00    -0.162 C  
HETATM   10  S   UNL     1      -8.706   9.204  70.248  1.00  0.00    -0.220 SA 
HETATM   11  C   UNL     1     -10.140   8.367  70.815  1.00  0.00    -0.193 A  
HETATM   12  C   UNL     1     -10.674   7.267  70.125  1.00  0.00    -0.244 A  
HETATM   13  C   UNL     1     -11.821   6.672  70.643  1.00  0.00    -0.443 A  
HETATM   14  N   UNL     1     -10.077   6.836  68.881  1.00  0.00    -0.158 N  
HETATM   15  C   UNL     1     -10.755   8.883  71.968  1.00  0.00    -0.389 A  
HETATM   16  C   UNL     1     -12.446   7.199  71.793  1.00  0.00    -0.385 A  
HETATM   17  C   UNL     1     -10.329   7.670  67.772  1.00  0.00    -0.219 C  
HETATM   18  O   UNL     1     -11.023   7.261  66.832  1.00  0.00    -0.343 OA 
HETATM   19  C   UNL     1     -11.918   8.307  72.451  1.00  0.00    -0.447 A  
HETATM   20  C   UNL     1      -9.571   9.032  67.636  1.00  0.00    -0.150 C  
BRANCH  14  21
HETATM   21  C   UNL     1     -10.107   5.365  68.618  1.00  0.00    -0.179 C  
BRANCH  21  22
HETATM   22  C   UNL     1      -8.798   4.651  69.081  1.00  0.00    -0.093 C  
BRANCH  22  23
HETATM   23  N   UNL     1      -7.674   5.510  69.541  1.00  0.00    -0.081 NA 
HETATM   24  C   UNL     1      -6.595   5.487  68.539  1.00  0.00    -0.052 C  
HETATM   25  C   UNL     1      -7.123   5.093  70.832  1.00  0.00    -0.059 C  
ENDBRANCH  22  23
ENDBRANCH  21  22
ENDBRANCH  14  21
BRANCH  20  26
HETATM   26  O   UNL     1      -8.199   8.752  67.293  1.00  0.00    -0.104 OA 
BRANCH  26  27
HETATM   27  C   UNL     1      -7.913   8.665  65.976  1.00  0.00    -0.107 C  
HETATM   28  C   UNL     1      -8.782   9.623  65.225  1.00  0.00    -0.186 C  
HETATM   29  O   UNL     1      -7.106   7.904  65.466  1.00  0.00    -0.058 OA 
ENDBRANCH  26  27
ENDBRANCH  20  26
ENDBRANCH   6   9
ENDBRANCH   2   3
TORSDOF 7
ENDMDL
MODEL       74
REMARK 921   NORMALIZED FREE ENERGY PREDICTED BY IDOCK:   -4.09 KCAL/MOL
REMARK 922        TOTAL FREE ENERGY PREDICTED BY IDOCK:   -6.87 KCAL/MOL
REMARK 923 INTER-LIGAND FREE ENERGY PREDICTED BY IDOCK:   -6.01 KCAL/MOL
REMARK 924 INTRA-LIGAND FREE ENERGY PREDICTED BY IDOCK:   -0.86 KCAL/MOL
REMARK 927      BINDING AFFINITY PREDICTED BY RF-SCORE:    0.00 PKD
ROOT
HETATM    1  C   UNL     1     -12.883  12.770  71.574  1.00  0.00    -0.270 C  
HETATM    2  O   UNL     1     -13.437  11.520  71.985  1.00  0.00    -0.405 OA 
ENDROOT
BRANCH   2   3
HETATM    3  C   UNL     1     -12.741  10.400  71.619  1.00  0.00    -0.455 A  
HETATM    4  C   UNL     1     -11.564  10.397  70.890  1.00  0.00    -0.428 A  
HETATM    5  C   UNL     1     -10.957   9.186  70.541  1.00  0.00    -0.307 A  
HETATM    6  C   UNL     1     -11.490   7.932  70.904  1.00  0.00    -0.294 A  
HETATM    7  C   UNL     1     -13.272   9.177  72.033  1.00  0.00    -0.505 A  
HETATM    8  C   UNL     1     -12.657   7.957  71.686  1.00  0.00    -0.344 A  
BRANCH   6   9
HETATM    9  C   UNL     1     -10.809   6.592  70.523  1.00  0.00    -0.271 C  
HETATM   10  S   UNL     1      -9.242   6.354  71.473  1.00  0.00    -0.143 SA 
HETATM   11  C   UNL     1      -9.329   4.603  71.506  1.00  0.00    -0.148 A  
HETATM   12  C   UNL     1      -9.082   3.829  70.361  1.00  0.00    -0.125 A  
HETATM   13  C   UNL     1      -9.183   2.445  70.480  1.00  0.00    -0.194 A  
HETATM   14  N   UNL     1      -8.808   4.476  69.098  1.00  0.00    -0.087 N  
HETATM   15  C   UNL     1      -9.705   4.014  72.726  1.00  0.00    -0.191 A  
HETATM   16  C   UNL     1      -9.574   1.856  71.701  1.00  0.00    -0.200 A  
HETATM   17  C   UNL     1      -9.924   5.069  68.472  1.00  0.00    -0.139 C  
HETATM   18  O   UNL     1     -10.355   4.611  67.406  1.00  0.00    -0.096 OA 
HETATM   19  C   UNL     1      -9.841   2.639  72.821  1.00  0.00    -0.193 A  
HETATM   20  C   UNL     1     -10.491   6.423  69.015  1.00  0.00    -0.224 C  
BRANCH  14  21
HETATM   21  C   UNL     1      -7.847   3.770  68.198  1.00  0.00    -0.072 C  
BRANCH  21  22
HETATM   22  C   UNL     1      -6.557   4.608  67.929  1.00  0.00    -0.046 C  
BRANCH  22  23
HETATM   23  N   UNL     1      -6.732   6.043  67.578  1.00  0.00    -0.056 NA 
HETATM   24  C   UNL     1      -6.339   6.258  66.175  1.00  0.00    -0.039 C  
HETATM   25  C   UNL     1      -5.948   6.941  68.427  1.00  0.00    -0.025 C  
ENDBRANCH  22  23
ENDBRANCH  21  22
ENDBRANCH  14  21
BRANCH  20  26
HETATM   26  O   UNL     1      -9.562   7.471  68.672  1.00  0.00    -0.149 OA 
BRANCH  26  27
HETATM   27  C   UNL     1      -9.812   8.148  67.530  1.00  0.00    -0.177 C  
HETATM   28  C   UNL     1      -8.794   9.233  67.376  1.00  0.00    -0.124 C  
HETATM   29  O   UNL     1     -10.738   7.942  66.762  1.00  0.00    -0.304 OA 
ENDBRANCH  26  27
ENDBRANCH  20  26
ENDBRANCH   6   9
ENDBRANCH   2   3
TORSDOF 7
ENDMDL
MODEL       75
REMARK 921   NORMALIZED FREE ENERGY PREDICTED BY IDOCK:   -3.98 KCAL/MOL
REMARK 922        TOTAL FREE ENERGY PREDICTED BY IDOCK:   -6.73 KCAL/MOL
REMARK 923 INTER-LIGAND FREE ENERGY PREDICTED BY IDOCK:   -6.89 KCAL/MOL
REMARK 924 INTRA-LIGAND FREE ENERGY PREDICTED BY IDOCK:    0.16 KCAL/MOL
REMARK 927      BINDING AFFINITY PREDICTED BY RF-SCORE:    0.00 PKD
ROOT
HETATM    1  C   UNL     1      -9.605  20.832  67.206  1.00  0.00    -0.354 C  
HETATM    2  O   UNL     1      -9.194  20.126  66.036  1.00  0.00    -0.336 OA 
ENDROOT
BRANCH   2   3
HETATM    3  C   UNL     1      -9.282  18.761  66.090  1.00  0.00    -0.145 A  
HETATM    4  C   UNL     1     -10.459  18.035  66.031  1.00  0.00    -0.317 A  
HETATM    5  C   UNL     1     -10.431  16.641  66.133  1.00  0.00    -0.291 A  
HETATM    6  C   UNL     1      -9.236  15.911  66.295  1.00  0.00    -0.372 A  
HETATM    7  C   UNL     1      -8.076  18.066  66.205  1.00  0.00    -0.259 A  
HETATM    8  C   UNL     1      -8.048  16.660  66.303  1.00  0.00    -0.361 A  
BRANCH   6   9
HETATM    9  C   UNL     1      -9.208  14.363  66.398  1.00  0.00    -0.213 C  
HETATM   10  S   UNL     1     -10.877  13.649  66.058  1.00  0.00    -0.277 SA 
HETATM   11  C   UNL     1     -10.283  12.143  65.383  1.00  0.00    -0.270 A  
HETATM   12  C   UNL     1      -9.710  11.147  66.190  1.00  0.00    -0.218 A  
HETATM   13  C   UNL     1      -9.256   9.988  65.565  1.00  0.00    -0.247 A  
HETATM   14  N   UNL     1      -9.542  11.374  67.608  1.00  0.00    -0.167 N  
HETATM   15  C   UNL     1     -10.364  12.004  63.987  1.00  0.00    -0.406 A  
HETATM   16  C   UNL     1      -9.326   9.855  64.162  1.00  0.00    -0.295 A  
HETATM   17  C   UNL     1      -8.508  12.267  67.955  1.00  0.00    -0.165 C  
HETATM   18  O   UNL     1      -7.509  11.856  68.560  1.00  0.00    -0.106 OA 
HETATM   19  C   UNL     1      -9.872  10.864  63.373  1.00  0.00    -0.408 A  
HETATM   20  C   UNL     1      -8.710  13.806  67.757  1.00  0.00    -0.182 C  
BRANCH  14  21
HETATM   21  C   UNL     1      -9.697  10.174  68.484  1.00  0.00    -0.154 C  
BRANCH  21  22
HETATM   22  C   UNL     1      -8.494   9.186  68.359  1.00  0.00    -0.128 C  
BRANCH  22  23
HETATM   23  N   UNL     1      -8.200   8.312  69.525  1.00  0.00    -0.117 NA 
HETATM   24  C   UNL     1      -8.092   9.134  70.742  1.00  0.00    -0.174 C  
HETATM   25  C   UNL     1      -6.965   7.542  69.370  1.00  0.00    -0.057 C  
ENDBRANCH  22  23
ENDBRANCH  21  22
ENDBRANCH  14  21
BRANCH  20  26
HETATM   26  O   UNL     1      -9.640  14.271  68.756  1.00  0.00    -0.210 OA 
BRANCH  26  27
HETATM   27  C   UNL     1      -9.338  15.439  69.364  1.00  0.00    -0.266 C  
HETATM   28  C   UNL     1      -7.873  15.465  69.663  1.00  0.00    -0.149 C  
HETATM   29  O   UNL     1     -10.129  16.319  69.660  1.00  0.00    -0.242 OA 
ENDBRANCH  26  27
ENDBRANCH  20  26
ENDBRANCH   6   9
ENDBRANCH   2   3
TORSDOF 7
ENDMDL
MODEL       76
REMARK 921   NORMALIZED FREE ENERGY PREDICTED BY IDOCK:   -3.93 KCAL/MOL
REMARK 922        TOTAL FREE ENERGY PREDICTED BY IDOCK:   -6.65 KCAL/MOL
REMARK 923 INTER-LIGAND FREE ENERGY PREDICTED BY IDOCK:   -6.04 KCAL/MOL
REMARK 924 INTRA-LIGAND FREE ENERGY PREDICTED BY IDOCK:   -0.61 KCAL/MOL
REMARK 927      BINDING AFFINITY PREDICTED BY RF-SCORE:    0.00 PKD
ROOT
HETATM    1  C   UNL     1      -7.870  15.533  67.848  1.00  0.00    -0.131 C  
HETATM    2  O   UNL     1      -8.200  14.459  66.967  1.00  0.00    -0.189 OA 
ENDROOT
BRANCH   2   3
HETATM    3  C   UNL     1      -8.698  13.327  67.553  1.00  0.00    -0.202 A  
HETATM    4  C   UNL     1      -7.969  12.453  68.341  1.00  0.00    -0.149 A  
HETATM    5  C   UNL     1      -8.574  11.304  68.859  1.00  0.00    -0.056 A  
HETATM    6  C   UNL     1      -9.925  10.977  68.620  1.00  0.00    -0.205 A  
HETATM    7  C   UNL     1     -10.050  13.057  67.332  1.00  0.00    -0.231 A  
HETATM    8  C   UNL     1     -10.661  11.901  67.860  1.00  0.00    -0.229 A  
BRANCH   6   9
HETATM    9  C   UNL     1     -10.595   9.706  69.205  1.00  0.00    -0.219 C  
HETATM   10  S   UNL     1     -10.386   9.634  71.039  1.00  0.00    -0.107 SA 
HETATM   11  C   UNL     1     -11.883   8.774  71.347  1.00  0.00    -0.308 A  
HETATM   12  C   UNL     1     -12.033   7.415  71.028  1.00  0.00    -0.306 A  
HETATM   13  C   UNL     1     -13.261   6.817  71.299  1.00  0.00    -0.125 A  
HETATM   14  N   UNL     1     -10.958   6.704  70.373  1.00  0.00    -0.267 N  
HETATM   15  C   UNL     1     -12.942   9.526  71.884  1.00  0.00    -0.514 A  
HETATM   16  C   UNL     1     -14.328   7.576  71.826  1.00  0.00    -0.588 A  
HETATM   17  C   UNL     1     -10.774   7.016  69.010  1.00  0.00    -0.210 C  
HETATM   18  O   UNL     1     -11.000   6.163  68.142  1.00  0.00    -0.311 OA 
HETATM   19  C   UNL     1     -14.171   8.930  72.111  1.00  0.00    -0.463 A  
HETATM   20  C   UNL     1     -10.094   8.367  68.607  1.00  0.00    -0.193 C  
BRANCH  14  21
HETATM   21  C   UNL     1     -10.805   5.265  70.745  1.00  0.00    -0.046 C  
BRANCH  21  22
HETATM   22  C   UNL     1     -10.878   5.038  72.288  1.00  0.00    -0.140 C  
BRANCH  22  23
HETATM   23  N   UNL     1      -9.594   4.856  73.016  1.00  0.00    -0.135 NA 
HETATM   24  C   UNL     1      -9.500   5.844  74.104  1.00  0.00    -0.150 C  
HETATM   25  C   UNL     1      -8.420   4.997  72.154  1.00  0.00    -0.125 C  
ENDBRANCH  22  23
ENDBRANCH  21  22
ENDBRANCH  14  21
BRANCH  20  26
HETATM   26  O   UNL     1      -8.690   8.277  68.924  1.00  0.00    -0.135 OA 
BRANCH  26  27
HETATM   27  C   UNL     1      -7.925   7.557  68.073  1.00  0.00    -0.123 C  
HETATM   28  C   UNL     1      -7.957   8.205  66.726  1.00  0.00    -0.103 C  
HETATM   29  O   UNL     1      -7.334   6.524  68.340  1.00  0.00    -0.083 OA 
ENDBRANCH  26  27
ENDBRANCH  20  26
ENDBRANCH   6   9
ENDBRANCH   2   3
TORSDOF 7
ENDMDL
MODEL       77
REMARK 921   NORMALIZED FREE ENERGY PREDICTED BY IDOCK:   -3.89 KCAL/MOL
REMARK 922        TOTAL FREE ENERGY PREDICTED BY IDOCK:   -6.60 KCAL/MOL
REMARK 923 INTER-LIGAND FREE ENERGY PREDICTED BY IDOCK:   -6.15 KCAL/MOL
REMARK 924 INTRA-LIGAND FREE ENERGY PREDICTED BY IDOCK:   -0.45 KCAL/MOL
REMARK 927      BINDING AFFINITY PREDICTED BY RF-SCORE:    0.00 PKD
ROOT
HETATM    1  C   UNL     1     -12.666  15.687  71.870  1.00  0.00    -0.442 C  
HETATM    2  O   UNL     1     -12.945  15.227  70.548  1.00  0.00    -0.383 OA 
ENDROOT
BRANCH   2   3
HETATM    3  C   UNL     1     -12.307  14.080  70.159  1.00  0.00    -0.345 A  
HETATM    4  C   UNL     1     -12.535  12.823  70.690  1.00  0.00    -0.328 A  
HETATM    5  C   UNL     1     -11.796  11.725  70.240  1.00  0.00    -0.382 A  
HETATM    6  C   UNL     1     -10.804  11.829  69.243  1.00  0.00    -0.185 A  
HETATM    7  C   UNL     1     -11.363  14.212  69.138  1.00  0.00    -0.318 A  
HETATM    8  C   UNL     1     -10.622  13.104  68.680  1.00  0.00    -0.259 A  
BRANCH   6   9
HETATM    9  C   UNL     1      -9.993  10.607  68.738  1.00  0.00    -0.193 C  
HETATM   10  S   UNL     1     -11.034   9.518  67.670  1.00  0.00     0.058 SA 
HETATM   11  C   UNL     1      -9.711   8.947  66.670  1.00  0.00    -0.237 A  
HETATM   12  C   UNL     1      -8.759   8.035  67.155  1.00  0.00    -0.131 A  
HETATM   13  C   UNL     1      -7.738   7.645  66.292  1.00  0.00    -0.089 A  
HETATM   14  N   UNL     1      -8.819   7.592  68.530  1.00  0.00    -0.131 N  
HETATM   15  C   UNL     1      -9.624   9.483  65.374  1.00  0.00    -0.342 A  
HETATM   16  C   UNL     1      -7.643   8.195  64.997  1.00  0.00    -0.096 A  
HETATM   17  C   UNL     1      -8.412   8.545  69.486  1.00  0.00    -0.127 C  
HETATM   18  O   UNL     1      -7.383   8.360  70.149  1.00  0.00    -0.056 OA 
HETATM   19  C   UNL     1      -8.581   9.118  64.540  1.00  0.00    -0.198 A  
HETATM   20  C   UNL     1      -9.363   9.733  69.853  1.00  0.00    -0.231 C  
BRANCH  14  21
HETATM   21  C   UNL     1      -8.389   6.184  68.780  1.00  0.00    -0.111 C  
BRANCH  21  22
HETATM   22  C   UNL     1      -9.093   5.558  70.026  1.00  0.00    -0.135 C  
BRANCH  22  23
HETATM   23  N   UNL     1      -8.233   4.876  71.029  1.00  0.00    -0.101 NA 
HETATM   24  C   UNL     1      -8.339   5.571  72.323  1.00  0.00    -0.119 C  
HETATM   25  C   UNL     1      -6.823   4.826  70.639  1.00  0.00    -0.037 C  
ENDBRANCH  22  23
ENDBRANCH  21  22
ENDBRANCH  14  21
BRANCH  20  26
HETATM   26  O   UNL     1     -10.459   9.209  70.631  1.00  0.00    -0.209 OA 
BRANCH  26  27
HETATM   27  C   UNL     1     -10.154   8.735  71.859  1.00  0.00    -0.339 C  
HETATM   28  C   UNL     1     -11.269   7.857  72.330  1.00  0.00    -0.409 C  
HETATM   29  O   UNL     1      -9.154   9.004  72.503  1.00  0.00    -0.273 OA 
ENDBRANCH  26  27
ENDBRANCH  20  26
ENDBRANCH   6   9
ENDBRANCH   2   3
TORSDOF 7
ENDMDL
MODEL       78
REMARK 921   NORMALIZED FREE ENERGY PREDICTED BY IDOCK:   -3.87 KCAL/MOL
REMARK 922        TOTAL FREE ENERGY PREDICTED BY IDOCK:   -6.56 KCAL/MOL
REMARK 923 INTER-LIGAND FREE ENERGY PREDICTED BY IDOCK:   -5.14 KCAL/MOL
REMARK 924 INTRA-LIGAND FREE ENERGY PREDICTED BY IDOCK:   -1.42 KCAL/MOL
REMARK 927      BINDING AFFINITY PREDICTED BY RF-SCORE:    0.00 PKD
ROOT
HETATM    1  C   UNL     1     -12.521  14.929  70.612  1.00  0.00    -0.352 C  
HETATM    2  O   UNL     1     -12.197  14.694  69.242  1.00  0.00    -0.288 OA 
ENDROOT
BRANCH   2   3
HETATM    3  C   UNL     1     -11.508  13.542  68.972  1.00  0.00    -0.303 A  
HETATM    4  C   UNL     1     -10.484  13.424  68.048  1.00  0.00    -0.243 A  
HETATM    5  C   UNL     1      -9.874  12.186  67.829  1.00  0.00    -0.199 A  
HETATM    6  C   UNL     1     -10.252  11.016  68.520  1.00  0.00    -0.203 A  
HETATM    7  C   UNL     1     -11.876  12.413  69.707  1.00  0.00    -0.387 A  
HETATM    8  C   UNL     1     -11.257  11.165  69.489  1.00  0.00    -0.341 A  
BRANCH   6   9
HETATM    9  C   UNL     1      -9.566   9.645  68.281  1.00  0.00    -0.140 C  
HETATM   10  S   UNL     1     -10.364   8.322  69.294  1.00  0.00    -0.212 SA 
HETATM   11  C   UNL     1     -10.037   7.022  68.163  1.00  0.00    -0.169 A  
HETATM   12  C   UNL     1      -8.744   6.501  67.991  1.00  0.00    -0.116 A  
HETATM   13  C   UNL     1      -8.577   5.476  67.064  1.00  0.00    -0.109 A  
HETATM   14  N   UNL     1      -7.631   7.079  68.710  1.00  0.00    -0.102 N  
HETATM   15  C   UNL     1     -11.125   6.560  67.403  1.00  0.00    -0.411 A  
HETATM   16  C   UNL     1      -9.667   5.022  66.291  1.00  0.00    -0.195 A  
HETATM   17  C   UNL     1      -7.200   8.337  68.241  1.00  0.00    -0.093 C  
HETATM   18  O   UNL     1      -6.085   8.456  67.716  1.00  0.00    -0.046 OA 
HETATM   19  C   UNL     1     -10.938   5.568  66.455  1.00  0.00    -0.120 A  
HETATM   20  C   UNL     1      -8.042   9.617  68.563  1.00  0.00    -0.104 C  
BRANCH  14  21
HETATM   21  C   UNL     1      -6.556   6.127  69.123  1.00  0.00    -0.047 C  
BRANCH  21  22
HETATM   22  C   UNL     1      -6.366   6.077  70.672  1.00  0.00    -0.039 C  
BRANCH  22  23
HETATM   23  N   UNL     1      -7.211   5.121  71.435  1.00  0.00    -0.067 NA 
HETATM   24  C   UNL     1      -7.491   3.938  70.604  1.00  0.00    -0.041 C  
HETATM   25  C   UNL     1      -8.483   5.698  71.871  1.00  0.00    -0.127 C  
ENDBRANCH  22  23
ENDBRANCH  21  22
ENDBRANCH  14  21
BRANCH  20  26
HETATM   26  O   UNL     1      -7.878   9.924  69.962  1.00  0.00    -0.159 OA 
BRANCH  26  27
HETATM   27  C   UNL     1      -6.783  10.641  70.297  1.00  0.00    -0.094 C  
HETATM   28  C   UNL     1      -6.587  11.728  69.289  1.00  0.00    -0.112 C  
HETATM   29  O   UNL     1      -6.044  10.422  71.243  1.00  0.00    -0.322 OA 
ENDBRANCH  26  27
ENDBRANCH  20  26
ENDBRANCH   6   9
ENDBRANCH   2   3
TORSDOF 7
ENDMDL
MODEL       79
REMARK 921   NORMALIZED FREE ENERGY PREDICTED BY IDOCK:   -3.83 KCAL/MOL
REMARK 922        TOTAL FREE ENERGY PREDICTED BY IDOCK:   -6.52 KCAL/MOL
REMARK 923 INTER-LIGAND FREE ENERGY PREDICTED BY IDOCK:   -5.48 KCAL/MOL
REMARK 924 INTRA-LIGAND FREE ENERGY PREDICTED BY IDOCK:   -1.03 KCAL/MOL
REMARK 927      BINDING AFFINITY PREDICTED BY RF-SCORE:    0.00 PKD
ROOT
HETATM    1  C   UNL     1     -12.105  14.534  65.572  1.00  0.00    -0.299 C  
HETATM    2  O   UNL     1     -11.414  13.489  64.886  1.00  0.00    -0.316 OA 
ENDROOT
BRANCH   2   3
HETATM    3  C   UNL     1     -11.132  12.367  65.619  1.00  0.00    -0.306 A  
HETATM    4  C   UNL     1     -10.701  11.161  65.094  1.00  0.00    -0.279 A  
HETATM    5  C   UNL     1     -10.478  10.068  65.936  1.00  0.00    -0.115 A  
HETATM    6  C   UNL     1     -10.669  10.128  67.332  1.00  0.00    -0.336 A  
HETATM    7  C   UNL     1     -11.289  12.475  67.002  1.00  0.00    -0.386 A  
HETATM    8  C   UNL     1     -11.058  11.374  67.852  1.00  0.00    -0.320 A  
BRANCH   6   9
HETATM    9  C   UNL     1     -10.411   8.916  68.265  1.00  0.00    -0.206 C  
HETATM   10  S   UNL     1     -10.027   9.475  69.983  1.00  0.00    -0.253 SA 
HETATM   11  C   UNL     1     -10.701   8.063  70.775  1.00  0.00    -0.223 A  
HETATM   12  C   UNL     1     -10.057   6.816  70.736  1.00  0.00    -0.191 A  
HETATM   13  C   UNL     1     -10.672   5.748  71.386  1.00  0.00    -0.319 A  
HETATM   14  N   UNL     1      -8.837   6.657  69.977  1.00  0.00    -0.141 N  
HETATM   15  C   UNL     1     -11.943   8.231  71.411  1.00  0.00    -0.333 A  
HETATM   16  C   UNL     1     -11.925   5.915  72.012  1.00  0.00    -0.141 A  
HETATM   17  C   UNL     1      -9.000   6.631  68.577  1.00  0.00    -0.120 C  
HETATM   18  O   UNL     1      -8.765   5.594  67.943  1.00  0.00    -0.108 OA 
HETATM   19  C   UNL     1     -12.564   7.152  72.019  1.00  0.00    -0.253 A  
HETATM   20  C   UNL     1      -9.280   7.962  67.802  1.00  0.00    -0.137 C  
BRANCH  14  21
HETATM   21  C   UNL     1      -7.838   5.701  70.541  1.00  0.00    -0.099 C  
BRANCH  21  22
HETATM   22  C   UNL     1      -7.302   6.153  71.937  1.00  0.00    -0.093 C  
BRANCH  22  23
HETATM   23  N   UNL     1      -6.940   5.088  72.910  1.00  0.00    -0.079 NA 
HETATM   24  C   UNL     1      -6.747   3.814  72.198  1.00  0.00    -0.022 C  
HETATM   25  C   UNL     1      -7.950   4.894  73.952  1.00  0.00    -0.102 C  
ENDBRANCH  22  23
ENDBRANCH  21  22
ENDBRANCH  14  21
BRANCH  20  26
HETATM   26  O   UNL     1      -8.066   8.740  67.790  1.00  0.00    -0.106 OA 
BRANCH  26  27
HETATM   27  C   UNL     1      -7.168   8.442  66.825  1.00  0.00    -0.078 C  
HETATM   28  C   UNL     1      -5.797   8.436  67.424  1.00  0.00    -0.043 C  
HETATM   29  O   UNL     1      -7.419   8.245  65.648  1.00  0.00    -0.077 OA 
ENDBRANCH  26  27
ENDBRANCH  20  26
ENDBRANCH   6   9
ENDBRANCH   2   3
TORSDOF 7
ENDMDL
MODEL       80
REMARK 921   NORMALIZED FREE ENERGY PREDICTED BY IDOCK:   -3.79 KCAL/MOL
REMARK 922        TOTAL FREE ENERGY PREDICTED BY IDOCK:   -6.45 KCAL/MOL
REMARK 923 INTER-LIGAND FREE ENERGY PREDICTED BY IDOCK:   -5.38 KCAL/MOL
REMARK 924 INTRA-LIGAND FREE ENERGY PREDICTED BY IDOCK:   -1.08 KCAL/MOL
REMARK 927      BINDING AFFINITY PREDICTED BY RF-SCORE:    0.00 PKD
ROOT
HETATM    1  C   UNL     1     -11.037  13.257  67.640  1.00  0.00    -0.269 C  
HETATM    2  O   UNL     1      -9.791  12.608  67.389  1.00  0.00    -0.201 OA 
ENDROOT
BRANCH   2   3
HETATM    3  C   UNL     1      -9.740  11.268  67.666  1.00  0.00    -0.171 A  
HETATM    4  C   UNL     1     -10.750  10.360  67.397  1.00  0.00    -0.338 A  
HETATM    5  C   UNL     1     -10.602   9.018  67.758  1.00  0.00    -0.278 A  
HETATM    6  C   UNL     1      -9.448   8.521  68.397  1.00  0.00    -0.141 A  
HETATM    7  C   UNL     1      -8.564  10.801  68.258  1.00  0.00    -0.135 A  
HETATM    8  C   UNL     1      -8.414   9.447  68.616  1.00  0.00    -0.119 A  
BRANCH   6   9
HETATM    9  C   UNL     1      -9.283   7.029  68.787  1.00  0.00    -0.132 C  
HETATM   10  S   UNL     1     -10.774   6.052  68.303  1.00  0.00    -0.269 SA 
HETATM   11  C   UNL     1      -9.911   4.549  68.030  1.00  0.00    -0.092 A  
HETATM   12  C   UNL     1      -9.407   3.783  69.093  1.00  0.00    -0.173 A  
HETATM   13  C   UNL     1      -8.726   2.609  68.780  1.00  0.00    -0.131 A  
HETATM   14  N   UNL     1      -9.540   4.259  70.452  1.00  0.00    -0.179 N  
HETATM   15  C   UNL     1      -9.706   4.175  66.690  1.00  0.00    -0.233 A  
HETATM   16  C   UNL     1      -8.509   2.242  67.435  1.00  0.00    -0.106 A  
HETATM   17  C   UNL     1      -8.687   5.326  70.801  1.00  0.00    -0.131 C  
HETATM   18  O   UNL     1      -7.788   5.156  71.634  1.00  0.00    -0.103 OA 
HETATM   19  C   UNL     1      -8.993   3.027  66.391  1.00  0.00    -0.159 A  
HETATM   20  C   UNL     1      -9.003   6.772  70.290  1.00  0.00    -0.152 C  
BRANCH  14  21
HETATM   21  C   UNL     1      -9.738   3.207  71.494  1.00  0.00    -0.156 C  
BRANCH  21  22
HETATM   22  C   UNL     1     -10.506   3.743  72.744  1.00  0.00    -0.141 C  
BRANCH  22  23
HETATM   23  N   UNL     1     -10.711   2.804  73.878  1.00  0.00    -0.173 NA 
HETATM   24  C   UNL     1      -9.428   2.174  74.234  1.00  0.00    -0.076 C  
HETATM   25  C   UNL     1     -11.684   1.751  73.584  1.00  0.00    -0.190 C  
ENDBRANCH  22  23
ENDBRANCH  21  22
ENDBRANCH  14  21
BRANCH  20  26
HETATM   26  O   UNL     1     -10.150   7.264  71.011  1.00  0.00    -0.192 OA 
BRANCH  26  27
HETATM   27  C   UNL     1      -9.900   8.082  72.057  1.00  0.00    -0.211 C  
HETATM   28  C   UNL     1     -10.318   7.398  73.319  1.00  0.00    -0.405 C  
HETATM   29  O   UNL     1      -9.444   9.211  71.990  1.00  0.00    -0.323 OA 
ENDBRANCH  26  27
ENDBRANCH  20  26
ENDBRANCH   6   9
ENDBRANCH   2   3
TORSDOF 7
ENDMDL
MODEL       81
REMARK 921   NORMALIZED FREE ENERGY PREDICTED BY IDOCK:   -3.70 KCAL/MOL
REMARK 922        TOTAL FREE ENERGY PREDICTED BY IDOCK:   -6.32 KCAL/MOL
REMARK 923 INTER-LIGAND FREE ENERGY PREDICTED BY IDOCK:   -6.39 KCAL/MOL
REMARK 924 INTRA-LIGAND FREE ENERGY PREDICTED BY IDOCK:    0.06 KCAL/MOL
REMARK 927      BINDING AFFINITY PREDICTED BY RF-SCORE:    0.00 PKD
ROOT
HETATM    1  C   UNL     1      -6.757   3.956  67.752  1.00  0.00    -0.046 C  
HETATM    2  O   UNL     1      -7.916   4.382  67.035  1.00  0.00    -0.100 OA 
ENDROOT
BRANCH   2   3
HETATM    3  C   UNL     1      -8.426   5.605  67.381  1.00  0.00    -0.106 A  
HETATM    4  C   UNL     1      -7.738   6.589  68.068  1.00  0.00    -0.105 A  
HETATM    5  C   UNL     1      -8.373   7.789  68.400  1.00  0.00    -0.125 A  
HETATM    6  C   UNL     1      -9.714   8.063  68.061  1.00  0.00    -0.184 A  
HETATM    7  C   UNL     1      -9.742   5.860  66.990  1.00  0.00    -0.158 A  
HETATM    8  C   UNL     1     -10.380   7.073  67.320  1.00  0.00    -0.331 A  
BRANCH   6   9
HETATM    9  C   UNL     1     -10.413   9.400  68.422  1.00  0.00    -0.218 C  
HETATM   10  S   UNL     1      -9.171  10.702  68.842  1.00  0.00    -0.170 SA 
HETATM   11  C   UNL     1     -10.142  12.050  68.279  1.00  0.00    -0.201 A  
HETATM   12  C   UNL     1     -11.268  12.497  68.988  1.00  0.00    -0.268 A  
HETATM   13  C   UNL     1     -11.984  13.568  68.460  1.00  0.00    -0.379 A  
HETATM   14  N   UNL     1     -11.690  11.803  70.185  1.00  0.00    -0.304 N  
HETATM   15  C   UNL     1      -9.764  12.629  67.055  1.00  0.00    -0.225 A  
HETATM   16  C   UNL     1     -11.612  14.140  67.225  1.00  0.00    -0.399 A  
HETATM   17  C   UNL     1     -12.307  10.553  69.968  1.00  0.00    -0.219 C  
HETATM   18  O   UNL     1     -13.506  10.398  70.234  1.00  0.00    -0.006 OA 
HETATM   19  C   UNL     1     -10.508  13.667  66.520  1.00  0.00    -0.281 A  
HETATM   20  C   UNL     1     -11.435   9.312  69.585  1.00  0.00     0.152 C  
BRANCH  14  21
HETATM   21  C   UNL     1     -12.287  12.655  71.257  1.00  0.00    -0.053 C  
BRANCH  21  22
HETATM   22  C   UNL     1     -12.061  14.179  71.001  1.00  0.00    -0.335 C  
BRANCH  22  23
HETATM   23  N   UNL     1     -12.612  15.131  72.002  1.00  0.00    -0.322 NA 
HETATM   24  C   UNL     1     -14.067  15.254  71.815  1.00  0.00    -0.555 C  
HETATM   25  C   UNL     1     -12.015  16.465  71.916  1.00  0.00    -0.324 C  
ENDBRANCH  22  23
ENDBRANCH  21  22
ENDBRANCH  14  21
BRANCH  20  26
HETATM   26  O   UNL     1     -10.693   8.904  70.752  1.00  0.00    -0.208 OA 
BRANCH  26  27
HETATM   27  C   UNL     1     -11.104   7.771  71.362  1.00  0.00    -0.238 C  
HETATM   28  C   UNL     1     -11.453   8.083  72.782  1.00  0.00    -0.420 C  
HETATM   29  O   UNL     1     -11.149   6.661  70.857  1.00  0.00    -0.255 OA 
ENDBRANCH  26  27
ENDBRANCH  20  26
ENDBRANCH   6   9
ENDBRANCH   2   3
TORSDOF 7
ENDMDL
MODEL       82
REMARK 921   NORMALIZED FREE ENERGY PREDICTED BY IDOCK:   -3.65 KCAL/MOL
REMARK 922        TOTAL FREE ENERGY PREDICTED BY IDOCK:   -6.26 KCAL/MOL
REMARK 923 INTER-LIGAND FREE ENERGY PREDICTED BY IDOCK:   -5.26 KCAL/MOL
REMARK 924 INTRA-LIGAND FREE ENERGY PREDICTED BY IDOCK:   -1.00 KCAL/MOL
REMARK 927      BINDING AFFINITY PREDICTED BY RF-SCORE:    0.00 PKD
ROOT
HETATM    1  C   UNL     1     -12.231  12.501  63.928  1.00  0.00    -0.503 C  
HETATM    2  O   UNL     1     -12.382  12.720  65.331  1.00  0.00    -0.469 OA 
ENDROOT
BRANCH   2   3
HETATM    3  C   UNL     1     -11.544  12.010  66.148  1.00  0.00    -0.304 A  
HETATM    4  C   UNL     1     -10.575  11.121  65.716  1.00  0.00    -0.289 A  
HETATM    5  C   UNL     1      -9.800  10.421  66.645  1.00  0.00    -0.251 A  
HETATM    6  C   UNL     1      -9.950  10.577  68.038  1.00  0.00    -0.177 A  
HETATM    7  C   UNL     1     -11.690  12.222  67.521  1.00  0.00    -0.402 A  
HETATM    8  C   UNL     1     -10.904  11.520  68.457  1.00  0.00    -0.254 A  
BRANCH   6   9
HETATM    9  C   UNL     1      -9.081   9.806  69.066  1.00  0.00    -0.157 C  
HETATM   10  S   UNL     1      -7.400   9.461  68.382  1.00  0.00    -0.077 SA 
HETATM   11  C   UNL     1      -6.576   9.501  69.930  1.00  0.00    -0.059 A  
HETATM   12  C   UNL     1      -6.715   8.465  70.867  1.00  0.00    -0.042 A  
HETATM   13  C   UNL     1      -6.030   8.586  72.074  1.00  0.00    -0.060 A  
HETATM   14  N   UNL     1      -7.603   7.357  70.593  1.00  0.00    -0.085 N  
HETATM   15  C   UNL     1      -5.807  10.645  70.205  1.00  0.00    -0.087 A  
HETATM   16  C   UNL     1      -5.271   9.741  72.354  1.00  0.00    -0.021 A  
HETATM   17  C   UNL     1      -8.979   7.652  70.695  1.00  0.00    -0.153 C  
HETATM   18  O   UNL     1      -9.660   7.134  71.591  1.00  0.00    -0.157 OA 
HETATM   19  C   UNL     1      -5.164  10.773  71.424  1.00  0.00    -0.052 A  
HETATM   20  C   UNL     1      -9.685   8.468  69.562  1.00  0.00    -0.176 C  
BRANCH  14  21
HETATM   21  C   UNL     1      -7.173   6.029  71.124  1.00  0.00    -0.075 C  
BRANCH  21  22
HETATM   22  C   UNL     1      -6.921   4.987  69.989  1.00  0.00    -0.049 C  
BRANCH  22  23
HETATM   23  N   UNL     1      -7.720   5.124  68.742  1.00  0.00    -0.078 NA 
HETATM   24  C   UNL     1      -8.183   3.797  68.305  1.00  0.00    -0.082 C  
HETATM   25  C   UNL     1      -6.973   5.743  67.645  1.00  0.00    -0.066 C  
ENDBRANCH  22  23
ENDBRANCH  21  22
ENDBRANCH  14  21
BRANCH  20  26
HETATM   26  O   UNL     1      -9.807   7.618  68.404  1.00  0.00    -0.158 OA 
BRANCH  26  27
HETATM   27  C   UNL     1     -10.881   6.798  68.367  1.00  0.00    -0.223 C  
HETATM   28  C   UNL     1     -11.022   6.244  66.985  1.00  0.00    -0.442 C  
HETATM   29  O   UNL     1     -11.641   6.571  69.294  1.00  0.00    -0.309 OA 
ENDBRANCH  26  27
ENDBRANCH  20  26
ENDBRANCH   6   9
ENDBRANCH   2   3
TORSDOF 7
ENDMDL
MODEL       83
REMARK 921   NORMALIZED FREE ENERGY PREDICTED BY IDOCK:   -3.64 KCAL/MOL
REMARK 922        TOTAL FREE ENERGY PREDICTED BY IDOCK:   -6.25 KCAL/MOL
REMARK 923 INTER-LIGAND FREE ENERGY PREDICTED BY IDOCK:   -5.34 KCAL/MOL
REMARK 924 INTRA-LIGAND FREE ENERGY PREDICTED BY IDOCK:   -0.91 KCAL/MOL
REMARK 927      BINDING AFFINITY PREDICTED BY RF-SCORE:    0.00 PKD
ROOT
HETATM    1  C   UNL     1      -5.125   9.155  62.543  1.00  0.00    -0.069 C  
HETATM    2  O   UNL     1      -5.588   8.716  63.820  1.00  0.00    -0.064 OA 
ENDROOT
BRANCH   2   3
HETATM    3  C   UNL     1      -6.519   9.511  64.433  1.00  0.00    -0.095 A  
HETATM    4  C   UNL     1      -7.848   9.611  64.062  1.00  0.00    -0.137 A  
HETATM    5  C   UNL     1      -8.702  10.487  64.740  1.00  0.00    -0.196 A  
HETATM    6  C   UNL     1      -8.274  11.293  65.814  1.00  0.00     0.071 A  
HETATM    7  C   UNL     1      -6.071  10.262  65.522  1.00  0.00    -0.113 A  
HETATM    8  C   UNL     1      -6.934  11.140  66.208  1.00  0.00    -0.052 A  
BRANCH   6   9
HETATM    9  C   UNL     1      -9.227  12.256  66.570  1.00  0.00    -0.219 C  
HETATM   10  S   UNL     1      -8.283  13.349  67.721  1.00  0.00    -0.188 SA 
HETATM   11  C   UNL     1      -9.389  14.706  67.611  1.00  0.00    -0.200 A  
HETATM   12  C   UNL     1     -10.653  14.680  68.222  1.00  0.00    -0.235 A  
HETATM   13  C   UNL     1     -11.468  15.800  68.073  1.00  0.00    -0.264 A  
HETATM   14  N   UNL     1     -11.097  13.490  68.913  1.00  0.00    -0.260 N  
HETATM   15  C   UNL     1      -8.966  15.802  66.840  1.00  0.00    -0.266 A  
HETATM   16  C   UNL     1     -11.049  16.893  67.287  1.00  0.00     0.091 A  
HETATM   17  C   UNL     1     -11.463  12.413  68.080  1.00  0.00    -0.322 C  
HETATM   18  O   UNL     1     -12.643  12.040  68.030  1.00  0.00     0.178 OA 
HETATM   19  C   UNL     1      -9.802  16.892  66.665  1.00  0.00    -0.295 A  
HETATM   20  C   UNL     1     -10.355  11.562  67.376  1.00  0.00    -0.207 C  
BRANCH  14  21
HETATM   21  C   UNL     1     -11.956  13.715  70.114  1.00  0.00    -0.337 C  
BRANCH  21  22
HETATM   22  C   UNL     1     -11.346  14.766  71.095  1.00  0.00    -0.134 C  
BRANCH  22  23
HETATM   23  N   UNL     1     -12.088  15.042  72.354  1.00  0.00    -0.353 NA 
HETATM   24  C   UNL     1     -13.498  14.648  72.191  1.00  0.00    -0.395 C  
HETATM   25  C   UNL     1     -12.038  16.448  72.755  1.00  0.00    -0.478 C  
ENDBRANCH  22  23
ENDBRANCH  21  22
ENDBRANCH  14  21
BRANCH  20  26
HETATM   26  O   UNL     1      -9.705  10.753  68.377  1.00  0.00    -0.161 OA 
BRANCH  26  27
HETATM   27  C   UNL     1     -10.324   9.601  68.716  1.00  0.00    -0.213 C  
HETATM   28  C   UNL     1     -10.764   8.902  67.469  1.00  0.00    -0.223 C  
HETATM   29  O   UNL     1     -10.531   9.205  69.851  1.00  0.00    -0.206 OA 
ENDBRANCH  26  27
ENDBRANCH  20  26
ENDBRANCH   6   9
ENDBRANCH   2   3
TORSDOF 7
ENDMDL
MODEL       84
REMARK 921   NORMALIZED FREE ENERGY PREDICTED BY IDOCK:   -3.60 KCAL/MOL
REMARK 922        TOTAL FREE ENERGY PREDICTED BY IDOCK:   -6.19 KCAL/MOL
REMARK 923 INTER-LIGAND FREE ENERGY PREDICTED BY IDOCK:   -5.16 KCAL/MOL
REMARK 924 INTRA-LIGAND FREE ENERGY PREDICTED BY IDOCK:   -1.03 KCAL/MOL
REMARK 927      BINDING AFFINITY PREDICTED BY RF-SCORE:    0.00 PKD
ROOT
HETATM    1  C   UNL     1      -7.193   6.132  66.798  1.00  0.00    -0.074 C  
HETATM    2  O   UNL     1      -6.266   7.143  66.403  1.00  0.00    -0.037 OA 
ENDROOT
BRANCH   2   3
HETATM    3  C   UNL     1      -6.729   8.431  66.426  1.00  0.00    -0.066 A  
HETATM    4  C   UNL     1      -7.599   8.981  65.501  1.00  0.00    -0.090 A  
HETATM    5  C   UNL     1      -7.978  10.323  65.603  1.00  0.00    -0.150 A  
HETATM    6  C   UNL     1      -7.512  11.172  66.628  1.00  0.00    -0.146 A  
HETATM    7  C   UNL     1      -6.283   9.232  67.480  1.00  0.00    -0.058 A  
HETATM    8  C   UNL     1      -6.670  10.583  67.586  1.00  0.00    -0.073 A  
BRANCH   6   9
HETATM    9  C   UNL     1      -7.941  12.658  66.744  1.00  0.00     0.126 C  
HETATM   10  S   UNL     1      -7.512  13.341  68.406  1.00  0.00    -0.130 SA 
HETATM   11  C   UNL     1      -7.266  14.988  67.853  1.00  0.00    -0.149 A  
HETATM   12  C   UNL     1      -8.342  15.811  67.481  1.00  0.00    -0.166 A  
HETATM   13  C   UNL     1      -8.050  17.101  67.046  1.00  0.00    -0.228 A  
HETATM   14  N   UNL     1      -9.689  15.285  67.489  1.00  0.00    -0.205 N  
HETATM   15  C   UNL     1      -5.934  15.427  67.755  1.00  0.00    -0.164 A  
HETATM   16  C   UNL     1      -6.712  17.536  66.935  1.00  0.00    -0.220 A  
HETATM   17  C   UNL     1      -9.992  14.393  66.440  1.00  0.00    -0.294 C  
HETATM   18  O   UNL     1     -10.813  14.713  65.570  1.00  0.00    -0.310 OA 
HETATM   19  C   UNL     1      -5.655  16.698  67.282  1.00  0.00    -0.184 A  
HETATM   20  C   UNL     1      -9.446  12.927  66.484  1.00  0.00    -0.251 C  
BRANCH  14  21
HETATM   21  C   UNL     1     -10.764  16.254  67.861  1.00  0.00    -0.329 C  
BRANCH  21  22
HETATM   22  C   UNL     1     -12.019  15.547  68.464  1.00  0.00    -0.158 C  
BRANCH  22  23
HETATM   23  N   UNL     1     -12.116  15.468  69.946  1.00  0.00    -0.359 NA 
HETATM   24  C   UNL     1     -11.011  16.228  70.553  1.00  0.00    -0.219 C  
HETATM   25  C   UNL     1     -12.073  14.095  70.452  1.00  0.00    -0.346 C  
ENDBRANCH  22  23
ENDBRANCH  21  22
ENDBRANCH  14  21
BRANCH  20  26
HETATM   26  O   UNL     1     -10.173  12.206  67.498  1.00  0.00    -0.196 OA 
BRANCH  26  27
HETATM   27  C   UNL     1     -11.357  11.671  67.126  1.00  0.00    -0.306 C  
HETATM   28  C   UNL     1     -12.083  11.202  68.347  1.00  0.00    -0.069 C  
HETATM   29  O   UNL     1     -11.761  11.550  65.981  1.00  0.00    -0.312 OA 
ENDBRANCH  26  27
ENDBRANCH  20  26
ENDBRANCH   6   9
ENDBRANCH   2   3
TORSDOF 7
ENDMDL
MODEL       85
REMARK 921   NORMALIZED FREE ENERGY PREDICTED BY IDOCK:   -3.57 KCAL/MOL
REMARK 922        TOTAL FREE ENERGY PREDICTED BY IDOCK:   -6.15 KCAL/MOL
REMARK 923 INTER-LIGAND FREE ENERGY PREDICTED BY IDOCK:   -5.06 KCAL/MOL
REMARK 924 INTRA-LIGAND FREE ENERGY PREDICTED BY IDOCK:   -1.09 KCAL/MOL
REMARK 927      BINDING AFFINITY PREDICTED BY RF-SCORE:    0.00 PKD
ROOT
HETATM    1  C   UNL     1     -12.911  15.547  71.390  1.00  0.00    -0.483 C  
HETATM    2  O   UNL     1     -12.829  15.420  69.970  1.00  0.00    -0.238 OA 
ENDROOT
BRANCH   2   3
HETATM    3  C   UNL     1     -12.053  14.396  69.498  1.00  0.00    -0.322 A  
HETATM    4  C   UNL     1     -11.115  14.509  68.487  1.00  0.00    -0.271 A  
HETATM    5  C   UNL     1     -10.403  13.384  68.060  1.00  0.00    -0.242 A  
HETATM    6  C   UNL     1     -10.590  12.103  68.621  1.00  0.00    -0.248 A  
HETATM    7  C   UNL     1     -12.232  13.151  70.106  1.00  0.00    -0.360 A  
HETATM    8  C   UNL     1     -11.510  12.018  69.679  1.00  0.00    -0.322 A  
BRANCH   6   9
HETATM    9  C   UNL     1      -9.791  10.859  68.151  1.00  0.00    -0.175 C  
HETATM   10  S   UNL     1      -9.598   9.641  69.526  1.00  0.00    -0.211 SA 
HETATM   11  C   UNL     1      -9.563   8.224  68.494  1.00  0.00    -0.149 A  
HETATM   12  C   UNL     1      -8.449   7.921  67.693  1.00  0.00    -0.127 A  
HETATM   13  C   UNL     1      -8.515   6.780  66.897  1.00  0.00    -0.115 A  
HETATM   14  N   UNL     1      -7.318   8.821  67.659  1.00  0.00    -0.084 N  
HETATM   15  C   UNL     1     -10.723   7.432  68.471  1.00  0.00    -0.138 A  
HETATM   16  C   UNL     1      -9.685   5.994  66.865  1.00  0.00    -0.173 A  
HETATM   17  C   UNL     1      -7.525  10.018  66.942  1.00  0.00    -0.095 C  
HETATM   18  O   UNL     1      -6.901  10.230  65.894  1.00  0.00    -0.110 OA 
HETATM   19  C   UNL     1     -10.791   6.322  67.646  1.00  0.00    -0.433 A  
HETATM   20  C   UNL     1      -8.386  11.163  67.572  1.00  0.00    -0.122 C  
BRANCH  14  21
HETATM   21  C   UNL     1      -5.979   8.180  67.497  1.00  0.00    -0.047 C  
BRANCH  21  22
HETATM   22  C   UNL     1      -5.303   7.859  68.867  1.00  0.00    -0.026 C  
BRANCH  22  23
HETATM   23  N   UNL     1      -5.380   6.458  69.359  1.00  0.00    -0.012 NA 
HETATM   24  C   UNL     1      -5.253   5.529  68.223  1.00  0.00    -0.004 C  
HETATM   25  C   UNL     1      -6.628   6.164  70.066  1.00  0.00    -0.044 C  
ENDBRANCH  22  23
ENDBRANCH  21  22
ENDBRANCH  14  21
BRANCH  20  26
HETATM   26  O   UNL     1      -7.625  11.765  68.638  1.00  0.00    -0.121 OA 
BRANCH  26  27
HETATM   27  C   UNL     1      -6.869  12.835  68.309  1.00  0.00    -0.090 C  
HETATM   28  C   UNL     1      -6.580  13.624  69.547  1.00  0.00    -0.069 C  
HETATM   29  O   UNL     1      -6.508  13.140  67.185  1.00  0.00    -0.227 OA 
ENDBRANCH  26  27
ENDBRANCH  20  26
ENDBRANCH   6   9
ENDBRANCH   2   3
TORSDOF 7
ENDMDL
MODEL       86
REMARK 921   NORMALIZED FREE ENERGY PREDICTED BY IDOCK:   -3.55 KCAL/MOL
REMARK 922        TOTAL FREE ENERGY PREDICTED BY IDOCK:   -6.11 KCAL/MOL
REMARK 923 INTER-LIGAND FREE ENERGY PREDICTED BY IDOCK:   -6.27 KCAL/MOL
REMARK 924 INTRA-LIGAND FREE ENERGY PREDICTED BY IDOCK:    0.15 KCAL/MOL
REMARK 927      BINDING AFFINITY PREDICTED BY RF-SCORE:    0.00 PKD
ROOT
HETATM    1  C   UNL     1     -10.847   5.379  70.548  1.00  0.00    -0.130 C  
HETATM    2  O   UNL     1     -11.749   6.021  71.449  1.00  0.00    -0.235 OA 
ENDROOT
BRANCH   2   3
HETATM    3  C   UNL     1     -11.815   7.386  71.370  1.00  0.00    -0.300 A  
HETATM    4  C   UNL     1     -12.921   8.150  71.700  1.00  0.00    -0.352 A  
HETATM    5  C   UNL     1     -12.887   9.539  71.544  1.00  0.00    -0.464 A  
HETATM    6  C   UNL     1     -11.755  10.226  71.059  1.00  0.00    -0.461 A  
HETATM    7  C   UNL     1     -10.662   8.038  70.928  1.00  0.00    -0.240 A  
HETATM    8  C   UNL     1     -10.626   9.439  70.777  1.00  0.00    -0.371 A  
BRANCH   6   9
HETATM    9  C   UNL     1     -11.718  11.768  70.897  1.00  0.00     0.448 C  
HETATM   10  S   UNL     1     -13.426  12.467  70.825  1.00  0.00     1.366 SA 
HETATM   11  C   UNL     1     -13.009  14.009  71.550  1.00  0.00    -0.351 A  
HETATM   12  C   UNL     1     -12.279  14.982  70.848  1.00  0.00    -0.329 A  
HETATM   13  C   UNL     1     -11.986  16.173  71.507  1.00  0.00    -0.490 A  
HETATM   14  N   UNL     1     -11.798  14.699  69.514  1.00  0.00    -0.312 N  
HETATM   15  C   UNL     1     -13.401  14.203  72.886  1.00  0.00    -0.532 A  
HETATM   16  C   UNL     1     -12.367  16.361  72.852  1.00  0.00    -0.463 A  
HETATM   17  C   UNL     1     -10.704  13.811  69.445  1.00  0.00     0.025 C  
HETATM   18  O   UNL     1      -9.599  14.215  69.060  1.00  0.00    -0.109 OA 
HETATM   19  C   UNL     1     -13.068  15.376  73.543  1.00  0.00    -0.589 A  
HETATM   20  C   UNL     1     -10.934  12.278  69.661  1.00  0.00     0.151 C  
BRANCH  14  21
HETATM   21  C   UNL     1     -11.763  15.860  68.574  1.00  0.00    -0.292 C  
BRANCH  21  22
HETATM   22  C   UNL     1     -10.699  16.927  68.985  1.00  0.00    -0.308 C  
BRANCH  22  23
HETATM   23  N   UNL     1     -10.695  18.214  68.239  1.00  0.00    -0.244 NA 
HETATM   24  C   UNL     1     -10.770  17.945  66.793  1.00  0.00    -0.149 C  
HETATM   25  C   UNL     1      -9.508  19.028  68.503  1.00  0.00    -0.383 C  
ENDBRANCH  22  23
ENDBRANCH  21  22
ENDBRANCH  14  21
BRANCH  20  26
HETATM   26  O   UNL     1     -11.613  11.757  68.501  1.00  0.00    -0.271 OA 
BRANCH  26  27
HETATM   27  C   UNL     1     -10.995  11.929  67.312  1.00  0.00    -0.268 C  
HETATM   28  C   UNL     1     -11.912  12.668  66.390  1.00  0.00    -0.425 C  
HETATM   29  O   UNL     1      -9.885  11.518  67.015  1.00  0.00    -0.189 OA 
ENDBRANCH  26  27
ENDBRANCH  20  26
ENDBRANCH   6   9
ENDBRANCH   2   3
TORSDOF 7
ENDMDL
MODEL       87
REMARK 921   NORMALIZED FREE ENERGY PREDICTED BY IDOCK:   -3.55 KCAL/MOL
REMARK 922        TOTAL FREE ENERGY PREDICTED BY IDOCK:   -6.11 KCAL/MOL
REMARK 923 INTER-LIGAND FREE ENERGY PREDICTED BY IDOCK:   -5.01 KCAL/MOL
REMARK 924 INTRA-LIGAND FREE ENERGY PREDICTED BY IDOCK:   -1.10 KCAL/MOL
REMARK 927      BINDING AFFINITY PREDICTED BY RF-SCORE:    0.00 PKD
ROOT
HETATM    1  C   UNL     1      -5.493   3.259  63.896  1.00  0.00    -0.009 C  
HETATM    2  O   UNL     1      -6.823   3.774  63.967  1.00  0.00    -0.042 OA 
ENDROOT
BRANCH   2   3
HETATM    3  C   UNL     1      -7.273   4.118  65.213  1.00  0.00    -0.071 A  
HETATM    4  C   UNL     1      -8.425   3.632  65.806  1.00  0.00    -0.111 A  
HETATM    5  C   UNL     1      -8.807   4.084  67.073  1.00  0.00    -0.130 A  
HETATM    6  C   UNL     1      -8.062   5.032  67.803  1.00  0.00    -0.098 A  
HETATM    7  C   UNL     1      -6.487   5.026  65.927  1.00  0.00    -0.040 A  
HETATM    8  C   UNL     1      -6.870   5.476  67.207  1.00  0.00    -0.060 A  
BRANCH   6   9
HETATM    9  C   UNL     1      -8.485   5.524  69.213  1.00  0.00    -0.101 C  
HETATM   10  S   UNL     1     -10.150   4.867  69.669  1.00  0.00    -0.186 SA 
HETATM   11  C   UNL     1      -9.843   4.813  71.395  1.00  0.00    -0.187 A  
HETATM   12  C   UNL     1      -9.780   5.982  72.171  1.00  0.00    -0.154 A  
HETATM   13  C   UNL     1      -9.522   5.843  73.533  1.00  0.00    -0.139 A  
HETATM   14  N   UNL     1      -9.908   7.276  71.539  1.00  0.00    -0.174 N  
HETATM   15  C   UNL     1      -9.615   3.544  71.955  1.00  0.00    -0.218 A  
HETATM   16  C   UNL     1      -9.280   4.570  74.091  1.00  0.00    -0.114 A  
HETATM   17  C   UNL     1      -8.786   7.695  70.795  1.00  0.00    -0.139 C  
HETATM   18  O   UNL     1      -8.117   8.666  71.172  1.00  0.00    -0.118 OA 
HETATM   19  C   UNL     1      -9.320   3.423  73.302  1.00  0.00    -0.119 A  
HETATM   20  C   UNL     1      -8.505   7.064  69.390  1.00  0.00    -0.133 C  
BRANCH  14  21
HETATM   21  C   UNL     1     -10.594   8.331  72.345  1.00  0.00    -0.337 C  
BRANCH  21  22
HETATM   22  C   UNL     1     -11.455   9.289  71.463  1.00  0.00    -0.384 C  
BRANCH  22  23
HETATM   23  N   UNL     1     -12.691   9.852  72.067  1.00  0.00    -0.387 NA 
HETATM   24  C   UNL     1     -13.836   8.985  71.745  1.00  0.00    -0.399 C  
HETATM   25  C   UNL     1     -12.989  11.210  71.608  1.00  0.00    -0.443 C  
ENDBRANCH  22  23
ENDBRANCH  21  22
ENDBRANCH  14  21
BRANCH  20  26
HETATM   26  O   UNL     1      -9.488   7.570  68.464  1.00  0.00    -0.145 OA 
BRANCH  26  27
HETATM   27  C   UNL     1      -9.146   8.677  67.770  1.00  0.00    -0.135 C  
HETATM   28  C   UNL     1     -10.333   9.145  66.988  1.00  0.00    -0.333 C  
HETATM   29  O   UNL     1      -8.043   9.197  67.746  1.00  0.00    -0.104 OA 
ENDBRANCH  26  27
ENDBRANCH  20  26
ENDBRANCH   6   9
ENDBRANCH   2   3
TORSDOF 7
ENDMDL
MODEL       88
REMARK 921   NORMALIZED FREE ENERGY PREDICTED BY IDOCK:   -3.54 KCAL/MOL
REMARK 922        TOTAL FREE ENERGY PREDICTED BY IDOCK:   -6.11 KCAL/MOL
REMARK 923 INTER-LIGAND FREE ENERGY PREDICTED BY IDOCK:   -4.76 KCAL/MOL
REMARK 924 INTRA-LIGAND FREE ENERGY PREDICTED BY IDOCK:   -1.34 KCAL/MOL
REMARK 927      BINDING AFFINITY PREDICTED BY RF-SCORE:    0.00 PKD
ROOT
HETATM    1  C   UNL     1      -6.415   4.880  74.559  1.00  0.00    -0.065 C  
HETATM    2  O   UNL     1      -6.661   6.282  74.447  1.00  0.00    -0.081 OA 
ENDROOT
BRANCH   2   3
HETATM    3  C   UNL     1      -7.036   6.733  73.210  1.00  0.00    -0.075 A  
HETATM    4  C   UNL     1      -7.449   5.930  72.161  1.00  0.00    -0.096 A  
HETATM    5  C   UNL     1      -7.775   6.500  70.926  1.00  0.00    -0.101 A  
HETATM    6  C   UNL     1      -7.707   7.887  70.683  1.00  0.00    -0.090 A  
HETATM    7  C   UNL     1      -7.000   8.116  73.017  1.00  0.00    -0.126 A  
HETATM    8  C   UNL     1      -7.333   8.690  71.774  1.00  0.00    -0.108 A  
BRANCH   6   9
HETATM    9  C   UNL     1      -8.078   8.517  69.315  1.00  0.00    -0.113 C  
HETATM   10  S   UNL     1      -7.605  10.302  69.260  1.00  0.00    -0.139 SA 
HETATM   11  C   UNL     1      -7.302  10.343  67.532  1.00  0.00    -0.092 A  
HETATM   12  C   UNL     1      -8.349  10.301  66.597  1.00  0.00    -0.125 A  
HETATM   13  C   UNL     1      -8.012  10.329  65.246  1.00  0.00    -0.148 A  
HETATM   14  N   UNL     1      -9.715  10.159  67.049  1.00  0.00    -0.174 N  
HETATM   15  C   UNL     1      -5.955  10.372  67.130  1.00  0.00    -0.050 A  
HETATM   16  C   UNL     1      -6.660  10.344  64.844  1.00  0.00    -0.060 A  
HETATM   17  C   UNL     1     -10.063   8.874  67.515  1.00  0.00    -0.227 C  
HETATM   18  O   UNL     1     -10.880   8.186  66.889  1.00  0.00    -0.250 OA 
HETATM   19  C   UNL     1      -5.633  10.358  65.784  1.00  0.00    -0.089 A  
HETATM   20  C   UNL     1      -9.573   8.399  68.923  1.00  0.00    -0.153 C  
BRANCH  14  21
HETATM   21  C   UNL     1     -10.748  10.865  66.234  1.00  0.00    -0.176 C  
BRANCH  21  22
HETATM   22  C   UNL     1     -10.730  12.410  66.459  1.00  0.00    -0.236 C  
BRANCH  22  23
HETATM   23  N   UNL     1     -10.700  12.899  67.863  1.00  0.00    -0.215 NA 
HETATM   24  C   UNL     1     -11.797  13.858  68.075  1.00  0.00    -0.375 C  
HETATM   25  C   UNL     1      -9.437  13.545  68.220  1.00  0.00    -0.212 C  
ENDBRANCH  22  23
ENDBRANCH  21  22
ENDBRANCH  14  21
BRANCH  20  26
HETATM   26  O   UNL     1     -10.317   9.120  69.926  1.00  0.00    -0.195 OA 
BRANCH  26  27
HETATM   27  C   UNL     1     -11.221   8.409  70.634  1.00  0.00    -0.255 C  
HETATM   28  C   UNL     1     -11.763   9.268  71.732  1.00  0.00    -0.456 C  
HETATM   29  O   UNL     1     -11.525   7.243  70.442  1.00  0.00    -0.284 OA 
ENDBRANCH  26  27
ENDBRANCH  20  26
ENDBRANCH   6   9
ENDBRANCH   2   3
TORSDOF 7
ENDMDL
MODEL       89
REMARK 921   NORMALIZED FREE ENERGY PREDICTED BY IDOCK:   -3.51 KCAL/MOL
REMARK 922        TOTAL FREE ENERGY PREDICTED BY IDOCK:   -6.06 KCAL/MOL
REMARK 923 INTER-LIGAND FREE ENERGY PREDICTED BY IDOCK:   -4.85 KCAL/MOL
REMARK 924 INTRA-LIGAND FREE ENERGY PREDICTED BY IDOCK:   -1.21 KCAL/MOL
REMARK 927      BINDING AFFINITY PREDICTED BY RF-SCORE:    0.00 PKD
ROOT
HETATM    1  C   UNL     1      -7.455  16.756  68.070  1.00  0.00    -0.167 C  
HETATM    2  O   UNL     1      -6.648  15.644  67.681  1.00  0.00    -0.144 OA 
ENDROOT
BRANCH   2   3
HETATM    3  C   UNL     1      -7.152  14.402  67.963  1.00  0.00    -0.138 A  
HETATM    4  C   UNL     1      -6.479  13.408  68.652  1.00  0.00    -0.091 A  
HETATM    5  C   UNL     1      -7.080  12.162  68.852  1.00  0.00    -0.098 A  
HETATM    6  C   UNL     1      -8.372  11.852  68.380  1.00  0.00    -0.157 A  
HETATM    7  C   UNL     1      -8.451  14.145  67.521  1.00  0.00    -0.194 A  
HETATM    8  C   UNL     1      -9.058  12.890  67.727  1.00  0.00    -0.197 A  
BRANCH   6   9
HETATM    9  C   UNL     1      -9.039  10.471  68.612  1.00  0.00    -0.158 C  
HETATM   10  S   UNL     1      -8.121   9.500  69.888  1.00  0.00    -0.175 SA 
HETATM   11  C   UNL     1      -9.524   8.629  70.479  1.00  0.00    -0.178 A  
HETATM   12  C   UNL     1     -10.129   7.606  69.729  1.00  0.00    -0.196 A  
HETATM   13  C   UNL     1     -11.244   6.976  70.274  1.00  0.00    -0.339 A  
HETATM   14  N   UNL     1      -9.633   7.291  68.408  1.00  0.00    -0.139 N  
HETATM   15  C   UNL     1     -10.043   9.038  71.719  1.00  0.00    -0.373 A  
HETATM   16  C   UNL     1     -11.772   7.397  71.513  1.00  0.00    -0.314 A  
HETATM   17  C   UNL     1      -9.952   8.231  67.406  1.00  0.00    -0.209 C  
HETATM   18  O   UNL     1     -10.721   7.921  66.487  1.00  0.00    -0.087 OA 
HETATM   19  C   UNL     1     -11.177   8.431  72.232  1.00  0.00    -0.446 A  
HETATM   20  C   UNL     1      -9.182   9.591  67.344  1.00  0.00    -0.133 C  
BRANCH  14  21
HETATM   21  C   UNL     1      -9.709   5.853  68.010  1.00  0.00    -0.119 C  
BRANCH  21  22
HETATM   22  C   UNL     1      -8.302   5.236  67.732  1.00  0.00    -0.098 C  
BRANCH  22  23
HETATM   23  N   UNL     1      -8.091   4.572  66.419  1.00  0.00    -0.103 NA 
HETATM   24  C   UNL     1      -7.058   3.531  66.554  1.00  0.00    -0.063 C  
HETATM   25  C   UNL     1      -7.683   5.501  65.364  1.00  0.00    -0.089 C  
ENDBRANCH  22  23
ENDBRANCH  21  22
ENDBRANCH  14  21
BRANCH  20  26
HETATM   26  O   UNL     1      -7.844   9.330  66.873  1.00  0.00    -0.097 OA 
BRANCH  26  27
HETATM   27  C   UNL     1      -7.512   9.863  65.676  1.00  0.00    -0.116 C  
HETATM   28  C   UNL     1      -6.050   9.649  65.440  1.00  0.00    -0.069 C  
HETATM   29  O   UNL     1      -8.264  10.457  64.922  1.00  0.00    -0.159 OA 
ENDBRANCH  26  27
ENDBRANCH  20  26
ENDBRANCH   6   9
ENDBRANCH   2   3
TORSDOF 7
ENDMDL
MODEL       90
REMARK 921   NORMALIZED FREE ENERGY PREDICTED BY IDOCK:   -3.48 KCAL/MOL
REMARK 922        TOTAL FREE ENERGY PREDICTED BY IDOCK:   -6.02 KCAL/MOL
REMARK 923 INTER-LIGAND FREE ENERGY PREDICTED BY IDOCK:   -4.63 KCAL/MOL
REMARK 924 INTRA-LIGAND FREE ENERGY PREDICTED BY IDOCK:   -1.39 KCAL/MOL
REMARK 927      BINDING AFFINITY PREDICTED BY RF-SCORE:    0.00 PKD
ROOT
HETATM    1  C   UNL     1     -11.124   4.140  73.683  1.00  0.00    -0.251 C  
HETATM    2  O   UNL     1     -11.600   5.331  73.054  1.00  0.00    -0.313 OA 
ENDROOT
BRANCH   2   3
HETATM    3  C   UNL     1     -11.176   5.550  71.772  1.00  0.00    -0.094 A  
HETATM    4  C   UNL     1     -11.754   6.439  70.883  1.00  0.00    -0.366 A  
HETATM    5  C   UNL     1     -11.257   6.554  69.581  1.00  0.00    -0.446 A  
HETATM    6  C   UNL     1     -10.166   5.796  69.110  1.00  0.00    -0.289 A  
HETATM    7  C   UNL     1     -10.065   4.815  71.352  1.00  0.00    -0.259 A  
HETATM    8  C   UNL     1      -9.561   4.935  70.041  1.00  0.00    -0.261 A  
BRANCH   6   9
HETATM    9  C   UNL     1      -9.611   5.933  67.668  1.00  0.00    -0.111 C  
HETATM   10  S   UNL     1      -8.198   4.776  67.391  1.00  0.00    -0.105 SA 
HETATM   11  C   UNL     1      -8.495   4.553  65.677  1.00  0.00    -0.116 A  
HETATM   12  C   UNL     1      -8.217   5.563  64.741  1.00  0.00    -0.133 A  
HETATM   13  C   UNL     1      -8.494   5.301  63.402  1.00  0.00    -0.092 A  
HETATM   14  N   UNL     1      -7.730   6.849  65.191  1.00  0.00    -0.102 N  
HETATM   15  C   UNL     1      -9.071   3.331  65.291  1.00  0.00    -0.147 A  
HETATM   16  C   UNL     1      -9.085   4.079  63.018  1.00  0.00    -0.116 A  
HETATM   17  C   UNL     1      -8.692   7.671  65.813  1.00  0.00    -0.125 C  
HETATM   18  O   UNL     1      -9.053   8.724  65.270  1.00  0.00    -0.186 OA 
HETATM   19  C   UNL     1      -9.380   3.098  63.961  1.00  0.00    -0.128 A  
HETATM   20  C   UNL     1      -9.151   7.361  67.276  1.00  0.00    -0.124 C  
BRANCH  14  21
HETATM   21  C   UNL     1      -6.766   7.536  64.279  1.00  0.00    -0.048 C  
BRANCH  21  22
HETATM   22  C   UNL     1      -5.694   8.361  65.058  1.00  0.00    -0.044 C  
BRANCH  22  23
HETATM   23  N   UNL     1      -5.578   9.809  64.739  1.00  0.00    -0.068 NA 
HETATM   24  C   UNL     1      -6.084  10.605  65.871  1.00  0.00    -0.138 C  
HETATM   25  C   UNL     1      -6.312  10.193  63.533  1.00  0.00    -0.138 C  
ENDBRANCH  22  23
ENDBRANCH  21  22
ENDBRANCH  14  21
BRANCH  20  26
HETATM   26  O   UNL     1      -8.072   7.703  68.169  1.00  0.00    -0.121 OA 
BRANCH  26  27
HETATM   27  C   UNL     1      -8.203   8.858  68.858  1.00  0.00    -0.117 C  
HETATM   28  C   UNL     1      -6.918   9.149  69.567  1.00  0.00    -0.051 C  
HETATM   29  O   UNL     1      -9.212   9.540  68.930  1.00  0.00    -0.140 OA 
ENDBRANCH  26  27
ENDBRANCH  20  26
ENDBRANCH   6   9
ENDBRANCH   2   3
TORSDOF 7
ENDMDL
MODEL       91
REMARK 921   NORMALIZED FREE ENERGY PREDICTED BY IDOCK:   -3.45 KCAL/MOL
REMARK 922        TOTAL FREE ENERGY PREDICTED BY IDOCK:   -5.97 KCAL/MOL
REMARK 923 INTER-LIGAND FREE ENERGY PREDICTED BY IDOCK:   -6.01 KCAL/MOL
REMARK 924 INTRA-LIGAND FREE ENERGY PREDICTED BY IDOCK:    0.04 KCAL/MOL
REMARK 927      BINDING AFFINITY PREDICTED BY RF-SCORE:    0.00 PKD
ROOT
HETATM    1  C   UNL     1     -12.342  15.133  64.238  1.00  0.00    -0.178 C  
HETATM    2  O   UNL     1     -12.975  14.180  65.092  1.00  0.00    -0.729 OA 
ENDROOT
BRANCH   2   3
HETATM    3  C   UNL     1     -12.166  13.214  65.626  1.00  0.00    -0.466 A  
HETATM    4  C   UNL     1     -11.856  12.010  65.019  1.00  0.00    -0.291 A  
HETATM    5  C   UNL     1     -11.045  11.079  65.676  1.00  0.00    -0.008 A  
HETATM    6  C   UNL     1     -10.506  11.307  66.959  1.00  0.00    -0.272 A  
HETATM    7  C   UNL     1     -11.612  13.491  66.878  1.00  0.00    -0.398 A  
HETATM    8  C   UNL     1     -10.791  12.555  67.538  1.00  0.00    -0.264 A  
BRANCH   6   9
HETATM    9  C   UNL     1      -9.599  10.277  67.681  1.00  0.00    -0.152 C  
HETATM   10  S   UNL     1      -9.829   8.585  66.975  1.00  0.00    -0.250 SA 
HETATM   11  C   UNL     1      -8.192   8.043  67.298  1.00  0.00    -0.122 A  
HETATM   12  C   UNL     1      -7.756   7.747  68.599  1.00  0.00    -0.118 A  
HETATM   13  C   UNL     1      -6.436   7.332  68.761  1.00  0.00    -0.040 A  
HETATM   14  N   UNL     1      -8.645   7.945  69.722  1.00  0.00    -0.132 N  
HETATM   15  C   UNL     1      -7.325   7.967  66.194  1.00  0.00    -0.074 A  
HETATM   16  C   UNL     1      -5.563   7.269  67.655  1.00  0.00    -0.029 A  
HETATM   17  C   UNL     1      -8.860   9.290  70.087  1.00  0.00    -0.213 C  
HETATM   18  O   UNL     1      -8.443   9.713  71.173  1.00  0.00    -0.204 OA 
HETATM   19  C   UNL     1      -6.004   7.593  66.374  1.00  0.00    -0.040 A  
HETATM   20  C   UNL     1      -9.798  10.191  69.216  1.00  0.00    -0.220 C  
BRANCH  14  21
HETATM   21  C   UNL     1      -8.502   6.972  70.846  1.00  0.00    -0.134 C  
BRANCH  21  22
HETATM   22  C   UNL     1      -7.136   7.115  71.588  1.00  0.00    -0.069 C  
BRANCH  22  23
HETATM   23  N   UNL     1      -7.114   6.831  73.048  1.00  0.00    -0.075 NA 
HETATM   24  C   UNL     1      -6.983   8.094  73.793  1.00  0.00    -0.130 C  
HETATM   25  C   UNL     1      -6.024   5.939  73.444  1.00  0.00    -0.052 C  
ENDBRANCH  22  23
ENDBRANCH  21  22
ENDBRANCH  14  21
BRANCH  20  26
HETATM   26  O   UNL     1     -11.158   9.766  69.431  1.00  0.00    -0.227 OA 
BRANCH  26  27
HETATM   27  C   UNL     1     -11.747  10.183  70.573  1.00  0.00    -0.322 C  
HETATM   28  C   UNL     1     -12.226  11.588  70.388  1.00  0.00    -0.442 C  
HETATM   29  O   UNL     1     -11.844   9.541  71.606  1.00  0.00    -0.366 OA 
ENDBRANCH  26  27
ENDBRANCH  20  26
ENDBRANCH   6   9
ENDBRANCH   2   3
TORSDOF 7
ENDMDL
MODEL       92
REMARK 921   NORMALIZED FREE ENERGY PREDICTED BY IDOCK:   -3.43 KCAL/MOL
REMARK 922        TOTAL FREE ENERGY PREDICTED BY IDOCK:   -5.95 KCAL/MOL
REMARK 923 INTER-LIGAND FREE ENERGY PREDICTED BY IDOCK:   -4.70 KCAL/MOL
REMARK 924 INTRA-LIGAND FREE ENERGY PREDICTED BY IDOCK:   -1.25 KCAL/MOL
REMARK 927      BINDING AFFINITY PREDICTED BY RF-SCORE:    0.00 PKD
ROOT
HETATM    1  C   UNL     1     -12.625  13.480  63.266  1.00  0.00     0.224 C  
HETATM    2  O   UNL     1     -12.826  12.448  64.232  1.00  0.00    -0.692 OA 
ENDROOT
BRANCH   2   3
HETATM    3  C   UNL     1     -11.798  12.234  65.111  1.00  0.00    -0.350 A  
HETATM    4  C   UNL     1     -10.545  11.756  64.769  1.00  0.00    -0.351 A  
HETATM    5  C   UNL     1      -9.581  11.540  65.758  1.00  0.00    -0.259 A  
HETATM    6  C   UNL     1      -9.819  11.793  67.125  1.00  0.00    -0.207 A  
HETATM    7  C   UNL     1     -12.053  12.537  66.450  1.00  0.00    -0.279 A  
HETATM    8  C   UNL     1     -11.079  12.325  67.446  1.00  0.00    -0.333 A  
BRANCH   6   9
HETATM    9  C   UNL     1      -8.744  11.562  68.219  1.00  0.00    -0.162 C  
HETATM   10  S   UNL     1      -7.043  11.706  67.514  1.00  0.00    -0.121 SA 
HETATM   11  C   UNL     1      -6.298  12.297  68.987  1.00  0.00    -0.088 A  
HETATM   12  C   UNL     1      -6.074  11.457  70.090  1.00  0.00    -0.154 A  
HETATM   13  C   UNL     1      -5.486  12.017  71.222  1.00  0.00     0.030 A  
HETATM   14  N   UNL     1      -6.517  10.082  70.052  1.00  0.00    -0.077 N  
HETATM   15  C   UNL     1      -5.980  13.666  69.027  1.00  0.00    -0.084 A  
HETATM   16  C   UNL     1      -5.180  13.393  71.266  1.00  0.00    -0.181 A  
HETATM   17  C   UNL     1      -7.909   9.895  70.176  1.00  0.00    -0.171 C  
HETATM   18  O   UNL     1      -8.374   9.339  71.180  1.00  0.00    -0.291 OA 
HETATM   19  C   UNL     1      -5.433  14.219  70.173  1.00  0.00    -0.107 A  
HETATM   20  C   UNL     1      -8.847  10.206  68.962  1.00  0.00    -0.166 C  
BRANCH  14  21
HETATM   21  C   UNL     1      -5.654   9.098  70.773  1.00  0.00    -0.036 C  
BRANCH  21  22
HETATM   22  C   UNL     1      -5.426   7.791  69.951  1.00  0.00    -0.023 C  
BRANCH  22  23
HETATM   23  N   UNL     1      -5.210   6.531  70.711  1.00  0.00    -0.018 NA 
HETATM   24  C   UNL     1      -6.121   5.489  70.208  1.00  0.00    -0.025 C  
HETATM   25  C   UNL     1      -5.424   6.685  72.151  1.00  0.00    -0.036 C  
ENDBRANCH  22  23
ENDBRANCH  21  22
ENDBRANCH  14  21
BRANCH  20  26
HETATM   26  O   UNL     1      -8.654   9.178  67.970  1.00  0.00    -0.124 OA 
BRANCH  26  27
HETATM   27  C   UNL     1      -9.433   8.080  68.080  1.00  0.00    -0.146 C  
HETATM   28  C   UNL     1     -10.637   8.250  67.208  1.00  0.00    -0.335 C  
HETATM   29  O   UNL     1      -9.220   7.118  68.799  1.00  0.00    -0.138 OA 
ENDBRANCH  26  27
ENDBRANCH  20  26
ENDBRANCH   6   9
ENDBRANCH   2   3
TORSDOF 7
ENDMDL
MODEL       93
REMARK 921   NORMALIZED FREE ENERGY PREDICTED BY IDOCK:   -3.41 KCAL/MOL
REMARK 922        TOTAL FREE ENERGY PREDICTED BY IDOCK:   -5.93 KCAL/MOL
REMARK 923 INTER-LIGAND FREE ENERGY PREDICTED BY IDOCK:   -4.84 KCAL/MOL
REMARK 924 INTRA-LIGAND FREE ENERGY PREDICTED BY IDOCK:   -1.08 KCAL/MOL
REMARK 927      BINDING AFFINITY PREDICTED BY RF-SCORE:    0.00 PKD
ROOT
HETATM    1  C   UNL     1     -13.208  12.319  71.750  1.00  0.00    -0.326 C  
HETATM    2  O   UNL     1     -13.498  10.952  72.045  1.00  0.00    -0.373 OA 
ENDROOT
BRANCH   2   3
HETATM    3  C   UNL     1     -12.687  10.020  71.456  1.00  0.00    -0.429 A  
HETATM    4  C   UNL     1     -12.957   8.665  71.378  1.00  0.00    -0.285 A  
HETATM    5  C   UNL     1     -12.036   7.798  70.782  1.00  0.00    -0.168 A  
HETATM    6  C   UNL     1     -10.813   8.240  70.237  1.00  0.00    -0.241 A  
HETATM    7  C   UNL     1     -11.505  10.499  70.886  1.00  0.00    -0.304 A  
HETATM    8  C   UNL     1     -10.579   9.625  70.281  1.00  0.00    -0.333 A  
BRANCH   6   9
HETATM    9  C   UNL     1      -9.798   7.277  69.568  1.00  0.00    -0.163 C  
HETATM   10  S   UNL     1     -10.620   6.245  68.276  1.00  0.00    -0.288 SA 
HETATM   11  C   UNL     1      -9.200   6.084  67.259  1.00  0.00    -0.114 A  
HETATM   12  C   UNL     1      -8.118   5.267  67.624  1.00  0.00    -0.100 A  
HETATM   13  C   UNL     1      -7.028   5.208  66.759  1.00  0.00    -0.064 A  
HETATM   14  N   UNL     1      -8.130   4.579  68.896  1.00  0.00    -0.077 N  
HETATM   15  C   UNL     1      -9.178   6.853  66.082  1.00  0.00    -0.118 A  
HETATM   16  C   UNL     1      -7.001   5.991  65.585  1.00  0.00    -0.061 A  
HETATM   17  C   UNL     1      -7.909   5.397  70.023  1.00  0.00    -0.081 C  
HETATM   18  O   UNL     1      -6.877   5.265  70.694  1.00  0.00    -0.047 OA 
HETATM   19  C   UNL     1      -8.071   6.817  65.250  1.00  0.00    -0.130 A  
HETATM   20  C   UNL     1      -9.053   6.329  70.544  1.00  0.00    -0.154 C  
BRANCH  14  21
HETATM   21  C   UNL     1      -7.474   3.237  68.918  1.00  0.00    -0.049 C  
BRANCH  21  22
HETATM   22  C   UNL     1      -8.411   2.108  68.382  1.00  0.00    -0.058 C  
BRANCH  22  23
HETATM   23  N   UNL     1      -8.087   1.521  67.055  1.00  0.00    -0.069 NA 
HETATM   24  C   UNL     1      -6.673   1.779  66.734  1.00  0.00    -0.038 C  
HETATM   25  C   UNL     1      -8.916   2.052  65.973  1.00  0.00    -0.099 C  
ENDBRANCH  22  23
ENDBRANCH  21  22
ENDBRANCH  14  21
BRANCH  20  26
HETATM   26  O   UNL     1     -10.060   5.504  71.162  1.00  0.00    -0.189 OA 
BRANCH  26  27
HETATM   27  C   UNL     1      -9.824   5.116  72.435  1.00  0.00    -0.167 C  
HETATM   28  C   UNL     1      -9.922   6.309  73.332  1.00  0.00    -0.194 C  
HETATM   29  O   UNL     1      -9.537   3.987  72.799  1.00  0.00    -0.125 OA 
ENDBRANCH  26  27
ENDBRANCH  20  26
ENDBRANCH   6   9
ENDBRANCH   2   3
TORSDOF 7
ENDMDL
MODEL       94
REMARK 921   NORMALIZED FREE ENERGY PREDICTED BY IDOCK:   -3.38 KCAL/MOL
REMARK 922        TOTAL FREE ENERGY PREDICTED BY IDOCK:   -5.88 KCAL/MOL
REMARK 923 INTER-LIGAND FREE ENERGY PREDICTED BY IDOCK:   -5.74 KCAL/MOL
REMARK 924 INTRA-LIGAND FREE ENERGY PREDICTED BY IDOCK:   -0.14 KCAL/MOL
REMARK 927      BINDING AFFINITY PREDICTED BY RF-SCORE:    0.00 PKD
ROOT
HETATM    1  C   UNL     1      -9.792  18.938  66.532  1.00  0.00    -0.368 C  
HETATM    2  O   UNL     1      -9.425  18.175  67.681  1.00  0.00    -0.260 OA 
ENDROOT
BRANCH   2   3
HETATM    3  C   UNL     1      -9.360  16.818  67.511  1.00  0.00    -0.231 A  
HETATM    4  C   UNL     1      -9.900  16.123  66.442  1.00  0.00    -0.304 A  
HETATM    5  C   UNL     1      -9.805  14.729  66.391  1.00  0.00    -0.297 A  
HETATM    6  C   UNL     1      -9.169  13.969  67.393  1.00  0.00    -0.216 A  
HETATM    7  C   UNL     1      -8.684  16.100  68.499  1.00  0.00    -0.200 A  
HETATM    8  C   UNL     1      -8.583  14.696  68.444  1.00  0.00    -0.169 A  
BRANCH   6   9
HETATM    9  C   UNL     1      -9.056  12.423  67.328  1.00  0.00    -0.187 C  
HETATM   10  S   UNL     1      -9.862  11.767  65.801  1.00  0.00    -0.243 SA 
HETATM   11  C   UNL     1      -8.804  10.378  65.635  1.00  0.00    -0.173 A  
HETATM   12  C   UNL     1      -8.894   9.273  66.497  1.00  0.00    -0.133 A  
HETATM   13  C   UNL     1      -8.006   8.220  66.296  1.00  0.00    -0.100 A  
HETATM   14  N   UNL     1      -9.837   9.288  67.593  1.00  0.00    -0.167 N  
HETATM   15  C   UNL     1      -7.828  10.447  64.626  1.00  0.00    -0.077 A  
HETATM   16  C   UNL     1      -7.018   8.296  65.291  1.00  0.00    -0.066 A  
HETATM   17  C   UNL     1      -9.486  10.120  68.676  1.00  0.00    -0.164 C  
HETATM   18  O   UNL     1      -9.204   9.624  69.775  1.00  0.00    -0.188 OA 
HETATM   19  C   UNL     1      -6.924   9.411  64.462  1.00  0.00    -0.097 A  
HETATM   20  C   UNL     1      -9.646  11.671  68.548  1.00  0.00    -0.178 C  
BRANCH  14  21
HETATM   21  C   UNL     1     -10.448   7.971  67.946  1.00  0.00    -0.197 C  
BRANCH  21  22
HETATM   22  C   UNL     1      -9.463   7.049  68.731  1.00  0.00    -0.136 C  
BRANCH  22  23
HETATM   23  N   UNL     1      -9.727   5.585  68.706  1.00  0.00    -0.135 NA 
HETATM   24  C   UNL     1     -10.553   5.253  67.533  1.00  0.00    -0.073 C  
HETATM   25  C   UNL     1     -10.407   5.103  69.909  1.00  0.00    -0.277 C  
ENDBRANCH  22  23
ENDBRANCH  21  22
ENDBRANCH  14  21
BRANCH  20  26
HETATM   26  O   UNL     1     -11.054  11.983  68.580  1.00  0.00    -0.218 OA 
BRANCH  26  27
HETATM   27  C   UNL     1     -11.558  12.374  69.772  1.00  0.00    -0.232 C  
HETATM   28  C   UNL     1     -11.621  13.868  69.805  1.00  0.00    -0.335 C  
HETATM   29  O   UNL     1     -11.875  11.638  70.692  1.00  0.00    -0.321 OA 
ENDBRANCH  26  27
ENDBRANCH  20  26
ENDBRANCH   6   9
ENDBRANCH   2   3
TORSDOF 7
ENDMDL
MODEL       95
REMARK 921   NORMALIZED FREE ENERGY PREDICTED BY IDOCK:   -3.35 KCAL/MOL
REMARK 922        TOTAL FREE ENERGY PREDICTED BY IDOCK:   -5.83 KCAL/MOL
REMARK 923 INTER-LIGAND FREE ENERGY PREDICTED BY IDOCK:   -5.84 KCAL/MOL
REMARK 924 INTRA-LIGAND FREE ENERGY PREDICTED BY IDOCK:    0.00 KCAL/MOL
REMARK 927      BINDING AFFINITY PREDICTED BY RF-SCORE:    0.00 PKD
ROOT
HETATM    1  C   UNL     1     -10.748  17.758  65.159  1.00  0.00     0.405 C  
HETATM    2  O   UNL     1     -11.213  16.708  64.311  1.00  0.00    -1.098 OA 
ENDROOT
BRANCH   2   3
HETATM    3  C   UNL     1     -11.043  15.433  64.777  1.00  0.00    -0.403 A  
HETATM    4  C   UNL     1     -11.633  14.303  64.237  1.00  0.00    -0.299 A  
HETATM    5  C   UNL     1     -11.415  13.051  64.820  1.00  0.00    -0.363 A  
HETATM    6  C   UNL     1     -10.603  12.868  65.958  1.00  0.00    -0.287 A  
HETATM    7  C   UNL     1     -10.197  15.282  65.877  1.00  0.00    -0.353 A  
HETATM    8  C   UNL     1      -9.974  14.019  66.461  1.00  0.00    -0.289 A  
BRANCH   6   9
HETATM    9  C   UNL     1     -10.357  11.476  66.596  1.00  0.00    -0.226 C  
HETATM   10  S   UNL     1      -9.304  11.619  68.107  1.00  0.00    -0.191 SA 
HETATM   11  C   UNL     1     -10.003  10.238  68.932  1.00  0.00    -0.201 A  
HETATM   12  C   UNL     1      -9.734   8.921  68.527  1.00  0.00    -0.161 A  
HETATM   13  C   UNL     1     -10.341   7.888  69.236  1.00  0.00    -0.222 A  
HETATM   14  N   UNL     1      -8.909   8.678  67.364  1.00  0.00    -0.133 N  
HETATM   15  C   UNL     1     -10.886  10.518  69.990  1.00  0.00    -0.320 A  
HETATM   16  C   UNL     1     -11.237   8.169  70.288  1.00  0.00    -0.182 A  
HETATM   17  C   UNL     1      -9.526   8.947  66.124  1.00  0.00    -0.251 C  
HETATM   18  O   UNL     1      -9.774   8.022  65.340  1.00  0.00     0.495 OA 
HETATM   19  C   UNL     1     -11.515   9.482  70.661  1.00  0.00    -0.362 A  
HETATM   20  C   UNL     1      -9.711  10.428  65.653  1.00  0.00    -0.236 C  
BRANCH  14  21
HETATM   21  C   UNL     1      -8.046   7.460  67.420  1.00  0.00    -0.113 C  
BRANCH  21  22
HETATM   22  C   UNL     1      -8.494   6.365  66.401  1.00  0.00    -0.123 C  
BRANCH  22  23
HETATM   23  N   UNL     1      -9.198   5.172  66.941  1.00  0.00    -0.116 NA 
HETATM   24  C   UNL     1      -8.517   3.949  66.483  1.00  0.00    -0.105 C  
HETATM   25  C   UNL     1     -10.604   5.103  66.541  1.00  0.00    -0.260 C  
ENDBRANCH  22  23
ENDBRANCH  21  22
ENDBRANCH  14  21
BRANCH  20  26
HETATM   26  O   UNL     1      -8.418  10.949  65.286  1.00  0.00    -0.151 OA 
BRANCH  26  27
HETATM   27  C   UNL     1      -7.958  10.611  64.061  1.00  0.00     0.100 C  
HETATM   28  C   UNL     1      -9.011  10.919  63.045  1.00  0.00    -0.261 C  
HETATM   29  O   UNL     1      -6.877  10.101  63.817  1.00  0.00    -0.131 OA 
ENDBRANCH  26  27
ENDBRANCH  20  26
ENDBRANCH   6   9
ENDBRANCH   2   3
TORSDOF 7
ENDMDL
MODEL       96
REMARK 921   NORMALIZED FREE ENERGY PREDICTED BY IDOCK:   -3.32 KCAL/MOL
REMARK 922        TOTAL FREE ENERGY PREDICTED BY IDOCK:   -5.79 KCAL/MOL
REMARK 923 INTER-LIGAND FREE ENERGY PREDICTED BY IDOCK:   -4.48 KCAL/MOL
REMARK 924 INTRA-LIGAND FREE ENERGY PREDICTED BY IDOCK:   -1.30 KCAL/MOL
REMARK 927      BINDING AFFINITY PREDICTED BY RF-SCORE:    0.00 PKD
ROOT
HETATM    1  C   UNL     1      -8.054  15.779  69.204  1.00  0.00    -0.237 C  
HETATM    2  O   UNL     1      -9.175  15.252  68.494  1.00  0.00    -0.186 OA 
ENDROOT
BRANCH   2   3
HETATM    3  C   UNL     1      -9.039  13.980  68.007  1.00  0.00    -0.190 A  
HETATM    4  C   UNL     1      -9.977  13.320  67.232  1.00  0.00    -0.231 A  
HETATM    5  C   UNL     1      -9.747  12.004  66.820  1.00  0.00    -0.218 A  
HETATM    6  C   UNL     1      -8.577  11.292  67.155  1.00  0.00    -0.147 A  
HETATM    7  C   UNL     1      -7.849  13.320  68.320  1.00  0.00    -0.143 A  
HETATM    8  C   UNL     1      -7.615  11.995  67.900  1.00  0.00    -0.124 A  
BRANCH   6   9
HETATM    9  C   UNL     1      -8.321   9.835  66.688  1.00  0.00    -0.124 C  
HETATM   10  S   UNL     1      -9.373   9.415  65.229  1.00  0.00    -0.198 SA 
HETATM   11  C   UNL     1      -8.239   8.279  64.523  1.00  0.00    -0.135 A  
HETATM   12  C   UNL     1      -8.019   7.010  65.084  1.00  0.00    -0.128 A  
HETATM   13  C   UNL     1      -7.092   6.178  64.461  1.00  0.00    -0.057 A  
HETATM   14  N   UNL     1      -8.690   6.636  66.309  1.00  0.00    -0.141 N  
HETATM   15  C   UNL     1      -7.525   8.719  63.395  1.00  0.00    -0.107 A  
HETATM   16  C   UNL     1      -6.366   6.626  63.338  1.00  0.00    -0.041 A  
HETATM   17  C   UNL     1      -8.195   7.253  67.477  1.00  0.00    -0.113 C  
HETATM   18  O   UNL     1      -7.626   6.576  68.343  1.00  0.00    -0.099 OA 
HETATM   19  C   UNL     1      -6.577   7.898  62.809  1.00  0.00    -0.084 A  
HETATM   20  C   UNL     1      -8.542   8.750  67.772  1.00  0.00    -0.129 C  
BRANCH  14  21
HETATM   21  C   UNL     1      -9.065   5.196  66.434  1.00  0.00    -0.131 C  
BRANCH  21  22
HETATM   22  C   UNL     1     -10.263   4.810  65.509  1.00  0.00    -0.135 C  
BRANCH  22  23
HETATM   23  N   UNL     1     -10.133   3.568  64.701  1.00  0.00    -0.155 NA 
HETATM   24  C   UNL     1      -8.827   2.942  64.966  1.00  0.00    -0.127 C  
HETATM   25  C   UNL     1     -10.256   3.803  63.262  1.00  0.00    -0.193 C  
ENDBRANCH  22  23
ENDBRANCH  21  22
ENDBRANCH  14  21
BRANCH  20  26
HETATM   26  O   UNL     1      -9.932   8.825  68.149  1.00  0.00    -0.160 OA 
BRANCH  26  27
HETATM   27  C   UNL     1     -10.205   8.712  69.468  1.00  0.00    -0.209 C  
HETATM   28  C   UNL     1      -9.173   9.467  70.244  1.00  0.00    -0.303 C  
HETATM   29  O   UNL     1     -11.119   8.070  69.958  1.00  0.00    -0.238 OA 
ENDBRANCH  26  27
ENDBRANCH  20  26
ENDBRANCH   6   9
ENDBRANCH   2   3
TORSDOF 7
ENDMDL
MODEL       97
REMARK 921   NORMALIZED FREE ENERGY PREDICTED BY IDOCK:   -3.32 KCAL/MOL
REMARK 922        TOTAL FREE ENERGY PREDICTED BY IDOCK:   -5.79 KCAL/MOL
REMARK 923 INTER-LIGAND FREE ENERGY PREDICTED BY IDOCK:   -5.22 KCAL/MOL
REMARK 924 INTRA-LIGAND FREE ENERGY PREDICTED BY IDOCK:   -0.57 KCAL/MOL
REMARK 927      BINDING AFFINITY PREDICTED BY RF-SCORE:    0.00 PKD
ROOT
HETATM    1  C   UNL     1      -5.400   3.631  67.240  1.00  0.00    -0.012 C  
HETATM    2  O   UNL     1      -5.212   4.887  66.587  1.00  0.00    -0.008 OA 
ENDROOT
BRANCH   2   3
HETATM    3  C   UNL     1      -6.024   5.910  66.997  1.00  0.00    -0.018 A  
HETATM    4  C   UNL     1      -5.615   7.001  67.743  1.00  0.00    -0.017 A  
HETATM    5  C   UNL     1      -6.542   7.970  68.137  1.00  0.00    -0.056 A  
HETATM    6  C   UNL     1      -7.910   7.899  67.804  1.00  0.00    -0.123 A  
HETATM    7  C   UNL     1      -7.364   5.830  66.611  1.00  0.00    -0.082 A  
HETATM    8  C   UNL     1      -8.297   6.811  67.004  1.00  0.00    -0.114 A  
BRANCH   6   9
HETATM    9  C   UNL     1      -8.935   8.981  68.235  1.00  0.00    -0.133 C  
HETATM   10  S   UNL     1     -10.661   8.331  68.140  1.00  0.00    -0.048 SA 
HETATM   11  C   UNL     1     -11.287   9.323  69.444  1.00  0.00     0.157 A  
HETATM   12  C   UNL     1     -11.498  10.702  69.287  1.00  0.00    -0.281 A  
HETATM   13  C   UNL     1     -11.989  11.411  70.380  1.00  0.00    -0.465 A  
HETATM   14  N   UNL     1     -11.139  11.351  68.046  1.00  0.00    -0.236 N  
HETATM   15  C   UNL     1     -11.522   8.676  70.669  1.00  0.00    -0.256 A  
HETATM   16  C   UNL     1     -12.212  10.764  71.614  1.00  0.00    -0.184 A  
HETATM   17  C   UNL     1      -9.755  11.526  67.839  1.00  0.00    -0.183 C  
HETATM   18  O   UNL     1      -9.268  12.665  67.824  1.00  0.00    -0.180 OA 
HETATM   19  C   UNL     1     -11.972   9.400  71.761  1.00  0.00    -0.452 A  
HETATM   20  C   UNL     1      -8.869  10.303  67.428  1.00  0.00    -0.131 C  
BRANCH  14  21
HETATM   21  C   UNL     1     -12.016  12.484  67.624  1.00  0.00    -0.221 C  
BRANCH  21  22
HETATM   22  C   UNL     1     -11.534  13.149  66.296  1.00  0.00    -0.334 C  
BRANCH  22  23
HETATM   23  N   UNL     1     -12.551  13.381  65.236  1.00  0.00    -0.567 NA 
HETATM   24  C   UNL     1     -12.589  12.223  64.328  1.00  0.00    -0.372 C  
HETATM   25  C   UNL     1     -12.295  14.586  64.447  1.00  0.00    -0.413 C  
ENDBRANCH  22  23
ENDBRANCH  21  22
ENDBRANCH  14  21
BRANCH  20  26
HETATM   26  O   UNL     1      -9.176   9.964  66.060  1.00  0.00    -0.153 OA 
BRANCH  26  27
HETATM   27  C   UNL     1      -8.249  10.294  65.135  1.00  0.00    -0.161 C  
HETATM   28  C   UNL     1      -8.929  10.972  63.988  1.00  0.00    -0.050 C  
HETATM   29  O   UNL     1      -7.056  10.050  65.196  1.00  0.00    -0.123 OA 
ENDBRANCH  26  27
ENDBRANCH  20  26
ENDBRANCH   6   9
ENDBRANCH   2   3
TORSDOF 7
ENDMDL
MODEL       98
REMARK 921   NORMALIZED FREE ENERGY PREDICTED BY IDOCK:   -3.28 KCAL/MOL
REMARK 922        TOTAL FREE ENERGY PREDICTED BY IDOCK:   -5.74 KCAL/MOL
REMARK 923 INTER-LIGAND FREE ENERGY PREDICTED BY IDOCK:   -4.48 KCAL/MOL
REMARK 924 INTRA-LIGAND FREE ENERGY PREDICTED BY IDOCK:   -1.26 KCAL/MOL
REMARK 927      BINDING AFFINITY PREDICTED BY RF-SCORE:    0.00 PKD
ROOT
HETATM    1  C   UNL     1     -11.803  14.526  65.376  1.00  0.00    -0.344 C  
HETATM    2  O   UNL     1     -11.458  14.041  66.674  1.00  0.00    -0.335 OA 
ENDROOT
BRANCH   2   3
HETATM    3  C   UNL     1     -10.625  12.956  66.714  1.00  0.00    -0.257 A  
HETATM    4  C   UNL     1      -9.246  13.014  66.816  1.00  0.00    -0.229 A  
HETATM    5  C   UNL     1      -8.491  11.838  66.810  1.00  0.00    -0.177 A  
HETATM    6  C   UNL     1      -9.072  10.557  66.707  1.00  0.00    -0.167 A  
HETATM    7  C   UNL     1     -11.237  11.702  66.655  1.00  0.00    -0.362 A  
HETATM    8  C   UNL     1     -10.476  10.516  66.655  1.00  0.00    -0.290 A  
BRANCH   6   9
HETATM    9  C   UNL     1      -8.232   9.253  66.711  1.00  0.00    -0.115 C  
HETATM   10  S   UNL     1      -9.265   7.800  66.230  1.00  0.00    -0.134 SA 
HETATM   11  C   UNL     1      -7.955   6.897  65.494  1.00  0.00    -0.126 A  
HETATM   12  C   UNL     1      -6.954   6.285  66.266  1.00  0.00    -0.066 A  
HETATM   13  C   UNL     1      -5.947   5.597  65.595  1.00  0.00    -0.025 A  
HETATM   14  N   UNL     1      -6.953   6.444  67.703  1.00  0.00    -0.076 N  
HETATM   15  C   UNL     1      -7.929   6.856  64.089  1.00  0.00    -0.078 A  
HETATM   16  C   UNL     1      -5.914   5.568  64.185  1.00  0.00    -0.021 A  
HETATM   17  C   UNL     1      -6.552   7.715  68.167  1.00  0.00    -0.054 C  
HETATM   18  O   UNL     1      -5.496   7.840  68.801  1.00  0.00    -0.025 OA 
HETATM   19  C   UNL     1      -6.900   6.202  63.432  1.00  0.00    -0.044 A  
HETATM   20  C   UNL     1      -7.535   8.927  68.057  1.00  0.00    -0.092 C  
BRANCH  14  21
HETATM   21  C   UNL     1      -6.462   5.272  68.489  1.00  0.00    -0.040 C  
BRANCH  21  22
HETATM   22  C   UNL     1      -7.605   4.573  69.292  1.00  0.00    -0.055 C  
BRANCH  22  23
HETATM   23  N   UNL     1      -9.005   4.850  68.874  1.00  0.00    -0.103 NA 
HETATM   24  C   UNL     1      -9.920   4.548  69.988  1.00  0.00    -0.210 C  
HETATM   25  C   UNL     1      -9.420   4.074  67.704  1.00  0.00    -0.183 C  
ENDBRANCH  22  23
ENDBRANCH  21  22
ENDBRANCH  14  21
BRANCH  20  26
HETATM   26  O   UNL     1      -8.585   8.746  69.029  1.00  0.00    -0.129 OA 
BRANCH  26  27
HETATM   27  C   UNL     1      -8.389   9.312  70.240  1.00  0.00    -0.186 C  
HETATM   28  C   UNL     1      -9.329   8.690  71.224  1.00  0.00    -0.288 C  
HETATM   29  O   UNL     1      -7.604  10.210  70.494  1.00  0.00    -0.269 OA 
ENDBRANCH  26  27
ENDBRANCH  20  26
ENDBRANCH   6   9
ENDBRANCH   2   3
TORSDOF 7
ENDMDL
MODEL       99
REMARK 921   NORMALIZED FREE ENERGY PREDICTED BY IDOCK:   -3.24 KCAL/MOL
REMARK 922        TOTAL FREE ENERGY PREDICTED BY IDOCK:   -5.68 KCAL/MOL
REMARK 923 INTER-LIGAND FREE ENERGY PREDICTED BY IDOCK:   -6.61 KCAL/MOL
REMARK 924 INTRA-LIGAND FREE ENERGY PREDICTED BY IDOCK:    0.92 KCAL/MOL
REMARK 927      BINDING AFFINITY PREDICTED BY RF-SCORE:    0.00 PKD
ROOT
HETATM    1  C   UNL     1     -14.407  15.176  71.737  1.00  0.00    -0.597 C  
HETATM    2  O   UNL     1     -14.295  13.909  72.386  1.00  0.00    -0.647 OA 
ENDROOT
BRANCH   2   3
HETATM    3  C   UNL     1     -13.470  12.995  71.788  1.00  0.00    -0.314 A  
HETATM    4  C   UNL     1     -13.340  11.671  72.171  1.00  0.00    -0.310 A  
HETATM    5  C   UNL     1     -12.436  10.834  71.509  1.00  0.00    -0.447 A  
HETATM    6  C   UNL     1     -11.629  11.275  70.440  1.00  0.00    -0.319 A  
HETATM    7  C   UNL     1     -12.719  13.453  70.704  1.00  0.00    -0.246 A  
HETATM    8  C   UNL     1     -11.812  12.607  70.033  1.00  0.00    -0.358 A  
BRANCH   6   9
HETATM    9  C   UNL     1     -10.635  10.341  69.701  1.00  0.00    -0.256 C  
HETATM   10  S   UNL     1     -11.110  10.141  67.928  1.00  0.00    -0.155 SA 
HETATM   11  C   UNL     1      -9.474   9.911  67.339  1.00  0.00    -0.149 A  
HETATM   12  C   UNL     1      -8.764   8.722  67.574  1.00  0.00    -0.134 A  
HETATM   13  C   UNL     1      -7.467   8.632  67.078  1.00  0.00    -0.084 A  
HETATM   14  N   UNL     1      -9.359   7.673  68.373  1.00  0.00    -0.146 N  
HETATM   15  C   UNL     1      -8.890  10.995  66.661  1.00  0.00    -0.168 A  
HETATM   16  C   UNL     1      -6.877   9.726  66.409  1.00  0.00    -0.088 A  
HETATM   17  C   UNL     1      -9.413   7.930  69.758  1.00  0.00    -0.163 C  
HETATM   18  O   UNL     1      -8.734   7.254  70.543  1.00  0.00    -0.145 OA 
HETATM   19  C   UNL     1      -7.585  10.908  66.207  1.00  0.00    -0.136 A  
HETATM   20  C   UNL     1     -10.477   8.929  70.322  1.00  0.00    -0.210 C  
BRANCH  14  21
HETATM   21  C   UNL     1      -9.011   6.275  67.976  1.00  0.00    -0.114 C  
BRANCH  21  22
HETATM   22  C   UNL     1      -7.549   5.891  68.366  1.00  0.00    -0.090 C  
BRANCH  22  23
HETATM   23  N   UNL     1      -7.296   4.485  68.778  1.00  0.00    -0.056 NA 
HETATM   24  C   UNL     1      -8.544   3.887  69.281  1.00  0.00    -0.078 C  
HETATM   25  C   UNL     1      -6.269   4.366  69.814  1.00  0.00    -0.027 C  
ENDBRANCH  22  23
ENDBRANCH  21  22
ENDBRANCH  14  21
BRANCH  20  26
HETATM   26  O   UNL     1     -11.772   8.300  70.244  1.00  0.00    -0.085 OA 
BRANCH  26  27
HETATM   27  C   UNL     1     -12.175   7.612  71.334  1.00  0.00    -0.326 C  
HETATM   28  C   UNL     1     -11.310   7.991  72.494  1.00  0.00    -0.469 C  
HETATM   29  O   UNL     1     -13.072   6.785  71.370  1.00  0.00    -0.289 OA 
ENDBRANCH  26  27
ENDBRANCH  20  26
ENDBRANCH   6   9
ENDBRANCH   2   3
TORSDOF 7
ENDMDL
MODEL      100
REMARK 921   NORMALIZED FREE ENERGY PREDICTED BY IDOCK:   -3.24 KCAL/MOL
REMARK 922        TOTAL FREE ENERGY PREDICTED BY IDOCK:   -5.68 KCAL/MOL
REMARK 923 INTER-LIGAND FREE ENERGY PREDICTED BY IDOCK:   -4.99 KCAL/MOL
REMARK 924 INTRA-LIGAND FREE ENERGY PREDICTED BY IDOCK:   -0.70 KCAL/MOL
REMARK 927      BINDING AFFINITY PREDICTED BY RF-SCORE:    0.00 PKD
ROOT
HETATM    1  C   UNL     1      -8.690   2.903  66.428  1.00  0.00    -0.134 C  
HETATM    2  O   UNL     1      -7.921   3.713  67.318  1.00  0.00    -0.082 OA 
ENDROOT
BRANCH   2   3
HETATM    3  C   UNL     1      -8.283   5.030  67.403  1.00  0.00    -0.106 A  
HETATM    4  C   UNL     1      -9.197   5.659  66.575  1.00  0.00    -0.149 A  
HETATM    5  C   UNL     1      -9.463   7.023  66.731  1.00  0.00    -0.205 A  
HETATM    6  C   UNL     1      -8.838   7.816  67.715  1.00  0.00    -0.126 A  
HETATM    7  C   UNL     1      -7.679   5.776  68.417  1.00  0.00    -0.096 A  
HETATM    8  C   UNL     1      -7.952   7.149  68.577  1.00  0.00    -0.124 A  
BRANCH   6   9
HETATM    9  C   UNL     1      -9.144   9.326  67.891  1.00  0.00    -0.127 C  
HETATM   10  S   UNL     1     -10.763   9.767  67.121  1.00  0.00    -0.142 SA 
HETATM   11  C   UNL     1     -11.133  11.069  68.237  1.00  0.00    -0.257 A  
HETATM   12  C   UNL     1     -10.456  12.298  68.188  1.00  0.00    -0.217 A  
HETATM   13  C   UNL     1     -10.810  13.271  69.120  1.00  0.00    -0.148 A  
HETATM   14  N   UNL     1      -9.382  12.493  67.240  1.00  0.00    -0.184 N  
HETATM   15  C   UNL     1     -12.108  10.803  69.213  1.00  0.00    -0.278 A  
HETATM   16  C   UNL     1     -11.778  12.998  70.108  1.00  0.00    -0.244 A  
HETATM   17  C   UNL     1      -8.178  11.828  67.551  1.00  0.00    -0.152 C  
HETATM   18  O   UNL     1      -7.167  12.479  67.848  1.00  0.00    -0.091 OA 
HETATM   19  C   UNL     1     -12.422  11.764  70.160  1.00  0.00    -0.182 A  
HETATM   20  C   UNL     1      -8.063  10.284  67.327  1.00  0.00    -0.120 C  
BRANCH  14  21
HETATM   21  C   UNL     1      -9.246  13.873  66.682  1.00  0.00    -0.236 C  
BRANCH  21  22
HETATM   22  C   UNL     1     -10.608  14.448  66.180  1.00  0.00    -0.298 C  
BRANCH  22  23
HETATM   23  N   UNL     1     -10.846  14.467  64.712  1.00  0.00    -0.407 NA 
HETATM   24  C   UNL     1     -11.555  15.704  64.344  1.00  0.00    -0.249 C  
HETATM   25  C   UNL     1     -11.627  13.322  64.241  1.00  0.00    -0.400 C  
ENDBRANCH  22  23
ENDBRANCH  21  22
ENDBRANCH  14  21
BRANCH  20  26
HETATM   26  O   UNL     1      -7.998  10.038  65.908  1.00  0.00    -0.115 OA 
BRANCH  26  27
HETATM   27  C   UNL     1      -6.840   9.525  65.437  1.00  0.00    -0.086 C  
HETATM   28  C   UNL     1      -6.045  10.622  64.804  1.00  0.00     0.019 C  
HETATM   29  O   UNL     1      -6.505   8.353  65.481  1.00  0.00    -0.048 OA 
ENDBRANCH  26  27
ENDBRANCH  20  26
ENDBRANCH   6   9
ENDBRANCH   2   3
TORSDOF 7
ENDMDL
MODEL      101
REMARK 921   NORMALIZED FREE ENERGY PREDICTED BY IDOCK:   -2.96 KCAL/MOL
REMARK 922        TOTAL FREE ENERGY PREDICTED BY IDOCK:   -5.28 KCAL/MOL
REMARK 923 INTER-LIGAND FREE ENERGY PREDICTED BY IDOCK:   -5.46 KCAL/MOL
REMARK 924 INTRA-LIGAND FREE ENERGY PREDICTED BY IDOCK:    0.18 KCAL/MOL
REMARK 927      BINDING AFFINITY PREDICTED BY RF-SCORE:    0.00 PKD
ROOT
HETATM    1  C   UNL     1     -10.612  12.073  63.747  1.00  0.00    -0.430 C  
HETATM    2  O   UNL     1      -9.809  10.917  63.988  1.00  0.00    -0.264 OA 
ENDROOT
BRANCH   2   3
HETATM    3  C   UNL     1      -9.675  10.535  65.296  1.00  0.00    -0.270 A  
HETATM    4  C   UNL     1     -10.454  10.995  66.343  1.00  0.00    -0.312 A  
HETATM    5  C   UNL     1     -10.203  10.561  67.649  1.00  0.00    -0.234 A  
HETATM    6  C   UNL     1      -9.173   9.652  67.967  1.00  0.00    -0.132 A  
HETATM    7  C   UNL     1      -8.675   9.600  65.569  1.00  0.00    -0.176 A  
HETATM    8  C   UNL     1      -8.426   9.158  66.884  1.00  0.00    -0.124 A  
BRANCH   6   9
HETATM    9  C   UNL     1      -8.904   9.166  69.415  1.00  0.00    -0.146 C  
HETATM   10  S   UNL     1      -7.628   7.830  69.436  1.00  0.00    -0.103 SA 
HETATM   11  C   UNL     1      -6.996   8.226  71.024  1.00  0.00    -0.054 A  
HETATM   12  C   UNL     1      -7.715   7.944  72.197  1.00  0.00    -0.101 A  
HETATM   13  C   UNL     1      -7.138   8.303  73.412  1.00  0.00    -0.154 A  
HETATM   14  N   UNL     1      -9.039   7.370  72.111  1.00  0.00    -0.131 N  
HETATM   15  C   UNL     1      -5.753   8.882  71.061  1.00  0.00    -0.039 A  
HETATM   16  C   UNL     1      -5.898   8.974  73.447  1.00  0.00    -0.037 A  
HETATM   17  C   UNL     1     -10.052   8.255  71.687  1.00  0.00    -0.215 C  
HETATM   18  O   UNL     1     -10.951   8.590  72.469  1.00  0.00    -0.353 OA 
HETATM   19  C   UNL     1      -5.209   9.270  72.273  1.00  0.00    -0.075 A  
HETATM   20  C   UNL     1     -10.153   8.654  70.177  1.00  0.00    -0.185 C  
BRANCH  14  21
HETATM   21  C   UNL     1      -9.410   6.421  73.203  1.00  0.00    -0.134 C  
BRANCH  21  22
HETATM   22  C   UNL     1      -8.606   5.084  73.129  1.00  0.00    -0.110 C  
BRANCH  22  23
HETATM   23  N   UNL     1      -9.316   3.834  73.510  1.00  0.00    -0.100 NA 
HETATM   24  C   UNL     1      -8.973   2.764  72.558  1.00  0.00    -0.078 C  
HETATM   25  C   UNL     1     -10.771   3.986  73.539  1.00  0.00    -0.221 C  
ENDBRANCH  22  23
ENDBRANCH  21  22
ENDBRANCH  14  21
BRANCH  20  26
HETATM   26  O   UNL     1     -10.644   7.515  69.442  1.00  0.00    -0.226 OA 
BRANCH  26  27
HETATM   27  C   UNL     1     -11.339   6.596  70.148  1.00  0.00    -0.382 C  
HETATM   28  C   UNL     1     -10.642   5.276  70.045  1.00  0.00    -0.300 C  
HETATM   29  O   UNL     1     -12.385   6.790  70.744  1.00  0.00    -0.377 OA 
ENDBRANCH  26  27
ENDBRANCH  20  26
ENDBRANCH   6   9
ENDBRANCH   2   3
TORSDOF 7
ENDMDL
MODEL      102
REMARK 921   NORMALIZED FREE ENERGY PREDICTED BY IDOCK:   -2.89 KCAL/MOL
REMARK 922        TOTAL FREE ENERGY PREDICTED BY IDOCK:   -5.19 KCAL/MOL
REMARK 923 INTER-LIGAND FREE ENERGY PREDICTED BY IDOCK:   -5.45 KCAL/MOL
REMARK 924 INTRA-LIGAND FREE ENERGY PREDICTED BY IDOCK:    0.27 KCAL/MOL
REMARK 927      BINDING AFFINITY PREDICTED BY RF-SCORE:    0.00 PKD
ROOT
HETATM    1  C   UNL     1     -12.547  14.058  66.071  1.00  0.00    -0.414 C  
HETATM    2  O   UNL     1     -11.622  13.386  65.217  1.00  0.00    -0.299 OA 
ENDROOT
BRANCH   2   3
HETATM    3  C   UNL     1     -11.182  12.163  65.644  1.00  0.00    -0.335 A  
HETATM    4  C   UNL     1     -10.518  11.236  64.859  1.00  0.00    -0.375 A  
HETATM    5  C   UNL     1     -10.146   9.999  65.394  1.00  0.00    -0.317 A  
HETATM    6  C   UNL     1     -10.414   9.633  66.729  1.00  0.00    -0.257 A  
HETATM    7  C   UNL     1     -11.424  11.850  66.984  1.00  0.00    -0.384 A  
HETATM    8  C   UNL     1     -11.044  10.605  67.524  1.00  0.00    -0.367 A  
BRANCH   6   9
HETATM    9  C   UNL     1      -9.991   8.263  67.322  1.00  0.00    -0.224 C  
HETATM   10  S   UNL     1      -8.919   8.491  68.808  1.00  0.00    -0.139 SA 
HETATM   11  C   UNL     1      -9.431   7.019  69.614  1.00  0.00    -0.147 A  
HETATM   12  C   UNL     1      -9.024   5.751  69.166  1.00  0.00    -0.118 A  
HETATM   13  C   UNL     1      -9.489   4.638  69.861  1.00  0.00    -0.237 A  
HETATM   14  N   UNL     1      -8.212   5.633  67.975  1.00  0.00    -0.101 N  
HETATM   15  C   UNL     1     -10.308   7.169  70.701  1.00  0.00    -0.217 A  
HETATM   16  C   UNL     1     -10.380   4.789  70.944  1.00  0.00    -0.187 A  
HETATM   17  C   UNL     1      -8.890   5.859  66.760  1.00  0.00    -0.118 C  
HETATM   18  O   UNL     1      -9.054   4.930  65.958  1.00  0.00    -0.130 OA 
HETATM   19  C   UNL     1     -10.795   6.052  71.360  1.00  0.00    -0.328 A  
HETATM   20  C   UNL     1      -9.258   7.320  66.335  1.00  0.00    -0.159 C  
BRANCH  14  21
HETATM   21  C   UNL     1      -7.213   4.522  67.975  1.00  0.00    -0.065 C  
BRANCH  21  22
HETATM   22  C   UNL     1      -7.877   3.125  67.761  1.00  0.00    -0.075 C  
BRANCH  22  23
HETATM   23  N   UNL     1      -7.027   2.040  67.203  1.00  0.00    -0.039 NA 
HETATM   24  C   UNL     1      -5.607   2.401  67.350  1.00  0.00    -0.018 C  
HETATM   25  C   UNL     1      -7.296   1.768  65.790  1.00  0.00    -0.057 C  
ENDBRANCH  22  23
ENDBRANCH  21  22
ENDBRANCH  14  21
BRANCH  20  26
HETATM   26  O   UNL     1      -8.044   7.995  65.948  1.00  0.00    -0.104 OA 
BRANCH  26  27
HETATM   27  C   UNL     1      -7.499   7.627  64.768  1.00  0.00    -0.094 C  
HETATM   28  C   UNL     1      -6.035   7.391  64.962  1.00  0.00    -0.038 C  
HETATM   29  O   UNL     1      -8.088   7.536  63.703  1.00  0.00    -0.112 OA 
ENDBRANCH  26  27
ENDBRANCH  20  26
ENDBRANCH   6   9
ENDBRANCH   2   3
TORSDOF 7
ENDMDL
MODEL      103
REMARK 921   NORMALIZED FREE ENERGY PREDICTED BY IDOCK:   -2.67 KCAL/MOL
REMARK 922        TOTAL FREE ENERGY PREDICTED BY IDOCK:   -4.88 KCAL/MOL
REMARK 923 INTER-LIGAND FREE ENERGY PREDICTED BY IDOCK:   -5.16 KCAL/MOL
REMARK 924 INTRA-LIGAND FREE ENERGY PREDICTED BY IDOCK:    0.28 KCAL/MOL
REMARK 927      BINDING AFFINITY PREDICTED BY RF-SCORE:    0.00 PKD
ROOT
HETATM    1  C   UNL     1     -10.882   4.482  74.149  1.00  0.00    -0.206 C  
HETATM    2  O   UNL     1     -11.184   4.484  72.754  1.00  0.00    -0.139 OA 
ENDROOT
BRANCH   2   3
HETATM    3  C   UNL     1     -10.865   5.625  72.068  1.00  0.00    -0.242 A  
HETATM    4  C   UNL     1     -10.780   5.728  70.690  1.00  0.00    -0.351 A  
HETATM    5  C   UNL     1     -10.409   6.939  70.098  1.00  0.00    -0.218 A  
HETATM    6  C   UNL     1     -10.112   8.096  70.846  1.00  0.00    -0.215 A  
HETATM    7  C   UNL     1     -10.621   6.764  72.838  1.00  0.00    -0.278 A  
HETATM    8  C   UNL     1     -10.252   7.986  72.240  1.00  0.00    -0.325 A  
BRANCH   6   9
HETATM    9  C   UNL     1      -9.710   9.441  70.185  1.00  0.00    -0.235 C  
HETATM   10  S   UNL     1     -10.412   9.574  68.482  1.00  0.00    -0.212 SA 
HETATM   11  C   UNL     1     -10.565  11.321  68.498  1.00  0.00    -0.199 A  
HETATM   12  C   UNL     1      -9.444  12.162  68.406  1.00  0.00    -0.179 A  
HETATM   13  C   UNL     1      -9.661  13.537  68.437  1.00  0.00    -0.207 A  
HETATM   14  N   UNL     1      -8.116  11.592  68.357  1.00  0.00    -0.148 N  
HETATM   15  C   UNL     1     -11.863  11.838  68.657  1.00  0.00    -0.369 A  
HETATM   16  C   UNL     1     -10.962  14.055  68.610  1.00  0.00    -0.281 A  
HETATM   17  C   UNL     1      -7.641  11.071  69.578  1.00  0.00     0.007 C  
HETATM   18  O   UNL     1      -6.686  11.610  70.154  1.00  0.00    -0.081 OA 
HETATM   19  C   UNL     1     -12.061  13.207  68.727  1.00  0.00    -0.226 A  
HETATM   20  C   UNL     1      -8.184   9.700  70.102  1.00  0.00    -0.187 C  
BRANCH  14  21
HETATM   21  C   UNL     1      -7.120  12.331  67.524  1.00  0.00    -0.142 C  
BRANCH  21  22
HETATM   22  C   UNL     1      -7.401  13.866  67.481  1.00  0.00    -0.166 C  
BRANCH  22  23
HETATM   23  N   UNL     1      -6.565  14.741  68.346  1.00  0.00    -0.094 NA 
HETATM   24  C   UNL     1      -6.499  16.091  67.763  1.00  0.00    -0.157 C  
HETATM   25  C   UNL     1      -5.202  14.240  68.524  1.00  0.00    -0.099 C  
ENDBRANCH  22  23
ENDBRANCH  21  22
ENDBRANCH  14  21
BRANCH  20  26
HETATM   26  O   UNL     1      -7.635   8.653  69.276  1.00  0.00    -0.089 OA 
BRANCH  26  27
HETATM   27  C   UNL     1      -6.735   7.833  69.862  1.00  0.00    -0.042 C  
HETATM   28  C   UNL     1      -6.768   6.505  69.175  1.00  0.00    -0.049 C  
HETATM   29  O   UNL     1      -6.032   8.108  70.821  1.00  0.00    -0.033 OA 
ENDBRANCH  26  27
ENDBRANCH  20  26
ENDBRANCH   6   9
ENDBRANCH   2   3
TORSDOF 7
ENDMDL
MODEL      104
REMARK 921   NORMALIZED FREE ENERGY PREDICTED BY IDOCK:   -2.49 KCAL/MOL
REMARK 922        TOTAL FREE ENERGY PREDICTED BY IDOCK:   -4.62 KCAL/MOL
REMARK 923 INTER-LIGAND FREE ENERGY PREDICTED BY IDOCK:   -3.84 KCAL/MOL
REMARK 924 INTRA-LIGAND FREE ENERGY PREDICTED BY IDOCK:   -0.78 KCAL/MOL
REMARK 927      BINDING AFFINITY PREDICTED BY RF-SCORE:    0.00 PKD
ROOT
HETATM    1  C   UNL     1     -11.527  16.050  64.552  1.00  0.00    -0.271 C  
HETATM    2  O   UNL     1     -12.097  14.780  64.235  1.00  0.00    -0.474 OA 
ENDROOT
BRANCH   2   3
HETATM    3  C   UNL     1     -11.486  13.688  64.791  1.00  0.00    -0.352 A  
HETATM    4  C   UNL     1     -12.141  12.651  65.434  1.00  0.00    -0.516 A  
HETATM    5  C   UNL     1     -11.410  11.601  65.998  1.00  0.00    -0.261 A  
HETATM    6  C   UNL     1     -10.003  11.534  65.943  1.00  0.00    -0.267 A  
HETATM    7  C   UNL     1     -10.096  13.630  64.679  1.00  0.00    -0.228 A  
HETATM    8  C   UNL     1      -9.360  12.569  65.242  1.00  0.00     0.271 A  
BRANCH   6   9
HETATM    9  C   UNL     1      -9.196  10.362  66.560  1.00  0.00    -0.160 C  
HETATM   10  S   UNL     1     -10.293   8.919  66.914  1.00  0.00    -0.233 SA 
HETATM   11  C   UNL     1      -9.055   7.701  66.671  1.00  0.00    -0.164 A  
HETATM   12  C   UNL     1      -8.021   7.502  67.601  1.00  0.00    -0.117 A  
HETATM   13  C   UNL     1      -7.077   6.518  67.319  1.00  0.00    -0.077 A  
HETATM   14  N   UNL     1      -7.924   8.354  68.765  1.00  0.00    -0.118 N  
HETATM   15  C   UNL     1      -9.120   6.966  65.474  1.00  0.00     0.184 A  
HETATM   16  C   UNL     1      -7.136   5.791  66.112  1.00  0.00    -0.071 A  
HETATM   17  C   UNL     1      -7.464   9.663  68.514  1.00  0.00    -0.079 C  
HETATM   18  O   UNL     1      -6.366  10.030  68.955  1.00  0.00    -0.044 OA 
HETATM   19  C   UNL     1      -8.152   6.019  65.187  1.00  0.00    -0.132 A  
HETATM   20  C   UNL     1      -8.422  10.712  67.857  1.00  0.00    -0.120 C  
BRANCH  14  21
HETATM   21  C   UNL     1      -7.413   7.703  70.008  1.00  0.00    -0.082 C  
BRANCH  21  22
HETATM   22  C   UNL     1      -8.507   7.594  71.117  1.00  0.00    -0.116 C  
BRANCH  22  23
HETATM   23  N   UNL     1      -8.061   7.219  72.486  1.00  0.00    -0.098 NA 
HETATM   24  C   UNL     1      -7.366   5.922  72.440  1.00  0.00    -0.091 C  
HETATM   25  C   UNL     1      -9.164   7.125  73.444  1.00  0.00    -0.168 C  
ENDBRANCH  22  23
ENDBRANCH  21  22
ENDBRANCH  14  21
BRANCH  20  26
HETATM   26  O   UNL     1      -9.411  11.093  68.835  1.00  0.00    -0.175 OA 
BRANCH  26  27
HETATM   27  C   UNL     1      -9.707  12.409  68.910  1.00  0.00     0.166 C  
HETATM   28  C   UNL     1      -8.443  13.199  68.789  1.00  0.00     0.142 C  
HETATM   29  O   UNL     1     -10.816  12.885  69.088  1.00  0.00    -0.189 OA 
ENDBRANCH  26  27
ENDBRANCH  20  26
ENDBRANCH   6   9
ENDBRANCH   2   3
TORSDOF 7
ENDMDL
MODEL      105
REMARK 921   NORMALIZED FREE ENERGY PREDICTED BY IDOCK:   -2.43 KCAL/MOL
REMARK 922        TOTAL FREE ENERGY PREDICTED BY IDOCK:   -4.55 KCAL/MOL
REMARK 923 INTER-LIGAND FREE ENERGY PREDICTED BY IDOCK:   -3.95 KCAL/MOL
REMARK 924 INTRA-LIGAND FREE ENERGY PREDICTED BY IDOCK:   -0.60 KCAL/MOL
REMARK 927      BINDING AFFINITY PREDICTED BY RF-SCORE:    0.00 PKD
ROOT
HETATM    1  C   UNL     1      -7.060   7.099  66.494  1.00  0.00    -0.078 C  
HETATM    2  O   UNL     1      -7.861   7.968  65.693  1.00  0.00    -0.093 OA 
ENDROOT
BRANCH   2   3
HETATM    3  C   UNL     1      -8.236   9.151  66.271  1.00  0.00    -0.111 A  
HETATM    4  C   UNL     1      -9.064  10.094  65.689  1.00  0.00    -0.216 A  
HETATM    5  C   UNL     1      -9.351  11.287  66.359  1.00  0.00    -0.210 A  
HETATM    6  C   UNL     1      -8.831  11.591  67.634  1.00  0.00    -0.152 A  
HETATM    7  C   UNL     1      -7.739   9.399  67.553  1.00  0.00    -0.091 A  
HETATM    8  C   UNL     1      -8.033  10.600  68.230  1.00  0.00    -0.116 A  
BRANCH   6   9
HETATM    9  C   UNL     1      -9.159  12.911  68.380  1.00  0.00    -0.126 C  
HETATM   10  S   UNL     1     -10.388  13.915  67.434  1.00  0.00    -0.253 SA 
HETATM   11  C   UNL     1     -11.116  14.663  68.844  1.00  0.00    -0.254 A  
HETATM   12  C   UNL     1     -10.450  15.656  69.581  1.00  0.00    -0.283 A  
HETATM   13  C   UNL     1     -11.102  16.185  70.691  1.00  0.00    -0.318 A  
HETATM   14  N   UNL     1      -9.104  16.042  69.219  1.00  0.00    -0.251 N  
HETATM   15  C   UNL     1     -12.380  14.184  69.229  1.00  0.00    -0.206 A  
HETATM   16  C   UNL     1     -12.364  15.694  71.084  1.00  0.00    -0.482 A  
HETATM   17  C   UNL     1      -8.102  15.107  69.549  1.00  0.00    -0.167 C  
HETATM   18  O   UNL     1      -7.256  15.380  70.412  1.00  0.00     0.173 OA 
HETATM   19  C   UNL     1     -13.000  14.690  70.358  1.00  0.00    -0.249 A  
HETATM   20  C   UNL     1      -7.935  13.810  68.689  1.00  0.00    -0.095 C  
BRANCH  14  21
HETATM   21  C   UNL     1      -8.759  17.480  69.432  1.00  0.00     0.441 C  
BRANCH  21  22
HETATM   22  C   UNL     1      -8.567  18.251  68.089  1.00  0.00    -0.278 C  
BRANCH  22  23
HETATM   23  N   UNL     1      -7.174  18.559  67.667  1.00  0.00    -0.214 NA 
HETATM   24  C   UNL     1      -7.091  18.547  66.197  1.00  0.00    -0.266 C  
HETATM   25  C   UNL     1      -6.191  17.615  68.199  1.00  0.00    -0.167 C  
ENDBRANCH  22  23
ENDBRANCH  21  22
ENDBRANCH  14  21
BRANCH  20  26
HETATM   26  O   UNL     1      -7.368  14.183  67.417  1.00  0.00    -0.180 OA 
BRANCH  26  27
HETATM   27  C   UNL     1      -6.024  14.319  67.373  1.00  0.00     0.287 C  
HETATM   28  C   UNL     1      -5.396  13.175  68.102  1.00  0.00    -0.096 C  
HETATM   29  O   UNL     1      -5.414  15.242  66.859  1.00  0.00     0.101 OA 
ENDBRANCH  26  27
ENDBRANCH  20  26
ENDBRANCH   6   9
ENDBRANCH   2   3
TORSDOF 7
ENDMDL
MODEL      106
REMARK 921   NORMALIZED FREE ENERGY PREDICTED BY IDOCK:   -2.43 KCAL/MOL
REMARK 922        TOTAL FREE ENERGY PREDICTED BY IDOCK:   -4.54 KCAL/MOL
REMARK 923 INTER-LIGAND FREE ENERGY PREDICTED BY IDOCK:   -3.14 KCAL/MOL
REMARK 924 INTRA-LIGAND FREE ENERGY PREDICTED BY IDOCK:   -1.40 KCAL/MOL
REMARK 927      BINDING AFFINITY PREDICTED BY RF-SCORE:    0.00 PKD
ROOT
HETATM    1  C   UNL     1     -10.394   2.763  74.552  1.00  0.00    -0.152 C  
HETATM    2  O   UNL     1      -9.391   3.752  74.316  1.00  0.00    -0.094 OA 
ENDROOT
BRANCH   2   3
HETATM    3  C   UNL     1      -9.246   4.169  73.020  1.00  0.00    -0.110 A  
HETATM    4  C   UNL     1     -10.263   4.671  72.227  1.00  0.00    -0.256 A  
HETATM    5  C   UNL     1     -10.006   5.034  70.901  1.00  0.00    -0.286 A  
HETATM    6  C   UNL     1      -8.731   4.917  70.311  1.00  0.00    -0.122 A  
HETATM    7  C   UNL     1      -7.961   4.082  72.481  1.00  0.00    -0.082 A  
HETATM    8  C   UNL     1      -7.701   4.454  71.147  1.00  0.00    -0.068 A  
BRANCH   6   9
HETATM    9  C   UNL     1      -8.447   5.330  68.843  1.00  0.00    -0.091 C  
HETATM   10  S   UNL     1      -6.634   5.304  68.489  1.00  0.00    -0.046 SA 
HETATM   11  C   UNL     1      -6.800   4.895  66.791  1.00  0.00    -0.062 A  
HETATM   12  C   UNL     1      -7.256   5.830  65.847  1.00  0.00    -0.075 A  
HETATM   13  C   UNL     1      -7.365   5.413  64.523  1.00  0.00    -0.063 A  
HETATM   14  N   UNL     1      -7.663   7.149  66.276  1.00  0.00    -0.098 N  
HETATM   15  C   UNL     1      -6.498   3.571  66.430  1.00  0.00    -0.037 A  
HETATM   16  C   UNL     1      -7.075   4.080  64.164  1.00  0.00    -0.050 A  
HETATM   17  C   UNL     1      -8.900   7.207  66.951  1.00  0.00    -0.128 C  
HETATM   18  O   UNL     1      -9.864   7.785  66.431  1.00  0.00    -0.207 OA 
HETATM   19  C   UNL     1      -6.649   3.158  65.117  1.00  0.00    -0.039 A  
HETATM   20  C   UNL     1      -9.000   6.720  68.434  1.00  0.00    -0.124 C  
BRANCH  14  21
HETATM   21  C   UNL     1      -7.382   8.261  65.319  1.00  0.00    -0.081 C  
BRANCH  21  22
HETATM   22  C   UNL     1      -6.915   9.565  66.041  1.00  0.00    -0.091 C  
BRANCH  22  23
HETATM   23  N   UNL     1      -7.902  10.670  66.168  1.00  0.00    -0.148 NA 
HETATM   24  C   UNL     1      -8.669  10.791  64.917  1.00  0.00    -0.126 C  
HETATM   25  C   UNL     1      -7.282  11.963  66.464  1.00  0.00     0.185 C  
ENDBRANCH  22  23
ENDBRANCH  21  22
ENDBRANCH  14  21
BRANCH  20  26
HETATM   26  O   UNL     1      -8.336   7.688  69.272  1.00  0.00    -0.131 OA 
BRANCH  26  27
HETATM   27  C   UNL     1      -9.132   8.494  70.008  1.00  0.00    -0.147 C  
HETATM   28  C   UNL     1      -8.590   8.571  71.400  1.00  0.00    -0.224 C  
HETATM   29  O   UNL     1     -10.150   9.043  69.622  1.00  0.00    -0.185 OA 
ENDBRANCH  26  27
ENDBRANCH  20  26
ENDBRANCH   6   9
ENDBRANCH   2   3
TORSDOF 7
ENDMDL
MODEL      107
REMARK 921   NORMALIZED FREE ENERGY PREDICTED BY IDOCK:   -2.33 KCAL/MOL
REMARK 922        TOTAL FREE ENERGY PREDICTED BY IDOCK:   -4.40 KCAL/MOL
REMARK 923 INTER-LIGAND FREE ENERGY PREDICTED BY IDOCK:   -5.25 KCAL/MOL
REMARK 924 INTRA-LIGAND FREE ENERGY PREDICTED BY IDOCK:    0.85 KCAL/MOL
REMARK 927      BINDING AFFINITY PREDICTED BY RF-SCORE:    0.00 PKD
ROOT
HETATM    1  C   UNL     1     -12.650  14.652  71.414  1.00  0.00    -0.335 C  
HETATM    2  O   UNL     1     -13.059  13.285  71.470  1.00  0.00    -0.363 OA 
ENDROOT
BRANCH   2   3
HETATM    3  C   UNL     1     -12.302  12.396  70.756  1.00  0.00    -0.286 A  
HETATM    4  C   UNL     1     -12.317  11.023  70.924  1.00  0.00    -0.503 A  
HETATM    5  C   UNL     1     -11.471  10.212  70.161  1.00  0.00    -0.368 A  
HETATM    6  C   UNL     1     -10.580  10.730  69.199  1.00  0.00    -0.254 A  
HETATM    7  C   UNL     1     -11.464  12.940  69.780  1.00  0.00    -0.203 A  
HETATM    8  C   UNL     1     -10.616  12.122  69.007  1.00  0.00    -0.117 A  
BRANCH   6   9
HETATM    9  C   UNL     1      -9.650   9.828  68.346  1.00  0.00    -0.148 C  
HETATM   10  S   UNL     1     -10.527   9.211  66.842  1.00  0.00    -0.173 SA 
HETATM   11  C   UNL     1      -9.092   9.115  65.838  1.00  0.00    -0.205 A  
HETATM   12  C   UNL     1      -8.123   8.116  66.027  1.00  0.00    -0.112 A  
HETATM   13  C   UNL     1      -7.012   8.124  65.188  1.00  0.00    -0.063 A  
HETATM   14  N   UNL     1      -8.264   7.170  67.111  1.00  0.00    -0.117 N  
HETATM   15  C   UNL     1      -8.937  10.117  64.865  1.00  0.00    -0.230 A  
HETATM   16  C   UNL     1      -6.850   9.139  64.221  1.00  0.00    -0.084 A  
HETATM   17  C   UNL     1      -8.001   7.687  68.397  1.00  0.00    -0.123 C  
HETATM   18  O   UNL     1      -7.018   7.289  69.037  1.00  0.00    -0.072 OA 
HETATM   19  C   UNL     1      -7.807  10.138  64.064  1.00  0.00    -0.149 A  
HETATM   20  C   UNL     1      -9.056   8.607  69.095  1.00  0.00    -0.142 C  
BRANCH  14  21
HETATM   21  C   UNL     1      -7.762   5.789  66.841  1.00  0.00    -0.101 C  
BRANCH  21  22
HETATM   22  C   UNL     1      -7.008   5.179  68.065  1.00  0.00    -0.061 C  
BRANCH  22  23
HETATM   23  N   UNL     1      -7.221   3.736  68.352  1.00  0.00    -0.054 NA 
HETATM   24  C   UNL     1      -5.973   3.146  68.866  1.00  0.00    -0.024 C  
HETATM   25  C   UNL     1      -7.650   2.974  67.179  1.00  0.00    -0.074 C  
ENDBRANCH  22  23
ENDBRANCH  21  22
ENDBRANCH  14  21
BRANCH  20  26
HETATM   26  O   UNL     1     -10.173   7.789  69.497  1.00  0.00    -0.197 OA 
BRANCH  26  27
HETATM   27  C   UNL     1     -10.053   7.142  70.677  1.00  0.00    -0.191 C  
HETATM   28  C   UNL     1     -10.759   5.827  70.583  1.00  0.00    -0.351 C  
HETATM   29  O   UNL     1      -9.496   7.568  71.675  1.00  0.00    -0.149 OA 
ENDBRANCH  26  27
ENDBRANCH  20  26
ENDBRANCH   6   9
ENDBRANCH   2   3
TORSDOF 7
ENDMDL
MODEL      108
REMARK 921   NORMALIZED FREE ENERGY PREDICTED BY IDOCK:   -2.30 KCAL/MOL
REMARK 922        TOTAL FREE ENERGY PREDICTED BY IDOCK:   -4.35 KCAL/MOL
REMARK 923 INTER-LIGAND FREE ENERGY PREDICTED BY IDOCK:   -3.62 KCAL/MOL
REMARK 924 INTRA-LIGAND FREE ENERGY PREDICTED BY IDOCK:   -0.73 KCAL/MOL
REMARK 927      BINDING AFFINITY PREDICTED BY RF-SCORE:    0.00 PKD
ROOT
HETATM    1  C   UNL     1      -9.350  11.494  62.966  1.00  0.00    -0.266 C  
HETATM    2  O   UNL     1      -9.847  11.343  64.296  1.00  0.00    -0.239 OA 
ENDROOT
BRANCH   2   3
HETATM    3  C   UNL     1      -9.320  10.312  65.026  1.00  0.00    -0.237 A  
HETATM    4  C   UNL     1      -9.042   9.049  64.533  1.00  0.00     0.023 A  
HETATM    5  C   UNL     1      -8.537   8.059  65.382  1.00  0.00    -0.138 A  
HETATM    6  C   UNL     1      -8.285   8.283  66.751  1.00  0.00    -0.103 A  
HETATM    7  C   UNL     1      -9.040  10.581  66.367  1.00  0.00    -0.181 A  
HETATM    8  C   UNL     1      -8.526   9.585  67.221  1.00  0.00    -0.128 A  
BRANCH   6   9
HETATM    9  C   UNL     1      -7.716   7.185  67.688  1.00  0.00    -0.112 C  
HETATM   10  S   UNL     1      -8.720   5.639  67.580  1.00  0.00    -0.105 SA 
HETATM   11  C   UNL     1      -7.390   4.549  67.925  1.00  0.00    -0.066 A  
HETATM   12  C   UNL     1      -6.841   4.437  69.213  1.00  0.00    -0.046 A  
HETATM   13  C   UNL     1      -5.781   3.552  69.390  1.00  0.00    -0.018 A  
HETATM   14  N   UNL     1      -7.331   5.279  70.282  1.00  0.00    -0.065 N  
HETATM   15  C   UNL     1      -6.870   3.827  66.837  1.00  0.00    -0.051 A  
HETATM   16  C   UNL     1      -5.250   2.839  68.295  1.00  0.00    -0.012 A  
HETATM   17  C   UNL     1      -6.930   6.629  70.214  1.00  0.00    -0.066 C  
HETATM   18  O   UNL     1      -6.166   7.094  71.070  1.00  0.00    -0.036 OA 
HETATM   19  C   UNL     1      -5.789   2.981  67.018  1.00  0.00    -0.023 A  
HETATM   20  C   UNL     1      -7.607   7.590  69.181  1.00  0.00    -0.100 C  
BRANCH  14  21
HETATM   21  C   UNL     1      -7.343   4.663  71.643  1.00  0.00    -0.069 C  
BRANCH  21  22
HETATM   22  C   UNL     1      -8.790   4.472  72.197  1.00  0.00    -0.121 C  
BRANCH  22  23
HETATM   23  N   UNL     1      -9.131   5.154  73.474  1.00  0.00    -0.124 NA 
HETATM   24  C   UNL     1     -10.580   5.411  73.523  1.00  0.00    -0.270 C  
HETATM   25  C   UNL     1      -8.424   6.423  73.654  1.00  0.00    -0.122 C  
ENDBRANCH  22  23
ENDBRANCH  21  22
ENDBRANCH  14  21
BRANCH  20  26
HETATM   26  O   UNL     1      -8.950   7.862  69.630  1.00  0.00    -0.144 OA 
BRANCH  26  27
HETATM   27  C   UNL     1      -9.079   8.755  70.636  1.00  0.00    -0.186 C  
HETATM   28  C   UNL     1     -10.488   8.720  71.137  1.00  0.00    -0.315 C  
HETATM   29  O   UNL     1      -8.207   9.501  71.049  1.00  0.00    -0.301 OA 
ENDBRANCH  26  27
ENDBRANCH  20  26
ENDBRANCH   6   9
ENDBRANCH   2   3
TORSDOF 7
ENDMDL
MODEL      109
REMARK 921   NORMALIZED FREE ENERGY PREDICTED BY IDOCK:   -1.96 KCAL/MOL
REMARK 922        TOTAL FREE ENERGY PREDICTED BY IDOCK:   -3.87 KCAL/MOL
REMARK 923 INTER-LIGAND FREE ENERGY PREDICTED BY IDOCK:   -4.28 KCAL/MOL
REMARK 924 INTRA-LIGAND FREE ENERGY PREDICTED BY IDOCK:    0.41 KCAL/MOL
REMARK 927      BINDING AFFINITY PREDICTED BY RF-SCORE:    0.00 PKD
ROOT
HETATM    1  C   UNL     1     -10.398  16.073  65.918  1.00  0.00    -0.368 C  
HETATM    2  O   UNL     1     -11.124  14.900  65.551  1.00  0.00    -0.329 OA 
ENDROOT
BRANCH   2   3
HETATM    3  C   UNL     1     -10.617  13.710  65.998  1.00  0.00    -0.290 A  
HETATM    4  C   UNL     1     -10.292  12.630  65.195  1.00  0.00    -0.312 A  
HETATM    5  C   UNL     1      -9.814  11.447  65.767  1.00  0.00    -0.270 A  
HETATM    6  C   UNL     1      -9.635  11.288  67.156  1.00  0.00    -0.194 A  
HETATM    7  C   UNL     1     -10.410  13.602  67.375  1.00  0.00    -0.244 A  
HETATM    8  C   UNL     1      -9.922  12.411  67.951  1.00  0.00    -0.204 A  
BRANCH   6   9
HETATM    9  C   UNL     1      -9.095   9.978  67.786  1.00  0.00    -0.131 C  
HETATM   10  S   UNL     1      -7.876  10.343  69.125  1.00  0.00    -0.145 SA 
HETATM   11  C   UNL     1      -8.237   8.914  70.076  1.00  0.00    -0.122 A  
HETATM   12  C   UNL     1      -7.831   7.633  69.669  1.00  0.00    -0.108 A  
HETATM   13  C   UNL     1      -8.171   6.556  70.483  1.00  0.00    -0.118 A  
HETATM   14  N   UNL     1      -7.150   7.459  68.405  1.00  0.00    -0.082 N  
HETATM   15  C   UNL     1      -8.996   9.110  71.243  1.00  0.00    -0.207 A  
HETATM   16  C   UNL     1      -8.944   6.752  71.647  1.00  0.00    -0.136 A  
HETATM   17  C   UNL     1      -7.966   7.578  67.262  1.00  0.00    -0.118 C  
HETATM   18  O   UNL     1      -8.179   6.591  66.545  1.00  0.00    -0.108 OA 
HETATM   19  C   UNL     1      -9.362   8.026  72.023  1.00  0.00    -0.237 A  
HETATM   20  C   UNL     1      -8.436   8.993  66.786  1.00  0.00    -0.119 C  
BRANCH  14  21
HETATM   21  C   UNL     1      -6.114   6.384  68.366  1.00  0.00    -0.024 C  
BRANCH  21  22
HETATM   22  C   UNL     1      -6.539   5.179  67.468  1.00  0.00    -0.054 C  
BRANCH  22  23
HETATM   23  N   UNL     1      -5.471   4.247  67.021  1.00  0.00    -0.013 NA 
HETATM   24  C   UNL     1      -5.489   4.146  65.551  1.00  0.00    -0.010 C  
HETATM   25  C   UNL     1      -5.608   2.903  67.583  1.00  0.00    -0.018 C  
ENDBRANCH  22  23
ENDBRANCH  21  22
ENDBRANCH  14  21
BRANCH  20  26
HETATM   26  O   UNL     1      -7.301   9.680  66.223  1.00  0.00    -0.092 OA 
BRANCH  26  27
HETATM   27  C   UNL     1      -6.929   9.309  64.978  1.00  0.00    -0.086 C  
HETATM   28  C   UNL     1      -5.479   8.944  64.993  1.00  0.00    -0.039 C  
HETATM   29  O   UNL     1      -7.642   9.307  63.988  1.00  0.00    -0.106 OA 
ENDBRANCH  26  27
ENDBRANCH  20  26
ENDBRANCH   6   9
ENDBRANCH   2   3
TORSDOF 7
ENDMDL
MODEL      110
REMARK 921   NORMALIZED FREE ENERGY PREDICTED BY IDOCK:   -1.50 KCAL/MOL
REMARK 922        TOTAL FREE ENERGY PREDICTED BY IDOCK:   -3.23 KCAL/MOL
REMARK 923 INTER-LIGAND FREE ENERGY PREDICTED BY IDOCK:   -1.90 KCAL/MOL
REMARK 924 INTRA-LIGAND FREE ENERGY PREDICTED BY IDOCK:   -1.33 KCAL/MOL
REMARK 927      BINDING AFFINITY PREDICTED BY RF-SCORE:    0.00 PKD
ROOT
HETATM    1  C   UNL     1     -14.213   7.504  72.673  1.00  0.00     0.453 C  
HETATM    2  O   UNL     1     -13.492   6.596  71.839  1.00  0.00    -0.206 OA 
ENDROOT
BRANCH   2   3
HETATM    3  C   UNL     1     -12.402   7.108  71.187  1.00  0.00    -0.364 A  
HETATM    4  C   UNL     1     -12.435   8.158  70.286  1.00  0.00     0.760 A  
HETATM    5  C   UNL     1     -11.262   8.575  69.650  1.00  0.00     0.081 A  
HETATM    6  C   UNL     1     -10.010   7.970  69.884  1.00  0.00    -0.189 A  
HETATM    7  C   UNL     1     -11.171   6.515  71.476  1.00  0.00    -0.322 A  
HETATM    8  C   UNL     1      -9.988   6.939  70.838  1.00  0.00    -0.200 A  
BRANCH   6   9
HETATM    9  C   UNL     1      -8.709   8.442  69.184  1.00  0.00    -0.142 C  
HETATM   10  S   UNL     1      -9.093   9.503  67.721  1.00  0.00    -0.124 SA 
HETATM   11  C   UNL     1      -7.637  10.475  67.830  1.00  0.00    -0.092 A  
HETATM   12  C   UNL     1      -6.378   9.961  67.480  1.00  0.00    -0.063 A  
HETATM   13  C   UNL     1      -5.276  10.803  67.608  1.00  0.00    -0.040 A  
HETATM   14  N   UNL     1      -6.249   8.579  67.076  1.00  0.00    -0.055 N  
HETATM   15  C   UNL     1      -7.787  11.780  68.331  1.00  0.00    -0.141 A  
HETATM   16  C   UNL     1      -5.426  12.108  68.124  1.00  0.00    -0.054 A  
HETATM   17  C   UNL     1      -6.359   7.635  68.118  1.00  0.00    -0.049 C  
HETATM   18  O   UNL     1      -5.377   6.956  68.447  1.00  0.00    -0.015 OA 
HETATM   19  C   UNL     1      -6.678  12.593  68.492  1.00  0.00    -0.089 A  
HETATM   20  C   UNL     1      -7.764   7.303  68.721  1.00  0.00    -0.119 C  
BRANCH  14  21
HETATM   21  C   UNL     1      -5.211   8.297  66.039  1.00  0.00    -0.024 C  
BRANCH  21  22
HETATM   22  C   UNL     1      -5.831   8.041  64.629  1.00  0.00    -0.045 C  
BRANCH  22  23
HETATM   23  N   UNL     1      -7.176   8.615  64.357  1.00  0.00    -0.094 NA 
HETATM   24  C   UNL     1      -7.833   7.845  63.287  1.00  0.00    -0.141 C  
HETATM   25  C   UNL     1      -7.130  10.023  63.959  1.00  0.00    -0.126 C  
ENDBRANCH  22  23
ENDBRANCH  21  22
ENDBRANCH  14  21
BRANCH  20  26
HETATM   26  O   UNL     1      -8.499   6.530  67.751  1.00  0.00    -0.118 OA 
BRANCH  26  27
HETATM   27  C   UNL     1      -8.617   5.207  67.998  1.00  0.00    -0.103 C  
HETATM   28  C   UNL     1      -9.923   4.725  67.453  1.00  0.00    -0.204 C  
HETATM   29  O   UNL     1      -7.813   4.516  68.602  1.00  0.00    -0.074 OA 
ENDBRANCH  26  27
ENDBRANCH  20  26
ENDBRANCH   6   9
ENDBRANCH   2   3
TORSDOF 7
ENDMDL
MODEL      111
REMARK 921   NORMALIZED FREE ENERGY PREDICTED BY IDOCK:   -1.36 KCAL/MOL
REMARK 922        TOTAL FREE ENERGY PREDICTED BY IDOCK:   -3.03 KCAL/MOL
REMARK 923 INTER-LIGAND FREE ENERGY PREDICTED BY IDOCK:   -2.89 KCAL/MOL
REMARK 924 INTRA-LIGAND FREE ENERGY PREDICTED BY IDOCK:   -0.14 KCAL/MOL
REMARK 927      BINDING AFFINITY PREDICTED BY RF-SCORE:    0.00 PKD
ROOT
HETATM    1  C   UNL     1      -7.480  14.992  67.998  1.00  0.00    -0.123 C  
HETATM    2  O   UNL     1      -6.431  14.030  68.116  1.00  0.00    -0.097 OA 
ENDROOT
BRANCH   2   3
HETATM    3  C   UNL     1      -6.811  12.715  68.096  1.00  0.00    -0.090 A  
HETATM    4  C   UNL     1      -8.016  12.242  67.608  1.00  0.00    -0.161 A  
HETATM    5  C   UNL     1      -8.312  10.877  67.672  1.00  0.00    -0.116 A  
HETATM    6  C   UNL     1      -7.425   9.927  68.218  1.00  0.00    -0.080 A  
HETATM    7  C   UNL     1      -5.889  11.796  68.603  1.00  0.00    -0.049 A  
HETATM    8  C   UNL     1      -6.186  10.420  68.662  1.00  0.00    -0.047 A  
BRANCH   6   9
HETATM    9  C   UNL     1      -7.753   8.412  68.278  1.00  0.00    -0.106 C  
HETATM   10  S   UNL     1      -9.429   8.071  67.581  1.00  0.00    -0.148 SA 
HETATM   11  C   UNL     1      -9.045   6.462  66.997  1.00  0.00    -0.127 A  
HETATM   12  C   UNL     1      -8.881   5.378  67.874  1.00  0.00    -0.105 A  
HETATM   13  C   UNL     1      -8.568   4.139  67.321  1.00  0.00    -0.103 A  
HETATM   14  N   UNL     1      -8.966   5.586  69.303  1.00  0.00    -0.111 N  
HETATM   15  C   UNL     1      -8.863   6.322  65.611  1.00  0.00    -0.086 A  
HETATM   16  C   UNL     1      -8.371   4.002  65.931  1.00  0.00    -0.109 A  
HETATM   17  C   UNL     1      -7.858   6.239  69.882  1.00  0.00    -0.110 C  
HETATM   18  O   UNL     1      -7.119   5.630  70.667  1.00  0.00    -0.062 OA 
HETATM   19  C   UNL     1      -8.512   5.094  65.077  1.00  0.00    -0.148 A  
HETATM   20  C   UNL     1      -7.679   7.782  69.692  1.00  0.00    -0.101 C  
BRANCH  14  21
HETATM   21  C   UNL     1      -9.553   4.461  70.091  1.00  0.00    -0.193 C  
BRANCH  21  22
HETATM   22  C   UNL     1      -8.773   3.123  69.893  1.00  0.00    -0.075 C  
BRANCH  22  23
HETATM   23  N   UNL     1      -8.705   2.191  71.050  1.00  0.00    -0.059 NA 
HETATM   24  C   UNL     1      -9.938   2.304  71.847  1.00  0.00    -0.149 C  
HETATM   25  C   UNL     1      -7.559   2.441  71.924  1.00  0.00    -0.044 C  
ENDBRANCH  22  23
ENDBRANCH  21  22
ENDBRANCH  14  21
BRANCH  20  26
HETATM   26  O   UNL     1      -8.673   8.452  70.492  1.00  0.00    -0.135 OA 
BRANCH  26  27
HETATM   27  C   UNL     1      -8.513   8.388  71.832  1.00  0.00    -0.177 C  
HETATM   28  C   UNL     1      -7.221   9.046  72.199  1.00  0.00     0.187 C  
HETATM   29  O   UNL     1      -9.272   7.848  72.620  1.00  0.00    -0.166 OA 
ENDBRANCH  26  27
ENDBRANCH  20  26
ENDBRANCH   6   9
ENDBRANCH   2   3
TORSDOF 7
ENDMDL
MODEL      112
REMARK 921   NORMALIZED FREE ENERGY PREDICTED BY IDOCK:   -1.14 KCAL/MOL
REMARK 922        TOTAL FREE ENERGY PREDICTED BY IDOCK:   -2.72 KCAL/MOL
REMARK 923 INTER-LIGAND FREE ENERGY PREDICTED BY IDOCK:   -2.85 KCAL/MOL
REMARK 924 INTRA-LIGAND FREE ENERGY PREDICTED BY IDOCK:    0.13 KCAL/MOL
REMARK 927      BINDING AFFINITY PREDICTED BY RF-SCORE:    0.00 PKD
ROOT
HETATM    1  C   UNL     1      -7.418  14.799  68.213  1.00  0.00    -0.115 C  
HETATM    2  O   UNL     1      -6.383  13.818  68.281  1.00  0.00    -0.086 OA 
ENDROOT
BRANCH   2   3
HETATM    3  C   UNL     1      -6.696  12.573  67.805  1.00  0.00    -0.123 A  
HETATM    4  C   UNL     1      -7.817  12.267  67.053  1.00  0.00    -0.108 A  
HETATM    5  C   UNL     1      -8.055  10.950  66.650  1.00  0.00    -0.147 A  
HETATM    6  C   UNL     1      -7.189   9.884  66.973  1.00  0.00    -0.090 A  
HETATM    7  C   UNL     1      -5.794  11.550  68.105  1.00  0.00    -0.045 A  
HETATM    8  C   UNL     1      -6.032  10.223  67.694  1.00  0.00    -0.052 A  
BRANCH   6   9
HETATM    9  C   UNL     1      -7.451   8.425  66.516  1.00  0.00    -0.081 C  
HETATM   10  S   UNL     1      -8.813   8.358  65.271  1.00  0.00     0.002 SA 
HETATM   11  C   UNL     1      -8.196   6.953  64.421  1.00  0.00     0.022 A  
HETATM   12  C   UNL     1      -8.261   5.665  64.977  1.00  0.00    -0.137 A  
HETATM   13  C   UNL     1      -7.737   4.611  64.234  1.00  0.00    -0.078 A  
HETATM   14  N   UNL     1      -8.791   5.481  66.310  1.00  0.00    -0.129 N  
HETATM   15  C   UNL     1      -7.590   7.188  63.175  1.00  0.00    -0.109 A  
HETATM   16  C   UNL     1      -7.116   4.849  62.990  1.00  0.00    -0.042 A  
HETATM   17  C   UNL     1      -7.947   5.904  67.356  1.00  0.00    -0.102 C  
HETATM   18  O   UNL     1      -7.458   5.075  68.135  1.00  0.00    -0.073 OA 
HETATM   19  C   UNL     1      -7.036   6.136  62.463  1.00  0.00    -0.041 A  
HETATM   20  C   UNL     1      -7.788   7.432  67.657  1.00  0.00    -0.113 C  
BRANCH  14  21
HETATM   21  C   UNL     1      -9.542   4.210  66.542  1.00  0.00    -0.204 C  
BRANCH  21  22
HETATM   22  C   UNL     1      -8.965   3.018  65.715  1.00  0.00    -0.144 C  
BRANCH  22  23
HETATM   23  N   UNL     1      -8.223   1.964  66.457  1.00  0.00    -0.080 NA 
HETATM   24  C   UNL     1      -8.526   2.067  67.895  1.00  0.00    -0.071 C  
HETATM   25  C   UNL     1      -6.773   2.047  66.278  1.00  0.00    -0.035 C  
ENDBRANCH  22  23
ENDBRANCH  21  22
ENDBRANCH  14  21
BRANCH  20  26
HETATM   26  O   UNL     1      -9.010   7.901  68.262  1.00  0.00    -0.133 OA 
BRANCH  26  27
HETATM   27  C   UNL     1      -9.010   8.021  69.608  1.00  0.00    -0.145 C  
HETATM   28  C   UNL     1      -9.145   9.467  69.966  1.00  0.00    -0.244 C  
HETATM   29  O   UNL     1      -8.881   7.110  70.408  1.00  0.00    -0.148 OA 
ENDBRANCH  26  27
ENDBRANCH  20  26
ENDBRANCH   6   9
ENDBRANCH   2   3
TORSDOF 7
ENDMDL
MODEL      113
REMARK 921   NORMALIZED FREE ENERGY PREDICTED BY IDOCK:   -1.12 KCAL/MOL
REMARK 922        TOTAL FREE ENERGY PREDICTED BY IDOCK:   -2.70 KCAL/MOL
REMARK 923 INTER-LIGAND FREE ENERGY PREDICTED BY IDOCK:   -2.50 KCAL/MOL
REMARK 924 INTRA-LIGAND FREE ENERGY PREDICTED BY IDOCK:   -0.20 KCAL/MOL
REMARK 927      BINDING AFFINITY PREDICTED BY RF-SCORE:    0.00 PKD
ROOT
HETATM    1  C   UNL     1      -8.273  16.069  68.964  1.00  0.00    -0.235 C  
HETATM    2  O   UNL     1      -7.046  15.346  69.062  1.00  0.00    -0.123 OA 
ENDROOT
BRANCH   2   3
HETATM    3  C   UNL     1      -7.153  13.988  69.203  1.00  0.00    -0.085 A  
HETATM    4  C   UNL     1      -6.173  13.162  69.725  1.00  0.00    -0.108 A  
HETATM    5  C   UNL     1      -6.379  11.781  69.788  1.00  0.00    -0.125 A  
HETATM    6  C   UNL     1      -7.565  11.164  69.341  1.00  0.00    -0.013 A  
HETATM    7  C   UNL     1      -8.359  13.416  68.792  1.00  0.00     0.086 A  
HETATM    8  C   UNL     1      -8.568  12.023  68.861  1.00  0.00     0.189 A  
BRANCH   6   9
HETATM    9  C   UNL     1      -7.794   9.632  69.421  1.00  0.00    -0.104 C  
HETATM   10  S   UNL     1      -6.391   8.713  68.647  1.00  0.00    -0.054 SA 
HETATM   11  C   UNL     1      -6.523   7.301  69.680  1.00  0.00    -0.036 A  
HETATM   12  C   UNL     1      -7.573   6.379  69.539  1.00  0.00    -0.095 A  
HETATM   13  C   UNL     1      -7.602   5.293  70.410  1.00  0.00    -0.075 A  
HETATM   14  N   UNL     1      -8.616   6.615  68.565  1.00  0.00    -0.125 N  
HETATM   15  C   UNL     1      -5.552   7.164  70.686  1.00  0.00    -0.024 A  
HETATM   16  C   UNL     1      -6.635   5.164  71.429  1.00  0.00    -0.036 A  
HETATM   17  C   UNL     1      -9.535   7.630  68.903  1.00  0.00    -0.149 C  
HETATM   18  O   UNL     1     -10.716   7.344  69.140  1.00  0.00    -0.217 OA 
HETATM   19  C   UNL     1      -5.615   6.101  71.572  1.00  0.00    -0.026 A  
HETATM   20  C   UNL     1      -9.114   9.132  68.779  1.00  0.00    -0.136 C  
BRANCH  14  21
HETATM   21  C   UNL     1      -9.188   5.397  67.916  1.00  0.00    -0.110 C  
BRANCH  21  22
HETATM   22  C   UNL     1      -8.222   4.776  66.858  1.00  0.00    -0.107 C  
BRANCH  22  23
HETATM   23  N   UNL     1      -8.389   5.202  65.443  1.00  0.00    -0.126 NA 
HETATM   24  C   UNL     1      -7.571   4.342  64.571  1.00  0.00    -0.073 C  
HETATM   25  C   UNL     1      -8.010   6.597  65.214  1.00  0.00    -0.123 C  
ENDBRANCH  22  23
ENDBRANCH  21  22
ENDBRANCH  14  21
BRANCH  20  26
HETATM   26  O   UNL     1      -9.040   9.466  67.379  1.00  0.00    -0.126 OA 
BRANCH  26  27
HETATM   27  C   UNL     1     -10.216   9.563  66.720  1.00  0.00    -0.243 C  
HETATM   28  C   UNL     1     -10.434  10.989  66.324  1.00  0.00    -0.310 C  
HETATM   29  O   UNL     1     -10.998   8.651  66.510  1.00  0.00     0.207 OA 
ENDBRANCH  26  27
ENDBRANCH  20  26
ENDBRANCH   6   9
ENDBRANCH   2   3
TORSDOF 7
ENDMDL
MODEL      114
REMARK 921   NORMALIZED FREE ENERGY PREDICTED BY IDOCK:   -0.64 KCAL/MOL
REMARK 922        TOTAL FREE ENERGY PREDICTED BY IDOCK:   -2.02 KCAL/MOL
REMARK 923 INTER-LIGAND FREE ENERGY PREDICTED BY IDOCK:   -4.50 KCAL/MOL
REMARK 924 INTRA-LIGAND FREE ENERGY PREDICTED BY IDOCK:    2.48 KCAL/MOL
REMARK 927      BINDING AFFINITY PREDICTED BY RF-SCORE:    0.00 PKD
ROOT
HETATM    1  C   UNL     1      -5.966   3.306  66.568  1.00  0.00    -0.024 C  
HETATM    2  O   UNL     1      -7.381   3.496  66.557  1.00  0.00    -0.073 OA 
ENDROOT
BRANCH   2   3
HETATM    3  C   UNL     1      -7.817   4.790  66.461  1.00  0.00    -0.099 A  
HETATM    4  C   UNL     1      -8.257   5.398  65.298  1.00  0.00    -0.133 A  
HETATM    5  C   UNL     1      -8.646   6.741  65.310  1.00  0.00    -0.017 A  
HETATM    6  C   UNL     1      -8.618   7.533  66.476  1.00  0.00    -0.134 A  
HETATM    7  C   UNL     1      -7.818   5.533  67.643  1.00  0.00    -0.097 A  
HETATM    8  C   UNL     1      -8.216   6.886  67.656  1.00  0.00    -0.117 A  
BRANCH   6   9
HETATM    9  C   UNL     1      -9.060   9.020  66.488  1.00  0.00    -0.163 C  
HETATM   10  S   UNL     1      -8.066  10.014  65.290  1.00  0.00    -0.151 SA 
HETATM   11  C   UNL     1      -9.336  11.171  64.936  1.00  0.00    -0.194 A  
HETATM   12  C   UNL     1      -9.721  12.153  65.863  1.00  0.00    -0.239 A  
HETATM   13  C   UNL     1     -10.745  13.023  65.498  1.00  0.00    -0.299 A  
HETATM   14  N   UNL     1      -9.108  12.189  67.172  1.00  0.00    -0.183 N  
HETATM   15  C   UNL     1      -9.982  11.036  63.695  1.00  0.00    -0.415 A  
HETATM   16  C   UNL     1     -11.403  12.877  64.259  1.00  0.00    -0.417 A  
HETATM   17  C   UNL     1      -9.523  11.172  68.057  1.00  0.00    -0.174 C  
HETATM   18  O   UNL     1     -10.178  11.458  69.068  1.00  0.00    -0.193 OA 
HETATM   19  C   UNL     1     -11.027  11.881  63.361  1.00  0.00    -0.470 A  
HETATM   20  C   UNL     1      -8.985   9.714  67.873  1.00  0.00    -0.118 C  
BRANCH  14  21
HETATM   21  C   UNL     1      -8.924  13.546  67.769  1.00  0.00    -0.201 C  
BRANCH  21  22
HETATM   22  C   UNL     1      -8.009  14.462  66.894  1.00  0.00     0.134 C  
BRANCH  22  23
HETATM   23  N   UNL     1      -8.310  15.918  66.880  1.00  0.00    -0.221 NA 
HETATM   24  C   UNL     1      -7.136  16.658  66.388  1.00  0.00    -0.082 C  
HETATM   25  C   UNL     1      -8.677  16.443  68.196  1.00  0.00    -0.191 C  
ENDBRANCH  22  23
ENDBRANCH  21  22
ENDBRANCH  14  21
BRANCH  20  26
HETATM   26  O   UNL     1      -7.599   9.691  68.269  1.00  0.00    -0.078 OA 
BRANCH  26  27
HETATM   27  C   UNL     1      -6.977  10.888  68.355  1.00  0.00    -0.070 C  
HETATM   28  C   UNL     1      -6.980  11.334  69.782  1.00  0.00    -0.008 C  
HETATM   29  O   UNL     1      -6.519  11.527  67.422  1.00  0.00    -0.074 OA 
ENDBRANCH  26  27
ENDBRANCH  20  26
ENDBRANCH   6   9
ENDBRANCH   2   3
TORSDOF 7
ENDMDL
MODEL      115
REMARK 921   NORMALIZED FREE ENERGY PREDICTED BY IDOCK:   -0.38 KCAL/MOL
REMARK 922        TOTAL FREE ENERGY PREDICTED BY IDOCK:   -1.64 KCAL/MOL
REMARK 923 INTER-LIGAND FREE ENERGY PREDICTED BY IDOCK:   -2.75 KCAL/MOL
REMARK 924 INTRA-LIGAND FREE ENERGY PREDICTED BY IDOCK:    1.10 KCAL/MOL
REMARK 927      BINDING AFFINITY PREDICTED BY RF-SCORE:    0.00 PKD
ROOT
HETATM    1  C   UNL     1      -6.766  18.877  65.646  1.00  0.00    -0.275 C  
HETATM    2  O   UNL     1      -7.883  18.484  66.444  1.00  0.00    -0.255 OA 
ENDROOT
BRANCH   2   3
HETATM    3  C   UNL     1      -8.017  17.142  66.678  1.00  0.00    -0.265 A  
HETATM    4  C   UNL     1      -7.212  16.397  67.523  1.00  0.00    -0.171 A  
HETATM    5  C   UNL     1      -7.419  15.021  67.658  1.00  0.00    -0.202 A  
HETATM    6  C   UNL     1      -8.434  14.330  66.964  1.00  0.00    -0.190 A  
HETATM    7  C   UNL     1      -9.060  16.498  66.010  1.00  0.00    -0.290 A  
HETATM    8  C   UNL     1      -9.272  15.111  66.151  1.00  0.00    -0.318 A  
BRANCH   6   9
HETATM    9  C   UNL     1      -8.667  12.805  67.124  1.00  0.00    -0.202 C  
HETATM   10  S   UNL     1      -8.245  12.248  68.834  1.00  0.00     0.303 SA 
HETATM   11  C   UNL     1      -9.411  10.938  68.878  1.00  0.00    -0.172 A  
HETATM   12  C   UNL     1      -9.223   9.756  68.143  1.00  0.00    -0.128 A  
HETATM   13  C   UNL     1     -10.206   8.774  68.231  1.00  0.00    -0.240 A  
HETATM   14  N   UNL     1      -8.074   9.621  67.275  1.00  0.00    -0.110 N  
HETATM   15  C   UNL     1     -10.568  11.150  69.647  1.00  0.00    -0.076 A  
HETATM   16  C   UNL     1     -11.373   8.994  68.993  1.00  0.00     0.373 A  
HETATM   17  C   UNL     1      -8.133  10.369  66.081  1.00  0.00    -0.139 C  
HETATM   18  O   UNL     1      -8.215   9.790  64.989  1.00  0.00    -0.129 OA 
HETATM   19  C   UNL     1     -11.558  10.183  69.695  1.00  0.00    -0.216 A  
HETATM   20  C   UNL     1      -7.892  11.915  66.119  1.00  0.00     0.408 C  
BRANCH  14  21
HETATM   21  C   UNL     1      -7.499   8.247  67.164  1.00  0.00    -0.089 C  
BRANCH  21  22
HETATM   22  C   UNL     1      -6.728   7.817  68.452  1.00  0.00    -0.062 C  
BRANCH  22  23
HETATM   23  N   UNL     1      -6.835   6.395  68.873  1.00  0.00    -0.064 NA 
HETATM   24  C   UNL     1      -5.630   5.664  68.446  1.00  0.00    -0.008 C  
HETATM   25  C   UNL     1      -8.011   5.719  68.324  1.00  0.00    -0.104 C  
ENDBRANCH  22  23
ENDBRANCH  21  22
ENDBRANCH  14  21
BRANCH  20  26
HETATM   26  O   UNL     1      -6.490  12.146  66.363  1.00  0.00     0.108 OA 
BRANCH  26  27
HETATM   27  C   UNL     1      -5.700  11.052  66.427  1.00  0.00    -0.132 C  
HETATM   28  C   UNL     1      -5.174  10.913  67.820  1.00  0.00    -0.039 C  
HETATM   29  O   UNL     1      -5.423  10.313  65.497  1.00  0.00    -0.061 OA 
ENDBRANCH  26  27
ENDBRANCH  20  26
ENDBRANCH   6   9
ENDBRANCH   2   3
TORSDOF 7
ENDMDL
MODEL      116
REMARK 921   NORMALIZED FREE ENERGY PREDICTED BY IDOCK:   -0.25 KCAL/MOL
REMARK 922        TOTAL FREE ENERGY PREDICTED BY IDOCK:   -1.46 KCAL/MOL
REMARK 923 INTER-LIGAND FREE ENERGY PREDICTED BY IDOCK:   -3.02 KCAL/MOL
REMARK 924 INTRA-LIGAND FREE ENERGY PREDICTED BY IDOCK:    1.56 KCAL/MOL
REMARK 927      BINDING AFFINITY PREDICTED BY RF-SCORE:    0.00 PKD
ROOT
HETATM    1  C   UNL     1     -10.534  20.396  64.587  1.00  0.00     1.841 C  
HETATM    2  O   UNL     1     -11.250  19.819  65.679  1.00  0.00    -0.193 OA 
ENDROOT
BRANCH   2   3
HETATM    3  C   UNL     1     -10.639  18.776  66.321  1.00  0.00    -0.369 A  
HETATM    4  C   UNL     1     -10.192  18.798  67.630  1.00  0.00    -0.450 A  
HETATM    5  C   UNL     1      -9.547  17.682  68.172  1.00  0.00    -0.297 A  
HETATM    6  C   UNL     1      -9.323  16.499  67.438  1.00  0.00    -0.223 A  
HETATM    7  C   UNL     1     -10.473  17.604  65.579  1.00  0.00    -0.048 A  
HETATM    8  C   UNL     1      -9.828  16.477  66.127  1.00  0.00    -0.355 A  
BRANCH   6   9
HETATM    9  C   UNL     1      -8.615  15.259  68.045  1.00  0.00    -0.152 C  
HETATM   10  S   UNL     1      -6.813  15.262  67.639  1.00  0.00    -0.186 SA 
HETATM   11  C   UNL     1      -6.310  14.427  69.097  1.00  0.00    -0.102 A  
HETATM   12  C   UNL     1      -6.552  13.056  69.285  1.00  0.00    -0.089 A  
HETATM   13  C   UNL     1      -6.126  12.480  70.478  1.00  0.00     0.073 A  
HETATM   14  N   UNL     1      -7.289  12.311  68.288  1.00  0.00    -0.100 N  
HETATM   15  C   UNL     1      -5.694  15.208  70.090  1.00  0.00    -0.134 A  
HETATM   16  C   UNL     1      -5.520  13.268  71.479  1.00  0.00    -0.131 A  
HETATM   17  C   UNL     1      -8.675  12.564  68.251  1.00  0.00    -0.171 C  
HETATM   18  O   UNL     1      -9.477  11.677  68.572  1.00  0.00    -0.195 OA 
HETATM   19  C   UNL     1      -5.311  14.632  71.289  1.00  0.00    -0.144 A  
HETATM   20  C   UNL     1      -9.206  13.892  67.615  1.00  0.00    -0.199 C  
BRANCH  14  21
HETATM   21  C   UNL     1      -6.874  10.888  68.101  1.00  0.00    -0.067 C  
BRANCH  21  22
HETATM   22  C   UNL     1      -7.945   9.881  68.627  1.00  0.00    -0.087 C  
BRANCH  22  23
HETATM   23  N   UNL     1      -7.460   8.702  69.393  1.00  0.00    -0.079 NA 
HETATM   24  C   UNL     1      -7.981   7.468  68.780  1.00  0.00    -0.126 C  
HETATM   25  C   UNL     1      -7.857   8.729  70.801  1.00  0.00    -0.109 C  
ENDBRANCH  22  23
ENDBRANCH  21  22
ENDBRANCH  14  21
BRANCH  20  26
HETATM   26  O   UNL     1      -9.039  13.805  66.186  1.00  0.00    -0.077 OA 
BRANCH  26  27
HETATM   27  C   UNL     1      -9.976  13.103  65.511  1.00  0.00    -0.207 C  
HETATM   28  C   UNL     1     -10.978  14.055  64.939  1.00  0.00    -0.398 C  
HETATM   29  O   UNL     1     -10.029  11.888  65.411  1.00  0.00    -0.244 OA 
ENDBRANCH  26  27
ENDBRANCH  20  26
ENDBRANCH   6   9
ENDBRANCH   2   3
TORSDOF 7
ENDMDL
MODEL      117
REMARK 921   NORMALIZED FREE ENERGY PREDICTED BY IDOCK:    0.08 KCAL/MOL
REMARK 922        TOTAL FREE ENERGY PREDICTED BY IDOCK:   -1.00 KCAL/MOL
REMARK 923 INTER-LIGAND FREE ENERGY PREDICTED BY IDOCK:   -3.47 KCAL/MOL
REMARK 924 INTRA-LIGAND FREE ENERGY PREDICTED BY IDOCK:    2.47 KCAL/MOL
REMARK 927      BINDING AFFINITY PREDICTED BY RF-SCORE:    0.00 PKD
ROOT
HETATM    1  C   UNL     1      -9.861   6.737  70.719  1.00  0.00    -0.183 C  
HETATM    2  O   UNL     1      -8.986   7.118  69.657  1.00  0.00    -0.141 OA 
ENDROOT
BRANCH   2   3
HETATM    3  C   UNL     1      -9.051   8.427  69.260  1.00  0.00    -0.150 A  
HETATM    4  C   UNL     1      -7.981   9.171  68.792  1.00  0.00    -0.100 A  
HETATM    5  C   UNL     1      -8.157  10.514  68.448  1.00  0.00    -0.119 A  
HETATM    6  C   UNL     1      -9.400  11.173  68.551  1.00  0.00    -0.190 A  
HETATM    7  C   UNL     1     -10.306   9.035  69.331  1.00  0.00    -0.217 A  
HETATM    8  C   UNL     1     -10.484  10.388  68.979  1.00  0.00    -0.240 A  
BRANCH   6   9
HETATM    9  C   UNL     1      -9.593  12.661  68.159  1.00  0.00    -0.219 C  
HETATM   10  S   UNL     1      -8.613  13.080  66.650  1.00  0.00     0.140 SA 
HETATM   11  C   UNL     1      -9.716  14.312  66.068  1.00  0.00    -0.287 A  
HETATM   12  C   UNL     1      -9.819  15.566  66.692  1.00  0.00    -0.254 A  
HETATM   13  C   UNL     1     -10.729  16.479  66.166  1.00  0.00    -0.155 A  
HETATM   14  N   UNL     1      -9.048  15.845  67.883  1.00  0.00    -0.189 N  
HETATM   15  C   UNL     1     -10.527  13.965  64.974  1.00  0.00    -0.428 A  
HETATM   16  C   UNL     1     -11.553  16.125  65.077  1.00  0.00     0.162 A  
HETATM   17  C   UNL     1      -9.505  15.209  69.056  1.00  0.00    -0.221 C  
HETATM   18  O   UNL     1      -9.973  15.881  69.985  1.00  0.00    -0.226 OA 
HETATM   19  C   UNL     1     -11.457  14.867  64.485  1.00  0.00    -0.328 A  
HETATM   20  C   UNL     1      -9.235  13.683  69.268  1.00  0.00     0.665 C  
BRANCH  14  21
HETATM   21  C   UNL     1      -8.576  17.254  68.039  1.00  0.00    -0.234 C  
BRANCH  21  22
HETATM   22  C   UNL     1      -7.906  17.804  66.740  1.00  0.00    -0.233 C  
BRANCH  22  23
HETATM   23  N   UNL     1      -6.581  18.464  66.878  1.00  0.00    -0.182 NA 
HETATM   24  C   UNL     1      -5.543  17.619  66.263  1.00  0.00    -0.210 C  
HETATM   25  C   UNL     1      -6.209  18.722  68.270  1.00  0.00    -0.208 C  
ENDBRANCH  22  23
ENDBRANCH  21  22
ENDBRANCH  14  21
BRANCH  20  26
HETATM   26  O   UNL     1      -7.831  13.508  69.548  1.00  0.00     0.430 OA 
BRANCH  26  27
HETATM   27  C   UNL     1      -7.012  14.514  69.172  1.00  0.00    -0.131 C  
HETATM   28  C   UNL     1      -6.601  15.286  70.385  1.00  0.00     0.091 C  
HETATM   29  O   UNL     1      -6.684  14.782  68.028  1.00  0.00    -0.114 OA 
ENDBRANCH  26  27
ENDBRANCH  20  26
ENDBRANCH   6   9
ENDBRANCH   2   3
TORSDOF 7
ENDMDL
MODEL      118
REMARK 921   NORMALIZED FREE ENERGY PREDICTED BY IDOCK:    0.17 KCAL/MOL
REMARK 922        TOTAL FREE ENERGY PREDICTED BY IDOCK:   -0.87 KCAL/MOL
REMARK 923 INTER-LIGAND FREE ENERGY PREDICTED BY IDOCK:   -3.92 KCAL/MOL
REMARK 924 INTRA-LIGAND FREE ENERGY PREDICTED BY IDOCK:    3.05 KCAL/MOL
REMARK 927      BINDING AFFINITY PREDICTED BY RF-SCORE:    0.00 PKD
ROOT
HETATM    1  C   UNL     1      -7.380  15.201  67.894  1.00  0.00    -0.139 C  
HETATM    2  O   UNL     1      -6.463  14.115  68.027  1.00  0.00    -0.117 OA 
ENDROOT
BRANCH   2   3
HETATM    3  C   UNL     1      -7.015  12.869  68.153  1.00  0.00    -0.102 A  
HETATM    4  C   UNL     1      -7.925  12.308  67.274  1.00  0.00    -0.177 A  
HETATM    5  C   UNL     1      -8.453  11.038  67.524  1.00  0.00    -0.127 A  
HETATM    6  C   UNL     1      -8.096  10.271  68.652  1.00  0.00    -0.114 A  
HETATM    7  C   UNL     1      -6.606  12.118  69.258  1.00  0.00    -0.104 A  
HETATM    8  C   UNL     1      -7.133  10.835  69.506  1.00  0.00    -0.132 A  
BRANCH   6   9
HETATM    9  C   UNL     1      -8.675   8.857  68.921  1.00  0.00    -0.136 C  
HETATM   10  S   UNL     1      -7.657   7.953  70.168  1.00  0.00    -0.085 SA 
HETATM   11  C   UNL     1      -8.985   7.010  70.820  1.00  0.00    -0.150 A  
HETATM   12  C   UNL     1      -9.559   5.948  70.103  1.00  0.00    -0.162 A  
HETATM   13  C   UNL     1     -10.616   5.262  70.695  1.00  0.00    -0.263 A  
HETATM   14  N   UNL     1      -9.097   5.646  68.766  1.00  0.00    -0.117 N  
HETATM   15  C   UNL     1      -9.479   7.403  72.076  1.00  0.00    -0.162 A  
HETATM   16  C   UNL     1     -11.119   5.665  71.950  1.00  0.00    -0.278 A  
HETATM   17  C   UNL     1      -9.506   6.557  67.770  1.00  0.00    -0.119 C  
HETATM   18  O   UNL     1     -10.290   6.195  66.883  1.00  0.00    -0.196 OA 
HETATM   19  C   UNL     1     -10.557   6.739  72.637  1.00  0.00    -0.252 A  
HETATM   20  C   UNL     1      -8.816   7.957  67.666  1.00  0.00    -0.128 C  
BRANCH  14  21
HETATM   21  C   UNL     1      -9.106   4.202  68.383  1.00  0.00    -0.132 C  
BRANCH  21  22
HETATM   22  C   UNL     1      -9.397   3.991  66.864  1.00  0.00    -0.182 C  
BRANCH  22  23
HETATM   23  N   UNL     1      -8.633   2.926  66.161  1.00  0.00    -0.113 NA 
HETATM   24  C   UNL     1      -8.723   3.134  64.706  1.00  0.00    -0.103 C  
HETATM   25  C   UNL     1      -9.110   1.577  66.470  1.00  0.00    -0.044 C  
ENDBRANCH  22  23
ENDBRANCH  21  22
ENDBRANCH  14  21
BRANCH  20  26
HETATM   26  O   UNL     1      -7.484   7.767  67.147  1.00  0.00    -0.092 OA 
BRANCH  26  27
HETATM   27  C   UNL     1      -7.155   6.509  66.779  1.00  0.00    -0.069 C  
HETATM   28  C   UNL     1      -7.391   6.356  65.310  1.00  0.00    -0.077 C  
HETATM   29  O   UNL     1      -6.766   5.623  67.521  1.00  0.00    -0.055 OA 
ENDBRANCH  26  27
ENDBRANCH  20  26
ENDBRANCH   6   9
ENDBRANCH   2   3
TORSDOF 7
ENDMDL
MODEL      119
REMARK 921   NORMALIZED FREE ENERGY PREDICTED BY IDOCK:    0.31 KCAL/MOL
REMARK 922        TOTAL FREE ENERGY PREDICTED BY IDOCK:   -0.68 KCAL/MOL
REMARK 923 INTER-LIGAND FREE ENERGY PREDICTED BY IDOCK:   -5.06 KCAL/MOL
REMARK 924 INTRA-LIGAND FREE ENERGY PREDICTED BY IDOCK:    4.38 KCAL/MOL
REMARK 927      BINDING AFFINITY PREDICTED BY RF-SCORE:    0.00 PKD
ROOT
HETATM    1  C   UNL     1      -5.973   4.404  63.002  1.00  0.00    -0.017 C  
HETATM    2  O   UNL     1      -6.601   4.469  64.282  1.00  0.00    -0.040 OA 
ENDROOT
BRANCH   2   3
HETATM    3  C   UNL     1      -6.923   5.720  64.736  1.00  0.00    -0.052 A  
HETATM    4  C   UNL     1      -7.161   6.050  66.059  1.00  0.00    -0.074 A  
HETATM    5  C   UNL     1      -7.519   7.357  66.403  1.00  0.00    -0.084 A  
HETATM    6  C   UNL     1      -7.653   8.389  65.451  1.00  0.00    -0.092 A  
HETATM    7  C   UNL     1      -7.003   6.727  63.772  1.00  0.00    -0.056 A  
HETATM    8  C   UNL     1      -7.359   8.046  64.120  1.00  0.00    -0.096 A  
BRANCH   6   9
HETATM    9  C   UNL     1      -8.041   9.840  65.838  1.00  0.00    -0.114 C  
HETATM   10  S   UNL     1      -8.059  10.052  67.672  1.00  0.00    -0.109 SA 
HETATM   11  C   UNL     1      -7.608  11.747  67.651  1.00  0.00    -0.132 A  
HETATM   12  C   UNL     1      -8.508  12.745  67.245  1.00  0.00    -0.194 A  
HETATM   13  C   UNL     1      -8.060  14.064  67.251  1.00  0.00    -0.174 A  
HETATM   14  N   UNL     1      -9.825  12.381  66.771  1.00  0.00    -0.217 N  
HETATM   15  C   UNL     1      -6.285  12.051  68.015  1.00  0.00    -0.058 A  
HETATM   16  C   UNL     1      -6.728  14.367  67.604  1.00  0.00    -0.188 A  
HETATM   17  C   UNL     1      -9.862  11.806  65.484  1.00  0.00    -0.234 C  
HETATM   18  O   UNL     1     -10.400  12.412  64.548  1.00  0.00    -0.300 OA 
HETATM   19  C   UNL     1      -5.839  13.362  67.978  1.00  0.00    -0.124 A  
HETATM   20  C   UNL     1      -9.405  10.323  65.281  1.00  0.00    -0.215 C  
BRANCH  14  21
HETATM   21  C   UNL     1     -10.923  13.340  67.095  1.00  0.00    -0.272 C  
BRANCH  21  22
HETATM   22  C   UNL     1     -10.891  13.800  68.587  1.00  0.00    -0.263 C  
BRANCH  22  23
HETATM   23  N   UNL     1     -11.840  14.870  68.996  1.00  0.00    -0.308 NA 
HETATM   24  C   UNL     1     -11.137  16.164  69.029  1.00  0.00    -0.336 C  
HETATM   25  C   UNL     1     -12.445  14.632  70.307  1.00  0.00    -0.346 C  
ENDBRANCH  22  23
ENDBRANCH  21  22
ENDBRANCH  14  21
BRANCH  20  26
HETATM   26  O   UNL     1     -10.410   9.461  65.851  1.00  0.00    -0.191 OA 
BRANCH  26  27
HETATM   27  C   UNL     1     -10.875   9.803  67.073  1.00  0.00    -0.094 C  
HETATM   28  C   UNL     1     -10.630   8.671  68.020  1.00  0.00    -0.205 C  
HETATM   29  O   UNL     1     -11.440  10.845  67.359  1.00  0.00    -0.479 OA 
ENDBRANCH  26  27
ENDBRANCH  20  26
ENDBRANCH   6   9
ENDBRANCH   2   3
TORSDOF 7
ENDMDL
MODEL      120
REMARK 921   NORMALIZED FREE ENERGY PREDICTED BY IDOCK:    4.34 KCAL/MOL
REMARK 922        TOTAL FREE ENERGY PREDICTED BY IDOCK:    5.00 KCAL/MOL
REMARK 923 INTER-LIGAND FREE ENERGY PREDICTED BY IDOCK:    4.64 KCAL/MOL
REMARK 924 INTRA-LIGAND FREE ENERGY PREDICTED BY IDOCK:    0.35 KCAL/MOL
REMARK 927      BINDING AFFINITY PREDICTED BY RF-SCORE:    0.00 PKD
ROOT
HETATM    1  C   UNL     1      -8.936  12.376  62.615  1.00  0.00     2.694 C  
HETATM    2  O   UNL     1      -9.402  12.248  63.958  1.00  0.00     0.153 OA 
ENDROOT
BRANCH   2   3
HETATM    3  C   UNL     1      -9.077  11.086  64.604  1.00  0.00    -0.122 A  
HETATM    4  C   UNL     1      -8.153  10.976  65.628  1.00  0.00     0.004 A  
HETATM    5  C   UNL     1      -7.873   9.727  66.190  1.00  0.00    -0.107 A  
HETATM    6  C   UNL     1      -8.501   8.539  65.764  1.00  0.00    -0.167 A  
HETATM    7  C   UNL     1      -9.751   9.936  64.187  1.00  0.00    -0.071 A  
HETATM    8  C   UNL     1      -9.473   8.678  64.759  1.00  0.00     0.730 A  
BRANCH   6   9
HETATM    9  C   UNL     1      -8.196   7.156  66.398  1.00  0.00    -0.120 C  
HETATM   10  S   UNL     1      -6.394   6.763  66.288  1.00  0.00    -0.047 SA 
HETATM   11  C   UNL     1      -6.342   5.799  67.753  1.00  0.00    -0.042 A  
HETATM   12  C   UNL     1      -6.906   4.514  67.812  1.00  0.00    -0.055 A  
HETATM   13  C   UNL     1      -6.826   3.826  69.020  1.00  0.00    -0.046 A  
HETATM   14  N   UNL     1      -7.606   3.980  66.665  1.00  0.00    -0.087 N  
HETATM   15  C   UNL     1      -5.750   6.396  68.879  1.00  0.00    -0.020 A  
HETATM   16  C   UNL     1      -6.244   4.432  70.153  1.00  0.00    -0.022 A  
HETATM   17  C   UNL     1      -8.876   4.540  66.421  1.00  0.00    -0.113 C  
HETATM   18  O   UNL     1      -9.896   3.849  66.552  1.00  0.00    -0.198 OA 
HETATM   19  C   UNL     1      -5.713   5.718  70.086  1.00  0.00    -0.016 A  
HETATM   20  C   UNL     1      -8.988   5.969  65.792  1.00  0.00    -0.104 C  
BRANCH  14  21
HETATM   21  C   UNL     1      -7.485   2.505  66.457  1.00  0.00    -0.070 C  
BRANCH  21  22
HETATM   22  C   UNL     1      -6.953   2.145  65.034  1.00  0.00    -0.047 C  
BRANCH  22  23
HETATM   23  N   UNL     1      -5.524   2.438  64.742  1.00  0.00    -0.009 NA 
HETATM   24  C   UNL     1      -5.210   3.817  65.153  1.00  0.00    -0.009 C  
HETATM   25  C   UNL     1      -5.183   2.282  63.328  1.00  0.00    -0.007 C  
ENDBRANCH  22  23
ENDBRANCH  21  22
ENDBRANCH  14  21
BRANCH  20  26
HETATM   26  O   UNL     1      -8.602   5.883  64.406  1.00  0.00    -0.047 OA 
BRANCH  26  27
HETATM   27  C   UNL     1      -9.447   5.222  63.585  1.00  0.00     0.664 C  
HETATM   28  C   UNL     1      -8.660   4.267  62.745  1.00  0.00    -0.100 C  
HETATM   29  O   UNL     1     -10.652   5.395  63.505  1.00  0.00     2.021 OA 
ENDBRANCH  26  27
ENDBRANCH  20  26
ENDBRANCH   6   9
ENDBRANCH   2   3
TORSDOF 7
ENDMDL
MODEL      121
REMARK 921   NORMALIZED FREE ENERGY PREDICTED BY IDOCK:    4.53 KCAL/MOL
REMARK 922        TOTAL FREE ENERGY PREDICTED BY IDOCK:    5.28 KCAL/MOL
REMARK 923 INTER-LIGAND FREE ENERGY PREDICTED BY IDOCK:    0.11 KCAL/MOL
REMARK 924 INTRA-LIGAND FREE ENERGY PREDICTED BY IDOCK:    5.17 KCAL/MOL
REMARK 927      BINDING AFFINITY PREDICTED BY RF-SCORE:    0.00 PKD
ROOT
HETATM    1  C   UNL     1      -8.087  15.220  68.662  1.00  0.00    -0.156 C  
HETATM    2  O   UNL     1      -8.819  14.109  68.147  1.00  0.00    -0.168 OA 
ENDROOT
BRANCH   2   3
HETATM    3  C   UNL     1      -8.687  12.929  68.828  1.00  0.00     0.178 A  
HETATM    4  C   UNL     1      -7.505  12.445  69.360  1.00  0.00     0.400 A  
HETATM    5  C   UNL     1      -7.481  11.205  70.007  1.00  0.00     0.597 A  
HETATM    6  C   UNL     1      -8.628  10.399  70.156  1.00  0.00     0.425 A  
HETATM    7  C   UNL     1      -9.852  12.176  68.997  1.00  0.00     0.190 A  
HETATM    8  C   UNL     1      -9.828  10.930  69.654  1.00  0.00     0.151 A  
BRANCH   6   9
HETATM    9  C   UNL     1      -8.600   9.029  70.883  1.00  0.00    -0.215 C  
HETATM   10  S   UNL     1      -8.484   7.640  69.670  1.00  0.00    -0.135 SA 
HETATM   11  C   UNL     1      -7.600   6.561  70.733  1.00  0.00    -0.089 A  
HETATM   12  C   UNL     1      -8.218   5.929  71.824  1.00  0.00    -0.119 A  
HETATM   13  C   UNL     1      -7.435   5.096  72.620  1.00  0.00    -0.096 A  
HETATM   14  N   UNL     1      -9.603   6.211  72.132  1.00  0.00    -0.152 N  
HETATM   15  C   UNL     1      -6.230   6.397  70.466  1.00  0.00    -0.039 A  
HETATM   16  C   UNL     1      -6.057   4.943  72.359  1.00  0.00    -0.025 A  
HETATM   17  C   UNL     1      -9.844   7.474  72.710  1.00  0.00    -0.208 C  
HETATM   18  O   UNL     1     -10.241   7.556  73.880  1.00  0.00    -0.280 OA 
HETATM   19  C   UNL     1      -5.453   5.598  71.288  1.00  0.00    -0.013 A  
HETATM   20  C   UNL     1      -9.808   8.758  71.816  1.00  0.00    -0.321 C  
BRANCH  14  21
HETATM   21  C   UNL     1     -10.392   5.070  72.688  1.00  0.00    -0.199 C  
BRANCH  21  22
HETATM   22  C   UNL     1     -11.270   4.369  71.604  1.00  0.00     1.085 C  
BRANCH  22  23
HETATM   23  N   UNL     1     -11.318   4.990  70.254  1.00  0.00     1.284 NA 
HETATM   24  C   UNL     1     -10.018   4.816  69.584  1.00  0.00    -0.227 C  
HETATM   25  C   UNL     1     -11.638   6.418  70.289  1.00  0.00    -0.383 C  
ENDBRANCH  22  23
ENDBRANCH  21  22
ENDBRANCH  14  21
BRANCH  20  26
HETATM   26  O   UNL     1     -10.981   8.757  70.978  1.00  0.00    -0.241 OA 
BRANCH  26  27
HETATM   27  C   UNL     1     -12.173   8.813  71.611  1.00  0.00    -0.339 C  
HETATM   28  C   UNL     1     -12.573  10.246  71.769  1.00  0.00    -0.488 C  
HETATM   29  O   UNL     1     -12.810   7.859  72.026  1.00  0.00    -0.307 OA 
ENDBRANCH  26  27
ENDBRANCH  20  26
ENDBRANCH   6   9
ENDBRANCH   2   3
TORSDOF 7
ENDMDL
MODEL      122
REMARK 921   NORMALIZED FREE ENERGY PREDICTED BY IDOCK:    4.63 KCAL/MOL
REMARK 922        TOTAL FREE ENERGY PREDICTED BY IDOCK:    5.41 KCAL/MOL
REMARK 923 INTER-LIGAND FREE ENERGY PREDICTED BY IDOCK:    4.69 KCAL/MOL
REMARK 924 INTRA-LIGAND FREE ENERGY PREDICTED BY IDOCK:    0.72 KCAL/MOL
REMARK 927      BINDING AFFINITY PREDICTED BY RF-SCORE:    0.00 PKD
ROOT
HETATM    1  C   UNL     1     -12.329  13.980  74.543  1.00  0.00     3.485 C  
HETATM    2  O   UNL     1     -13.314  14.134  73.521  1.00  0.00    -0.295 OA 
ENDROOT
BRANCH   2   3
HETATM    3  C   UNL     1     -12.874  14.639  72.327  1.00  0.00    -0.340 A  
HETATM    4  C   UNL     1     -12.787  15.984  72.014  1.00  0.00    -0.375 A  
HETATM    5  C   UNL     1     -12.356  16.385  70.746  1.00  0.00     0.708 A  
HETATM    6  C   UNL     1     -11.990  15.468  69.739  1.00  0.00    -0.384 A  
HETATM    7  C   UNL     1     -12.476  13.704  71.368  1.00  0.00    -0.374 A  
HETATM    8  C   UNL     1     -12.036  14.109  70.091  1.00  0.00    -0.411 A  
BRANCH   6   9
HETATM    9  C   UNL     1     -11.502  15.916  68.336  1.00  0.00    -0.348 C  
HETATM   10  S   UNL     1     -10.491  14.594  67.535  1.00  0.00    -0.248 SA 
HETATM   11  C   UNL     1     -10.937  15.013  65.891  1.00  0.00    -0.343 A  
HETATM   12  C   UNL     1     -10.439  16.166  65.262  1.00  0.00    -0.331 A  
HETATM   13  C   UNL     1     -10.856  16.423  63.959  1.00  0.00     1.525 A  
HETATM   14  N   UNL     1      -9.585  17.075  65.993  1.00  0.00    -0.229 N  
HETATM   15  C   UNL     1     -11.855  14.162  65.252  1.00  0.00    -0.367 A  
HETATM   16  C   UNL     1     -11.788  15.576  63.322  1.00  0.00     2.226 A  
HETATM   17  C   UNL     1     -10.239  17.869  66.958  1.00  0.00    -0.358 C  
HETATM   18  O   UNL     1     -10.320  19.094  66.803  1.00  0.00    -0.363 OA 
HETATM   19  C   UNL     1     -12.292  14.451  63.970  1.00  0.00    -0.243 A  
HETATM   20  C   UNL     1     -10.682  17.232  68.317  1.00  0.00    -0.349 C  
BRANCH  14  21
HETATM   21  C   UNL     1      -8.521  17.754  65.194  1.00  0.00     2.651 C  
BRANCH  21  22
HETATM   22  C   UNL     1      -8.468  19.292  65.457  1.00  0.00     0.692 C  
BRANCH  22  23
HETATM   23  N   UNL     1      -7.131  19.943  65.452  1.00  0.00    -0.324 NA 
HETATM   24  C   UNL     1      -6.084  18.916  65.317  1.00  0.00    -0.270 C  
HETATM   25  C   UNL     1      -6.867  20.724  66.661  1.00  0.00    -0.264 C  
ENDBRANCH  22  23
ENDBRANCH  21  22
ENDBRANCH  14  21
BRANCH  20  26
HETATM   26  O   UNL     1      -9.501  16.990  69.108  1.00  0.00    -0.217 OA 
BRANCH  26  27
HETATM   27  C   UNL     1      -8.562  17.961  69.102  1.00  0.00     0.131 C  
HETATM   28  C   UNL     1      -7.253  17.369  68.683  1.00  0.00    -0.237 C  
HETATM   29  O   UNL     1      -8.733  19.126  69.421  1.00  0.00    -0.052 OA 
ENDBRANCH  26  27
ENDBRANCH  20  26
ENDBRANCH   6   9
ENDBRANCH   2   3
TORSDOF 7
ENDMDL
MODEL      123
REMARK 921   NORMALIZED FREE ENERGY PREDICTED BY IDOCK:    4.89 KCAL/MOL
REMARK 922        TOTAL FREE ENERGY PREDICTED BY IDOCK:    5.78 KCAL/MOL
REMARK 923 INTER-LIGAND FREE ENERGY PREDICTED BY IDOCK:   -3.58 KCAL/MOL
REMARK 924 INTRA-LIGAND FREE ENERGY PREDICTED BY IDOCK:    9.35 KCAL/MOL
REMARK 927      BINDING AFFINITY PREDICTED BY RF-SCORE:    0.00 PKD
ROOT
HETATM    1  C   UNL     1     -12.886  15.480  70.526  1.00  0.00    -0.353 C  
HETATM    2  O   UNL     1     -12.815  14.640  69.374  1.00  0.00     0.080 OA 
ENDROOT
BRANCH   2   3
HETATM    3  C   UNL     1     -12.220  13.420  69.550  1.00  0.00    -0.205 A  
HETATM    4  C   UNL     1     -11.376  12.808  68.640  1.00  0.00    -0.333 A  
HETATM    5  C   UNL     1     -10.852  11.540  68.910  1.00  0.00    -0.263 A  
HETATM    6  C   UNL     1     -11.141  10.830  70.094  1.00  0.00    -0.298 A  
HETATM    7  C   UNL     1     -12.491  12.765  70.753  1.00  0.00    -0.357 A  
HETATM    8  C   UNL     1     -11.959  11.489  71.027  1.00  0.00    -0.095 A  
BRANCH   6   9
HETATM    9  C   UNL     1     -10.550   9.428  70.395  1.00  0.00    -0.261 C  
HETATM   10  S   UNL     1      -8.849   9.566  71.101  1.00  0.00     0.534 SA 
HETATM   11  C   UNL     1      -8.950   8.108  72.072  1.00  0.00    -0.176 A  
HETATM   12  C   UNL     1      -8.910   6.830  71.492  1.00  0.00    -0.137 A  
HETATM   13  C   UNL     1      -9.007   5.730  72.340  1.00  0.00    -0.141 A  
HETATM   14  N   UNL     1      -8.845   6.692  70.054  1.00  0.00    -0.141 N  
HETATM   15  C   UNL     1      -9.122   8.284  73.456  1.00  0.00    -0.208 A  
HETATM   16  C   UNL     1      -9.193   5.908  73.727  1.00  0.00    -0.127 A  
HETATM   17  C   UNL     1     -10.043   6.980  69.368  1.00  0.00    -0.169 C  
HETATM   18  O   UNL     1     -10.654   6.078  68.779  1.00  0.00    -0.221 OA 
HETATM   19  C   UNL     1      -9.258   7.183  74.284  1.00  0.00    -0.250 A  
HETATM   20  C   UNL     1     -10.494   8.466  69.180  1.00  0.00    -0.206 C  
BRANCH  14  21
HETATM   21  C   UNL     1      -8.059   5.528  69.546  1.00  0.00    -0.101 C  
BRANCH  21  22
HETATM   22  C   UNL     1      -8.953   4.277  69.275  1.00  0.00    -0.102 C  
BRANCH  22  23
HETATM   23  N   UNL     1      -9.135   3.310  70.389  1.00  0.00    -0.106 NA 
HETATM   24  C   UNL     1      -7.846   2.671  70.702  1.00  0.00    -0.042 C  
HETATM   25  C   UNL     1     -10.115   2.265  70.089  1.00  0.00     0.719 C  
ENDBRANCH  22  23
ENDBRANCH  21  22
ENDBRANCH  14  21
BRANCH  20  26
HETATM   26  O   UNL     1      -9.623   9.082  68.210  1.00  0.00    -0.142 OA 
BRANCH  26  27
HETATM   27  C   UNL     1     -10.121  10.148  67.545  1.00  0.00    -0.201 C  
HETATM   28  C   UNL     1      -9.158  11.286  67.663  1.00  0.00    -0.149 C  
HETATM   29  O   UNL     1     -11.196  10.197  66.971  1.00  0.00    -0.125 OA 
ENDBRANCH  26  27
ENDBRANCH  20  26
ENDBRANCH   6   9
ENDBRANCH   2   3
TORSDOF 7
ENDMDL
MODEL      124
REMARK 921   NORMALIZED FREE ENERGY PREDICTED BY IDOCK:    6.70 KCAL/MOL
REMARK 922        TOTAL FREE ENERGY PREDICTED BY IDOCK:    8.32 KCAL/MOL
REMARK 923 INTER-LIGAND FREE ENERGY PREDICTED BY IDOCK:    8.45 KCAL/MOL
REMARK 924 INTRA-LIGAND FREE ENERGY PREDICTED BY IDOCK:   -0.13 KCAL/MOL
REMARK 927      BINDING AFFINITY PREDICTED BY RF-SCORE:    0.00 PKD
ROOT
HETATM    1  C   UNL     1     -13.905   7.492  72.066  1.00  0.00    -0.155 C  
HETATM    2  O   UNL     1     -13.255   8.586  72.713  1.00  0.00    -0.232 OA 
ENDROOT
BRANCH   2   3
HETATM    3  C   UNL     1     -12.498   9.399  71.913  1.00  0.00    -0.390 A  
HETATM    4  C   UNL     1     -12.834  10.691  71.546  1.00  0.00    -0.567 A  
HETATM    5  C   UNL     1     -12.000  11.418  70.692  1.00  0.00    -0.413 A  
HETATM    6  C   UNL     1     -10.799  10.896  70.170  1.00  0.00    -0.054 A  
HETATM    7  C   UNL     1     -11.293   8.866  71.450  1.00  0.00    -0.380 A  
HETATM    8  C   UNL     1     -10.450   9.602  70.593  1.00  0.00    -0.379 A  
BRANCH   6   9
HETATM    9  C   UNL     1      -9.871  11.709  69.230  1.00  0.00     0.311 C  
HETATM   10  S   UNL     1      -9.496  13.369  69.947  1.00  0.00     2.734 SA 
HETATM   11  C   UNL     1      -7.906  13.513  69.219  1.00  0.00     0.410 A  
HETATM   12  C   UNL     1      -7.742  13.758  67.846  1.00  0.00    -0.161 A  
HETATM   13  C   UNL     1      -6.443  13.847  67.354  1.00  0.00     0.082 A  
HETATM   14  N   UNL     1      -8.900  13.835  66.983  1.00  0.00    -0.229 N  
HETATM   15  C   UNL     1      -6.804  13.323  70.070  1.00  0.00     0.412 A  
HETATM   16  C   UNL     1      -5.337  13.643  68.206  1.00  0.00    -0.107 A  
HETATM   17  C   UNL     1      -9.524  12.602  66.702  1.00  0.00    -0.244 C  
HETATM   18  O   UNL     1      -9.503  12.143  65.552  1.00  0.00    -0.185 OA 
HETATM   19  C   UNL     1      -5.517  13.375  69.561  1.00  0.00    -0.089 A  
HETATM   20  C   UNL     1     -10.412  11.914  67.792  1.00  0.00    -0.202 C  
BRANCH  14  21
HETATM   21  C   UNL     1      -8.802  14.798  65.845  1.00  0.00     0.478 C  
BRANCH  21  22
HETATM   22  C   UNL     1      -9.935  15.871  65.873  1.00  0.00    -0.349 C  
BRANCH  22  23
HETATM   23  N   UNL     1      -9.761  17.029  66.790  1.00  0.00    -0.258 NA 
HETATM   24  C   UNL     1      -8.937  18.058  66.134  1.00  0.00    -0.093 C  
HETATM   25  C   UNL     1      -9.133  16.666  68.061  1.00  0.00    -0.218 C  
ENDBRANCH  22  23
ENDBRANCH  21  22
ENDBRANCH  14  21
BRANCH  20  26
HETATM   26  O   UNL     1     -11.635  12.666  67.917  1.00  0.00    -0.306 OA 
BRANCH  26  27
HETATM   27  C   UNL     1     -12.708  12.187  67.251  1.00  0.00     2.362 C  
HETATM   28  C   UNL     1     -12.872  12.957  65.978  1.00  0.00     0.551 C  
HETATM   29  O   UNL     1     -13.452  11.300  67.633  1.00  0.00     6.121 OA 
ENDBRANCH  26  27
ENDBRANCH  20  26
ENDBRANCH   6   9
ENDBRANCH   2   3
TORSDOF 7
ENDMDL
MODEL      125
REMARK 921   NORMALIZED FREE ENERGY PREDICTED BY IDOCK:    7.09 KCAL/MOL
REMARK 922        TOTAL FREE ENERGY PREDICTED BY IDOCK:    8.88 KCAL/MOL
REMARK 923 INTER-LIGAND FREE ENERGY PREDICTED BY IDOCK:   -0.54 KCAL/MOL
REMARK 924 INTRA-LIGAND FREE ENERGY PREDICTED BY IDOCK:    9.43 KCAL/MOL
REMARK 927      BINDING AFFINITY PREDICTED BY RF-SCORE:    0.00 PKD
ROOT
HETATM    1  C   UNL     1     -11.162  15.400  72.258  1.00  0.00    -0.177 C  
HETATM    2  O   UNL     1     -12.012  15.213  71.126  1.00  0.00    -0.283 OA 
ENDROOT
BRANCH   2   3
HETATM    3  C   UNL     1     -11.699  14.167  70.301  1.00  0.00    -0.258 A  
HETATM    4  C   UNL     1     -11.710  14.214  68.917  1.00  0.00    -0.369 A  
HETATM    5  C   UNL     1     -11.407  13.070  68.173  1.00  0.00    -0.329 A  
HETATM    6  C   UNL     1     -11.078  11.836  68.769  1.00  0.00    -0.293 A  
HETATM    7  C   UNL     1     -11.334  12.972  70.924  1.00  0.00     1.495 A  
HETATM    8  C   UNL     1     -11.023  11.821  70.173  1.00  0.00     0.513 A  
BRANCH   6   9
HETATM    9  C   UNL     1     -10.733  10.571  67.940  1.00  0.00    -0.260 C  
HETATM   10  S   UNL     1      -9.470   9.538  68.807  1.00  0.00    -0.150 SA 
HETATM   11  C   UNL     1     -10.033   8.007  68.162  1.00  0.00    -0.185 A  
HETATM   12  C   UNL     1      -9.819   7.646  66.822  1.00  0.00    -0.237 A  
HETATM   13  C   UNL     1     -10.310   6.415  66.396  1.00  0.00    -0.048 A  
HETATM   14  N   UNL     1      -9.173   8.573  65.920  1.00  0.00    -0.202 N  
HETATM   15  C   UNL     1     -10.753   7.180  69.042  1.00  0.00    -0.204 A  
HETATM   16  C   UNL     1     -11.044   5.591  67.276  1.00  0.00     0.279 A  
HETATM   17  C   UNL     1      -9.965   9.665  65.512  1.00  0.00    -0.209 C  
HETATM   18  O   UNL     1     -10.321   9.768  64.330  1.00  0.00     0.459 OA 
HETATM   19  C   UNL     1     -11.271   5.976  68.595  1.00  0.00    -0.169 A  
HETATM   20  C   UNL     1     -10.226  10.849  66.502  1.00  0.00    -0.232 C  
BRANCH  14  21
HETATM   21  C   UNL     1      -8.304   7.961  64.869  1.00  0.00    -0.079 C  
BRANCH  21  22
HETATM   22  C   UNL     1      -7.206   8.946  64.356  1.00  0.00    -0.094 C  
BRANCH  22  23
HETATM   23  N   UNL     1      -6.621   9.895  65.341  1.00  0.00    -0.092 NA 
HETATM   24  C   UNL     1      -6.772  11.274  64.846  1.00  0.00     1.159 C  
HETATM   25  C   UNL     1      -5.204   9.646  65.607  1.00  0.00    -0.042 C  
ENDBRANCH  22  23
ENDBRANCH  21  22
ENDBRANCH  14  21
BRANCH  20  26
HETATM   26  O   UNL     1      -9.004  11.602  66.636  1.00  0.00    -0.179 OA 
BRANCH  26  27
HETATM   27  C   UNL     1      -8.206  11.276  67.676  1.00  0.00    -0.120 C  
HETATM   28  C   UNL     1      -6.980  12.131  67.634  1.00  0.00    -0.121 C  
HETATM   29  O   UNL     1      -8.422  10.402  68.499  1.00  0.00    -0.117 OA 
ENDBRANCH  26  27
ENDBRANCH  20  26
ENDBRANCH   6   9
ENDBRANCH   2   3
TORSDOF 7
ENDMDL
MODEL      126
REMARK 921   NORMALIZED FREE ENERGY PREDICTED BY IDOCK:    8.53 KCAL/MOL
REMARK 922        TOTAL FREE ENERGY PREDICTED BY IDOCK:   10.91 KCAL/MOL
REMARK 923 INTER-LIGAND FREE ENERGY PREDICTED BY IDOCK:   11.01 KCAL/MOL
REMARK 924 INTRA-LIGAND FREE ENERGY PREDICTED BY IDOCK:   -0.10 KCAL/MOL
REMARK 927      BINDING AFFINITY PREDICTED BY RF-SCORE:    0.00 PKD
ROOT
HETATM    1  C   UNL     1      -7.280  18.359  65.853  1.00  0.00    -0.232 C  
HETATM    2  O   UNL     1      -8.116  17.607  66.733  1.00  0.00    -0.213 OA 
ENDROOT
BRANCH   2   3
HETATM    3  C   UNL     1      -7.935  16.250  66.727  1.00  0.00    -0.271 A  
HETATM    4  C   UNL     1      -8.947  15.313  66.609  1.00  0.00    -0.324 A  
HETATM    5  C   UNL     1      -8.648  13.948  66.652  1.00  0.00     0.040 A  
HETATM    6  C   UNL     1      -7.336  13.458  66.810  1.00  0.00     0.848 A  
HETATM    7  C   UNL     1      -6.618  15.800  66.839  1.00  0.00     0.206 A  
HETATM    8  C   UNL     1      -6.317  14.423  66.877  1.00  0.00     1.473 A  
BRANCH   6   9
HETATM    9  C   UNL     1      -7.007  11.942  66.847  1.00  0.00    -0.072 C  
HETATM   10  S   UNL     1      -8.428  10.943  66.219  1.00  0.00    -0.168 SA 
HETATM   11  C   UNL     1      -7.446   9.638  65.579  1.00  0.00    -0.106 A  
HETATM   12  C   UNL     1      -6.805   8.714  66.420  1.00  0.00    -0.071 A  
HETATM   13  C   UNL     1      -6.038   7.717  65.823  1.00  0.00    -0.038 A  
HETATM   14  N   UNL     1      -6.893   8.863  67.856  1.00  0.00    -0.069 N  
HETATM   15  C   UNL     1      -7.295   9.590  64.182  1.00  0.00    -0.115 A  
HETATM   16  C   UNL     1      -5.876   7.679  64.422  1.00  0.00    -0.041 A  
HETATM   17  C   UNL     1      -6.124   9.913  68.399  1.00  0.00    -0.046 C  
HETATM   18  O   UNL     1      -5.160   9.660  69.134  1.00  0.00    -0.036 OA 
HETATM   19  C   UNL     1      -6.498   8.618  63.603  1.00  0.00    -0.084 A  
HETATM   20  C   UNL     1      -6.607  11.393  68.241  1.00  0.00    -0.058 C  
BRANCH  14  21
HETATM   21  C   UNL     1      -6.923   7.593  68.642  1.00  0.00    -0.075 C  
BRANCH  21  22
HETATM   22  C   UNL     1      -6.341   7.769  70.080  1.00  0.00    -0.033 C  
BRANCH  22  23
HETATM   23  N   UNL     1      -7.307   7.824  71.209  1.00  0.00    -0.065 NA 
HETATM   24  C   UNL     1      -6.840   8.799  72.209  1.00  0.00     0.020 C  
HETATM   25  C   UNL     1      -7.495   6.531  71.869  1.00  0.00    -0.092 C  
ENDBRANCH  22  23
ENDBRANCH  21  22
ENDBRANCH  14  21
BRANCH  20  26
HETATM   26  O   UNL     1      -7.746  11.590  69.102  1.00  0.00    -0.080 OA 
BRANCH  26  27
HETATM   27  C   UNL     1      -7.510  12.206  70.281  1.00  0.00     2.380 C  
HETATM   28  C   UNL     1      -6.187  12.899  70.211  1.00  0.00     0.014 C  
HETATM   29  O   UNL     1      -8.234  12.176  71.263  1.00  0.00     8.316 OA 
ENDBRANCH  26  27
ENDBRANCH  20  26
ENDBRANCH   6   9
ENDBRANCH   2   3
TORSDOF 7
ENDMDL
MODEL      127
REMARK 921   NORMALIZED FREE ENERGY PREDICTED BY IDOCK:   10.51 KCAL/MOL
REMARK 922        TOTAL FREE ENERGY PREDICTED BY IDOCK:   13.70 KCAL/MOL
REMARK 923 INTER-LIGAND FREE ENERGY PREDICTED BY IDOCK:   13.12 KCAL/MOL
REMARK 924 INTRA-LIGAND FREE ENERGY PREDICTED BY IDOCK:    0.58 KCAL/MOL
REMARK 927      BINDING AFFINITY PREDICTED BY RF-SCORE:    0.00 PKD
ROOT
HETATM    1  C   UNL     1     -10.083   7.923  67.664  1.00  0.00    -0.203 C  
HETATM    2  O   UNL     1      -9.099   8.551  68.487  1.00  0.00    -0.136 OA 
ENDROOT
BRANCH   2   3
HETATM    3  C   UNL     1      -9.395   9.811  68.931  1.00  0.00    -0.158 A  
HETATM    4  C   UNL     1     -10.671  10.339  69.035  1.00  0.00    -0.257 A  
HETATM    5  C   UNL     1     -10.853  11.655  69.469  1.00  0.00    -0.087 A  
HETATM    6  C   UNL     1      -9.779  12.500  69.819  1.00  0.00     2.020 A  
HETATM    7  C   UNL     1      -8.312  10.605  69.313  1.00  0.00    -0.112 A  
HETATM    8  C   UNL     1      -8.496  11.930  69.755  1.00  0.00     1.833 A  
BRANCH   6   9
HETATM    9  C   UNL     1      -9.985  13.957  70.309  1.00  0.00     2.087 C  
HETATM   10  S   UNL     1     -11.735  14.495  70.063  1.00  0.00    -0.314 SA 
HETATM   11  C   UNL     1     -11.769  15.592  71.431  1.00  0.00    -0.428 A  
HETATM   12  C   UNL     1     -11.092  16.822  71.408  1.00  0.00     0.654 A  
HETATM   13  C   UNL     1     -11.167  17.625  72.544  1.00  0.00     2.102 A  
HETATM   14  N   UNL     1     -10.291  17.184  70.260  1.00  0.00     0.514 N  
HETATM   15  C   UNL     1     -12.469  15.157  72.570  1.00  0.00    -0.442 A  
HETATM   16  C   UNL     1     -11.858  17.181  73.691  1.00  0.00     0.200 A  
HETATM   17  C   UNL     1      -9.067  16.494  70.140  1.00  0.00     1.527 C  
HETATM   18  O   UNL     1      -7.996  17.101  70.267  1.00  0.00     1.891 OA 
HETATM   19  C   UNL     1     -12.502  15.946  73.707  1.00  0.00    -0.728 A  
HETATM   20  C   UNL     1      -9.058  15.008  69.648  1.00  0.00     0.014 C  
BRANCH  14  21
HETATM   21  C   UNL     1     -10.263  18.638  69.916  1.00  0.00     0.944 C  
BRANCH  21  22
HETATM   22  C   UNL     1     -11.123  18.968  68.655  1.00  0.00     1.171 C  
BRANCH  22  23
HETATM   23  N   UNL     1     -10.978  20.324  68.062  1.00  0.00     0.238 NA 
HETATM   24  C   UNL     1     -11.336  20.278  66.635  1.00  0.00     1.271 C  
HETATM   25  C   UNL     1      -9.624  20.865  68.188  1.00  0.00     0.310 C  
ENDBRANCH  22  23
ENDBRANCH  21  22
ENDBRANCH  14  21
BRANCH  20  26
HETATM   26  O   UNL     1      -9.366  14.998  68.239  1.00  0.00    -0.183 OA 
BRANCH  26  27
HETATM   27  C   UNL     1      -8.790  14.022  67.504  1.00  0.00    -0.199 C  
HETATM   28  C   UNL     1      -7.358  13.885  67.914  1.00  0.00    -0.157 C  
HETATM   29  O   UNL     1      -9.329  13.378  66.619  1.00  0.00    -0.252 OA 
ENDBRANCH  26  27
ENDBRANCH  20  26
ENDBRANCH   6   9
ENDBRANCH   2   3
TORSDOF 7
ENDMDL
MODEL      128
REMARK 921   NORMALIZED FREE ENERGY PREDICTED BY IDOCK:   10.56 KCAL/MOL
REMARK 922        TOTAL FREE ENERGY PREDICTED BY IDOCK:   13.77 KCAL/MOL
REMARK 923 INTER-LIGAND FREE ENERGY PREDICTED BY IDOCK:    3.08 KCAL/MOL
REMARK 924 INTRA-LIGAND FREE ENERGY PREDICTED BY IDOCK:   10.70 KCAL/MOL
REMARK 927      BINDING AFFINITY PREDICTED BY RF-SCORE:    0.00 PKD
ROOT
HETATM    1  C   UNL     1     -13.756   7.452  73.343  1.00  0.00     3.021 C  
HETATM    2  O   UNL     1     -12.856   8.538  73.569  1.00  0.00     0.642 OA 
ENDROOT
BRANCH   2   3
HETATM    3  C   UNL     1     -12.290   9.096  72.455  1.00  0.00    -0.240 A  
HETATM    4  C   UNL     1     -12.499  10.394  72.021  1.00  0.00    -0.140 A  
HETATM    5  C   UNL     1     -11.895  10.848  70.845  1.00  0.00    -0.363 A  
HETATM    6  C   UNL     1     -11.057  10.036  70.054  1.00  0.00    -0.350 A  
HETATM    7  C   UNL     1     -11.430   8.278  71.719  1.00  0.00    -0.353 A  
HETATM    8  C   UNL     1     -10.817   8.738  70.536  1.00  0.00    -0.268 A  
BRANCH   6   9
HETATM    9  C   UNL     1     -10.380  10.545  68.755  1.00  0.00    -0.191 C  
HETATM   10  S   UNL     1      -9.849  12.305  68.934  1.00  0.00     0.214 SA 
HETATM   11  C   UNL     1      -8.478  12.180  67.846  1.00  0.00    -0.163 A  
HETATM   12  C   UNL     1      -8.646  12.078  66.456  1.00  0.00    -0.100 A  
HETATM   13  C   UNL     1      -7.500  11.973  65.671  1.00  0.00     1.681 A  
HETATM   14  N   UNL     1      -9.976  12.012  65.892  1.00  0.00    -0.231 N  
HETATM   15  C   UNL     1      -7.205  12.138  68.440  1.00  0.00    -0.097 A  
HETATM   16  C   UNL     1      -6.224  11.917  66.269  1.00  0.00     0.578 A  
HETATM   17  C   UNL     1     -10.646  10.785  66.075  1.00  0.00    -0.156 C  
HETATM   18  O   UNL     1     -10.898  10.063  65.101  1.00  0.00     0.405 OA 
HETATM   19  C   UNL     1      -6.076  11.992  67.651  1.00  0.00    -0.093 A  
HETATM   20  C   UNL     1     -11.248  10.430  67.475  1.00  0.00    -0.179 C  
BRANCH  14  21
HETATM   21  C   UNL     1     -10.152  12.666  64.560  1.00  0.00    -0.246 C  
BRANCH  21  22
HETATM   22  C   UNL     1     -11.081  13.920  64.631  1.00  0.00    -0.385 C  
BRANCH  22  23
HETATM   23  N   UNL     1     -10.645  15.048  65.496  1.00  0.00    -0.335 NA 
HETATM   24  C   UNL     1      -9.555  15.784  64.834  1.00  0.00     0.996 C  
HETATM   25  C   UNL     1     -10.183  14.615  66.816  1.00  0.00    -0.268 C  
ENDBRANCH  22  23
ENDBRANCH  21  22
ENDBRANCH  14  21
BRANCH  20  26
HETATM   26  O   UNL     1     -12.408  11.258  67.690  1.00  0.00    -0.154 OA 
BRANCH  26  27
HETATM   27  C   UNL     1     -12.250  12.583  67.475  1.00  0.00     0.188 C  
HETATM   28  C   UNL     1     -12.363  13.303  68.781  1.00  0.00     0.064 C  
HETATM   29  O   UNL     1     -12.082  13.119  66.392  1.00  0.00    -0.403 OA 
ENDBRANCH  26  27
ENDBRANCH  20  26
ENDBRANCH   6   9
ENDBRANCH   2   3
TORSDOF 7
ENDMDL
MODEL      129
REMARK 921   NORMALIZED FREE ENERGY PREDICTED BY IDOCK:   12.38 KCAL/MOL
REMARK 922        TOTAL FREE ENERGY PREDICTED BY IDOCK:   16.33 KCAL/MOL
REMARK 923 INTER-LIGAND FREE ENERGY PREDICTED BY IDOCK:   12.01 KCAL/MOL
REMARK 924 INTRA-LIGAND FREE ENERGY PREDICTED BY IDOCK:    4.32 KCAL/MOL
REMARK 927      BINDING AFFINITY PREDICTED BY RF-SCORE:    0.00 PKD
ROOT
HETATM    1  C   UNL     1     -11.224   5.475  71.169  1.00  0.00     0.038 C  
HETATM    2  O   UNL     1     -12.145   6.346  70.512  1.00  0.00    -0.297 OA 
ENDROOT
BRANCH   2   3
HETATM    3  C   UNL     1     -11.598   7.372  69.790  1.00  0.00     0.154 A  
HETATM    4  C   UNL     1     -11.843   7.622  68.451  1.00  0.00     1.938 A  
HETATM    5  C   UNL     1     -11.198   8.681  67.804  1.00  0.00     0.582 A  
HETATM    6  C   UNL     1     -10.288   9.535  68.459  1.00  0.00    -0.234 A  
HETATM    7  C   UNL     1     -10.736   8.226  70.481  1.00  0.00    -0.238 A  
HETATM    8  C   UNL     1     -10.091   9.297  69.830  1.00  0.00    -0.218 A  
BRANCH   6   9
HETATM    9  C   UNL     1      -9.582  10.715  67.742  1.00  0.00    -0.157 C  
HETATM   10  S   UNL     1      -9.293  12.119  68.907  1.00  0.00     0.332 SA 
HETATM   11  C   UNL     1      -7.837  12.697  68.117  1.00  0.00    -0.145 A  
HETATM   12  C   UNL     1      -7.881  13.363  66.882  1.00  0.00     0.253 A  
HETATM   13  C   UNL     1      -6.674  13.777  66.326  1.00  0.00     4.018 A  
HETATM   14  N   UNL     1      -9.144  13.532  66.198  1.00  0.00     0.026 N  
HETATM   15  C   UNL     1      -6.619  12.417  68.761  1.00  0.00    -0.088 A  
HETATM   16  C   UNL     1      -5.451  13.484  66.965  1.00  0.00     0.965 A  
HETATM   17  C   UNL     1      -9.665  12.365  65.602  1.00  0.00    -0.172 C  
HETATM   18  O   UNL     1      -9.747  12.280  64.369  1.00  0.00    -0.141 OA 
HETATM   19  C   UNL     1      -5.422  12.799  68.178  1.00  0.00    -0.081 A  
HETATM   20  C   UNL     1     -10.326  11.264  66.497  1.00  0.00    -0.240 C  
BRANCH  14  21
HETATM   21  C   UNL     1      -9.297  14.796  65.416  1.00  0.00     0.370 C  
BRANCH  21  22
HETATM   22  C   UNL     1      -7.925  15.468  65.094  1.00  0.00     5.637 C  
BRANCH  22  23
HETATM   23  N   UNL     1      -7.702  16.848  65.599  1.00  0.00     0.092 NA 
HETATM   24  C   UNL     1      -6.325  17.269  65.291  1.00  0.00     1.418 C  
HETATM   25  C   UNL     1      -7.918  16.975  67.041  1.00  0.00    -0.203 C  
ENDBRANCH  22  23
ENDBRANCH  21  22
ENDBRANCH  14  21
BRANCH  20  26
HETATM   26  O   UNL     1     -11.594  11.764  66.964  1.00  0.00    -0.480 OA 
BRANCH  26  27
HETATM   27  C   UNL     1     -11.748  13.107  66.970  1.00  0.00    -0.377 C  
HETATM   28  C   UNL     1     -11.555  13.612  68.365  1.00  0.00    -0.377 C  
HETATM   29  O   UNL     1     -12.035  13.800  66.008  1.00  0.00    -0.369 OA 
ENDBRANCH  26  27
ENDBRANCH  20  26
ENDBRANCH   6   9
ENDBRANCH   2   3
TORSDOF 7
ENDMDL
MODEL      130
REMARK 921   NORMALIZED FREE ENERGY PREDICTED BY IDOCK:   12.66 KCAL/MOL
REMARK 922        TOTAL FREE ENERGY PREDICTED BY IDOCK:   16.73 KCAL/MOL
REMARK 923 INTER-LIGAND FREE ENERGY PREDICTED BY IDOCK:   13.34 KCAL/MOL
REMARK 924 INTRA-LIGAND FREE ENERGY PREDICTED BY IDOCK:    3.39 KCAL/MOL
REMARK 927      BINDING AFFINITY PREDICTED BY RF-SCORE:    0.00 PKD
ROOT
HETATM    1  C   UNL     1      -6.563   4.376  66.140  1.00  0.00    -0.042 C  
HETATM    2  O   UNL     1      -7.524   4.812  65.179  1.00  0.00    -0.074 OA 
ENDROOT
BRANCH   2   3
HETATM    3  C   UNL     1      -8.122   6.018  65.425  1.00  0.00    -0.132 A  
HETATM    4  C   UNL     1      -8.198   7.067  64.524  1.00  0.00     0.001 A  
HETATM    5  C   UNL     1      -8.803   8.271  64.898  1.00  0.00     0.075 A  
HETATM    6  C   UNL     1      -9.359   8.482  66.176  1.00  0.00    -0.279 A  
HETATM    7  C   UNL     1      -8.703   6.178  66.685  1.00  0.00    -0.124 A  
HETATM    8  C   UNL     1      -9.317   7.390  67.059  1.00  0.00    -0.183 A  
BRANCH   6   9
HETATM    9  C   UNL     1     -10.038   9.816  66.583  1.00  0.00    -0.237 C  
HETATM   10  S   UNL     1     -11.712   9.512  67.303  1.00  0.00     3.184 SA 
HETATM   11  C   UNL     1     -11.692  10.903  68.372  1.00  0.00    -0.218 A  
HETATM   12  C   UNL     1     -11.830  12.212  67.884  1.00  0.00    -0.269 A  
HETATM   13  C   UNL     1     -11.793  13.255  68.806  1.00  0.00    -0.371 A  
HETATM   14  N   UNL     1     -11.932  12.445  66.460  1.00  0.00    -0.334 N  
HETATM   15  C   UNL     1     -11.482  10.644  69.737  1.00  0.00    -0.375 A  
HETATM   16  C   UNL     1     -11.568  12.995  70.174  1.00  0.00    -0.139 A  
HETATM   17  C   UNL     1     -10.731  12.289  65.739  1.00  0.00    -0.263 C  
HETATM   18  O   UNL     1     -10.195  13.270  65.206  1.00  0.00    -0.303 OA 
HETATM   19  C   UNL     1     -11.406  11.692  70.639  1.00  0.00     0.618 A  
HETATM   20  C   UNL     1     -10.183  10.854  65.440  1.00  0.00    -0.277 C  
BRANCH  14  21
HETATM   21  C   UNL     1     -12.806  13.584  66.046  1.00  0.00    -0.106 C  
BRANCH  21  22
HETATM   22  C   UNL     1     -12.007  14.913  65.867  1.00  0.00    -0.054 C  
BRANCH  22  23
HETATM   23  N   UNL     1     -11.497  15.578  67.096  1.00  0.00    -0.153 NA 
HETATM   24  C   UNL     1     -12.629  16.105  67.877  1.00  0.00     2.030 C  
HETATM   25  C   UNL     1     -10.571  16.676  66.814  1.00  0.00    -0.214 C  
ENDBRANCH  22  23
ENDBRANCH  21  22
ENDBRANCH  14  21
BRANCH  20  26
HETATM   26  O   UNL     1     -11.028  10.247  64.442  1.00  0.00     0.676 OA 
BRANCH  26  27
HETATM   27  C   UNL     1     -10.423   9.848  63.302  1.00  0.00     2.096 C  
HETATM   28  C   UNL     1     -11.462   9.339  62.354  1.00  0.00     9.071 C  
HETATM   29  O   UNL     1      -9.223   9.860  63.085  1.00  0.00    -0.264 OA 
ENDBRANCH  26  27
ENDBRANCH  20  26
ENDBRANCH   6   9
ENDBRANCH   2   3
TORSDOF 7
ENDMDL
MODEL      131
REMARK 921   NORMALIZED FREE ENERGY PREDICTED BY IDOCK:   13.33 KCAL/MOL
REMARK 922        TOTAL FREE ENERGY PREDICTED BY IDOCK:   17.67 KCAL/MOL
REMARK 923 INTER-LIGAND FREE ENERGY PREDICTED BY IDOCK:   -0.73 KCAL/MOL
REMARK 924 INTRA-LIGAND FREE ENERGY PREDICTED BY IDOCK:   18.40 KCAL/MOL
REMARK 927      BINDING AFFINITY PREDICTED BY RF-SCORE:    0.00 PKD
ROOT
HETATM    1  C   UNL     1      -8.865  20.082  68.276  1.00  0.00    -0.137 C  
HETATM    2  O   UNL     1     -10.155  19.471  68.314  1.00  0.00    -0.390 OA 
ENDROOT
BRANCH   2   3
HETATM    3  C   UNL     1     -10.189  18.118  68.106  1.00  0.00    -0.388 A  
HETATM    4  C   UNL     1     -11.340  17.368  67.937  1.00  0.00     0.351 A  
HETATM    5  C   UNL     1     -11.257  15.983  67.767  1.00  0.00    -0.231 A  
HETATM    6  C   UNL     1     -10.031  15.287  67.753  1.00  0.00    -0.224 A  
HETATM    7  C   UNL     1      -8.955  17.467  68.052  1.00  0.00    -0.258 A  
HETATM    8  C   UNL     1      -8.872  16.071  67.874  1.00  0.00    -0.180 A  
BRANCH   6   9
HETATM    9  C   UNL     1      -9.942  13.751  67.553  1.00  0.00    -0.233 C  
HETATM   10  S   UNL     1      -9.053  12.953  68.962  1.00  0.00     0.675 SA 
HETATM   11  C   UNL     1      -9.922  11.432  68.871  1.00  0.00    -0.131 A  
HETATM   12  C   UNL     1      -9.692  10.511  67.836  1.00  0.00    -0.153 A  
HETATM   13  C   UNL     1     -10.436   9.333  67.840  1.00  0.00    -0.290 A  
HETATM   14  N   UNL     1      -8.763  10.833  66.776  1.00  0.00    -0.141 N  
HETATM   15  C   UNL     1     -10.895  11.203  69.859  1.00  0.00    -0.072 A  
HETATM   16  C   UNL     1     -11.421   9.110  68.824  1.00  0.00     0.580 A  
HETATM   17  C   UNL     1      -9.223  11.785  65.843  1.00  0.00    -0.170 C  
HETATM   18  O   UNL     1      -9.442  11.451  64.671  1.00  0.00    -0.218 OA 
HETATM   19  C   UNL     1     -11.656  10.046  69.828  1.00  0.00    -0.193 A  
HETATM   20  C   UNL     1      -9.264  13.300  66.234  1.00  0.00    -0.051 C  
BRANCH  14  21
HETATM   21  C   UNL     1      -7.988   9.684  66.217  1.00  0.00    -0.108 C  
BRANCH  21  22
HETATM   22  C   UNL     1      -6.676   9.406  67.016  1.00  0.00    -0.076 C  
BRANCH  22  23
HETATM   23  N   UNL     1      -5.939   8.151  66.709  1.00  0.00    -0.051 NA 
HETATM   24  C   UNL     1      -6.046   7.857  65.270  1.00  0.00    -0.038 C  
HETATM   25  C   UNL     1      -6.431   6.996  67.461  1.00  0.00    -0.054 C  
ENDBRANCH  22  23
ENDBRANCH  21  22
ENDBRANCH  14  21
BRANCH  20  26
HETATM   26  O   UNL     1      -7.909  13.790  66.281  1.00  0.00     1.065 OA 
BRANCH  26  27
HETATM   27  C   UNL     1      -7.734  15.030  66.789  1.00  0.00     0.209 C  
HETATM   28  C   UNL     1      -6.291  15.211  67.140  1.00  0.00     0.362 C  
HETATM   29  O   UNL     1      -8.609  15.859  66.973  1.00  0.00    -0.183 OA 
ENDBRANCH  26  27
ENDBRANCH  20  26
ENDBRANCH   6   9
ENDBRANCH   2   3
TORSDOF 7
ENDMDL
MODEL      132
REMARK 921   NORMALIZED FREE ENERGY PREDICTED BY IDOCK:   14.17 KCAL/MOL
REMARK 922        TOTAL FREE ENERGY PREDICTED BY IDOCK:   18.86 KCAL/MOL
REMARK 923 INTER-LIGAND FREE ENERGY PREDICTED BY IDOCK:   11.06 KCAL/MOL
REMARK 924 INTRA-LIGAND FREE ENERGY PREDICTED BY IDOCK:    7.80 KCAL/MOL
REMARK 927      BINDING AFFINITY PREDICTED BY RF-SCORE:    0.00 PKD
ROOT
HETATM    1  C   UNL     1     -12.501   2.591  72.691  1.00  0.00     2.021 C  
HETATM    2  O   UNL     1     -11.150   3.022  72.534  1.00  0.00     0.198 OA 
ENDROOT
BRANCH   2   3
HETATM    3  C   UNL     1     -10.951   4.103  71.717  1.00  0.00     0.714 A  
HETATM    4  C   UNL     1     -11.772   4.467  70.664  1.00  0.00     5.352 A  
HETATM    5  C   UNL     1     -11.450   5.573  69.872  1.00  0.00     0.868 A  
HETATM    6  C   UNL     1     -10.304   6.364  70.093  1.00  0.00    -0.245 A  
HETATM    7  C   UNL     1      -9.831   4.891  71.993  1.00  0.00    -0.232 A  
HETATM    8  C   UNL     1      -9.510   6.009  71.197  1.00  0.00    -0.182 A  
BRANCH   6   9
HETATM    9  C   UNL     1      -9.955   7.596  69.218  1.00  0.00    -0.180 C  
HETATM   10  S   UNL     1      -8.291   7.403  68.440  1.00  0.00    -0.125 SA 
HETATM   11  C   UNL     1      -8.667   8.337  67.003  1.00  0.00    -0.127 A  
HETATM   12  C   UNL     1      -8.797   9.735  67.044  1.00  0.00    -0.135 A  
HETATM   13  C   UNL     1      -9.107  10.392  65.856  1.00  0.00    -0.192 A  
HETATM   14  N   UNL     1      -8.682  10.434  68.304  1.00  0.00    -0.125 N  
HETATM   15  C   UNL     1      -8.880   7.612  65.818  1.00  0.00    -0.134 A  
HETATM   16  C   UNL     1      -9.334   9.662  64.670  1.00  0.00    -0.271 A  
HETATM   17  C   UNL     1      -9.785  10.294  69.172  1.00  0.00    -0.217 C  
HETATM   18  O   UNL     1     -10.498  11.271  69.434  1.00  0.00    -0.168 OA 
HETATM   19  C   UNL     1      -9.227   8.273  64.652  1.00  0.00     0.779 A  
HETATM   20  C   UNL     1      -9.988   8.957  69.960  1.00  0.00    -0.190 C  
BRANCH  14  21
HETATM   21  C   UNL     1      -8.062  11.792  68.242  1.00  0.00    -0.154 C  
BRANCH  21  22
HETATM   22  C   UNL     1      -6.667  11.778  67.542  1.00  0.00    -0.107 C  
BRANCH  22  23
HETATM   23  N   UNL     1      -5.911  10.497  67.544  1.00  0.00    -0.044 NA 
HETATM   24  C   UNL     1      -5.203  10.341  66.262  1.00  0.00    -0.052 C  
HETATM   25  C   UNL     1      -6.763   9.327  67.755  1.00  0.00    -0.068 C  
ENDBRANCH  22  23
ENDBRANCH  21  22
ENDBRANCH  14  21
BRANCH  20  26
HETATM   26  O   UNL     1      -8.984   8.885  70.993  1.00  0.00    -0.200 OA 
BRANCH  26  27
HETATM   27  C   UNL     1      -9.356   9.297  72.225  1.00  0.00     0.967 C  
HETATM   28  C   UNL     1      -8.643   8.471  73.248  1.00  0.00    -0.074 C  
HETATM   29  O   UNL     1     -10.169  10.171  72.473  1.00  0.00     3.381 OA 
ENDBRANCH  26  27
ENDBRANCH  20  26
ENDBRANCH   6   9
ENDBRANCH   2   3
TORSDOF 7
ENDMDL
MODEL      133
REMARK 921   NORMALIZED FREE ENERGY PREDICTED BY IDOCK:   16.95 KCAL/MOL
REMARK 922        TOTAL FREE ENERGY PREDICTED BY IDOCK:   22.77 KCAL/MOL
REMARK 923 INTER-LIGAND FREE ENERGY PREDICTED BY IDOCK:   22.74 KCAL/MOL
REMARK 924 INTRA-LIGAND FREE ENERGY PREDICTED BY IDOCK:    0.03 KCAL/MOL
REMARK 927      BINDING AFFINITY PREDICTED BY RF-SCORE:    0.00 PKD
ROOT
HETATM    1  C   UNL     1     -13.250   7.065  74.432  1.00  0.00    11.712 C  
HETATM    2  O   UNL     1     -12.902   6.588  73.132  1.00  0.00     1.364 OA 
ENDROOT
BRANCH   2   3
HETATM    3  C   UNL     1     -12.121   7.416  72.372  1.00  0.00    -0.149 A  
HETATM    4  C   UNL     1     -12.481   8.685  71.952  1.00  0.00    -0.412 A  
HETATM    5  C   UNL     1     -11.616   9.429  71.145  1.00  0.00    -0.415 A  
HETATM    6  C   UNL     1     -10.358   8.948  70.726  1.00  0.00    -0.283 A  
HETATM    7  C   UNL     1     -10.864   6.926  72.012  1.00  0.00    -0.255 A  
HETATM    8  C   UNL     1      -9.989   7.679  71.203  1.00  0.00    -0.188 A  
BRANCH   6   9
HETATM    9  C   UNL     1      -9.396   9.781  69.839  1.00  0.00    -0.231 C  
HETATM   10  S   UNL     1     -10.026  11.504  69.619  1.00  0.00     0.974 SA 
HETATM   11  C   UNL     1      -8.443  12.244  69.464  1.00  0.00     1.409 A  
HETATM   12  C   UNL     1      -7.662  12.082  68.309  1.00  0.00    -0.127 A  
HETATM   13  C   UNL     1      -6.413  12.698  68.279  1.00  0.00    -0.073 A  
HETATM   14  N   UNL     1      -8.130  11.237  67.233  1.00  0.00    -0.134 N  
HETATM   15  C   UNL     1      -7.975  12.968  70.574  1.00  0.00     4.640 A  
HETATM   16  C   UNL     1      -5.939  13.414  69.398  1.00  0.00    -0.099 A  
HETATM   17  C   UNL     1      -8.066   9.851  67.486  1.00  0.00    -0.110 C  
HETATM   18  O   UNL     1      -7.287   9.137  66.841  1.00  0.00    -0.088 OA 
HETATM   19  C   UNL     1      -6.716  13.543  70.547  1.00  0.00     0.635 A  
HETATM   20  C   UNL     1      -9.117   9.185  68.435  1.00  0.00    -0.132 C  
BRANCH  14  21
HETATM   21  C   UNL     1      -7.758  11.672  65.853  1.00  0.00     0.481 C  
BRANCH  21  22
HETATM   22  C   UNL     1      -8.514  10.864  64.750  1.00  0.00     0.045 C  
BRANCH  22  23
HETATM   23  N   UNL     1      -9.879  11.321  64.380  1.00  0.00    -0.253 NA 
HETATM   24  C   UNL     1     -10.807  11.051  65.491  1.00  0.00    -0.088 C  
HETATM   25  C   UNL     1     -10.394  10.674  63.172  1.00  0.00     0.128 C  
ENDBRANCH  22  23
ENDBRANCH  21  22
ENDBRANCH  14  21
BRANCH  20  26
HETATM   26  O   UNL     1     -10.384   9.145  67.748  1.00  0.00    -0.217 OA 
BRANCH  26  27
HETATM   27  C   UNL     1     -10.825   7.926  67.366  1.00  0.00    -0.102 C  
HETATM   28  C   UNL     1     -11.527   8.055  66.051  1.00  0.00     4.925 C  
HETATM   29  O   UNL     1     -10.709   6.891  68.000  1.00  0.00    -0.211 OA 
ENDBRANCH  26  27
ENDBRANCH  20  26
ENDBRANCH   6   9
ENDBRANCH   2   3
TORSDOF 7
ENDMDL
MODEL      134
REMARK 921   NORMALIZED FREE ENERGY PREDICTED BY IDOCK:   18.15 KCAL/MOL
REMARK 922        TOTAL FREE ENERGY PREDICTED BY IDOCK:   24.47 KCAL/MOL
REMARK 923 INTER-LIGAND FREE ENERGY PREDICTED BY IDOCK:   10.63 KCAL/MOL
REMARK 924 INTRA-LIGAND FREE ENERGY PREDICTED BY IDOCK:   13.84 KCAL/MOL
REMARK 927      BINDING AFFINITY PREDICTED BY RF-SCORE:    0.00 PKD
ROOT
HETATM    1  C   UNL     1     -13.557   7.585  73.827  1.00  0.00     4.923 C  
HETATM    2  O   UNL     1     -12.540   8.577  73.969  1.00  0.00     3.190 OA 
ENDROOT
BRANCH   2   3
HETATM    3  C   UNL     1     -11.915   8.972  72.817  1.00  0.00     0.374 A  
HETATM    4  C   UNL     1     -10.681   8.519  72.384  1.00  0.00    -0.376 A  
HETATM    5  C   UNL     1     -10.121   9.021  71.206  1.00  0.00    -0.384 A  
HETATM    6  C   UNL     1     -10.764   9.989  70.407  1.00  0.00    -0.369 A  
HETATM    7  C   UNL     1     -12.599   9.898  72.026  1.00  0.00    -0.410 A  
HETATM    8  C   UNL     1     -12.037  10.400  70.835  1.00  0.00    -0.477 A  
BRANCH   6   9
HETATM    9  C   UNL     1     -10.145  10.537  69.095  1.00  0.00    -0.224 C  
HETATM   10  S   UNL     1      -9.057   9.273  68.300  1.00  0.00    -0.127 SA 
HETATM   11  C   UNL     1      -9.343   9.814  66.656  1.00  0.00    -0.158 A  
HETATM   12  C   UNL     1      -8.791  11.007  66.164  1.00  0.00    -0.190 A  
HETATM   13  C   UNL     1      -9.080  11.362  64.849  1.00  0.00     0.002 A  
HETATM   14  N   UNL     1      -8.014  11.857  67.038  1.00  0.00    -0.164 N  
HETATM   15  C   UNL     1     -10.193   9.016  65.869  1.00  0.00     0.127 A  
HETATM   16  C   UNL     1      -9.944  10.568  64.065  1.00  0.00    -0.363 A  
HETATM   17  C   UNL     1      -8.760  12.580  67.992  1.00  0.00    -0.186 C  
HETATM   18  O   UNL     1      -8.829  13.814  67.920  1.00  0.00    -0.167 OA 
HETATM   19  C   UNL     1     -10.506   9.401  64.576  1.00  0.00     2.661 A  
HETATM   20  C   UNL     1      -9.330  11.847  69.251  1.00  0.00     0.649 C  
BRANCH  14  21
HETATM   21  C   UNL     1      -6.879  12.588  66.398  1.00  0.00     1.339 C  
BRANCH  21  22
HETATM   22  C   UNL     1      -5.489  12.022  66.825  1.00  0.00     0.010 C  
BRANCH  22  23
HETATM   23  N   UNL     1      -5.295  10.550  66.752  1.00  0.00    -0.042 NA 
HETATM   24  C   UNL     1      -5.167  10.139  65.344  1.00  0.00    -0.067 C  
HETATM   25  C   UNL     1      -6.391   9.795  67.362  1.00  0.00    -0.068 C  
ENDBRANCH  22  23
ENDBRANCH  21  22
ENDBRANCH  14  21
BRANCH  20  26
HETATM   26  O   UNL     1      -8.230  11.543  70.132  1.00  0.00     1.402 OA 
BRANCH  26  27
HETATM   27  C   UNL     1      -7.200  10.853  69.594  1.00  0.00    -0.095 C  
HETATM   28  C   UNL     1      -6.963   9.621  70.407  1.00  0.00    -0.128 C  
HETATM   29  O   UNL     1      -6.538  11.192  68.626  1.00  0.00    -0.054 OA 
ENDBRANCH  26  27
ENDBRANCH  20  26
ENDBRANCH   6   9
ENDBRANCH   2   3
TORSDOF 7
ENDMDL
MODEL      135
REMARK 921   NORMALIZED FREE ENERGY PREDICTED BY IDOCK:   18.44 KCAL/MOL
REMARK 922        TOTAL FREE ENERGY PREDICTED BY IDOCK:   24.87 KCAL/MOL
REMARK 923 INTER-LIGAND FREE ENERGY PREDICTED BY IDOCK:   13.23 KCAL/MOL
REMARK 924 INTRA-LIGAND FREE ENERGY PREDICTED BY IDOCK:   11.64 KCAL/MOL
REMARK 927      BINDING AFFINITY PREDICTED BY RF-SCORE:    0.00 PKD
ROOT
HETATM    1  C   UNL     1      -8.946  12.387  62.612  1.00  0.00     2.694 C  
HETATM    2  O   UNL     1      -9.461  12.290  63.940  1.00  0.00     0.001 OA 
ENDROOT
BRANCH   2   3
HETATM    3  C   UNL     1      -9.255  11.100  64.585  1.00  0.00    -0.119 A  
HETATM    4  C   UNL     1      -8.343  10.896  65.605  1.00  0.00    -0.105 A  
HETATM    5  C   UNL     1      -8.190   9.625  66.167  1.00  0.00    -0.115 A  
HETATM    6  C   UNL     1      -8.938   8.507  65.742  1.00  0.00    -0.229 A  
HETATM    7  C   UNL     1     -10.044  10.025  64.170  1.00  0.00     0.254 A  
HETATM    8  C   UNL     1      -9.894   8.745  64.740  1.00  0.00     1.373 A  
BRANCH   6   9
HETATM    9  C   UNL     1      -8.774   7.100  66.375  1.00  0.00    -0.139 C  
HETATM   10  S   UNL     1      -7.035   6.500  66.206  1.00  0.00    -0.067 SA 
HETATM   11  C   UNL     1      -7.044   5.541  67.675  1.00  0.00    -0.071 A  
HETATM   12  C   UNL     1      -7.751   4.330  67.762  1.00  0.00    -0.080 A  
HETATM   13  C   UNL     1      -7.709   3.641  68.971  1.00  0.00    -0.052 A  
HETATM   14  N   UNL     1      -8.548   3.877  66.643  1.00  0.00    -0.108 N  
HETATM   15  C   UNL     1      -6.347   6.068  68.775  1.00  0.00    -0.041 A  
HETATM   16  C   UNL     1      -7.021   4.178  70.080  1.00  0.00    -0.041 A  
HETATM   17  C   UNL     1      -9.752   4.581  66.440  1.00  0.00    -0.208 C  
HETATM   18  O   UNL     1     -10.840   4.014  66.611  1.00  0.00     0.987 OA 
HETATM   19  C   UNL     1      -6.346   5.393  69.985  1.00  0.00    -0.030 A  
HETATM   20  C   UNL     1      -9.719   6.012  65.806  1.00  0.00     0.246 C  
BRANCH  14  21
HETATM   21  C   UNL     1      -8.607   2.398  66.442  1.00  0.00    -0.114 C  
BRANCH  21  22
HETATM   22  C   UNL     1      -9.083   1.641  67.723  1.00  0.00    -0.150 C  
BRANCH  22  23
HETATM   23  N   UNL     1     -10.114   2.302  68.566  1.00  0.00     0.709 NA 
HETATM   24  C   UNL     1      -9.722   3.699  68.820  1.00  0.00     0.016 C  
HETATM   25  C   UNL     1     -10.320   1.633  69.852  1.00  0.00     1.092 C  
ENDBRANCH  22  23
ENDBRANCH  21  22
ENDBRANCH  14  21
BRANCH  20  26
HETATM   26  O   UNL     1      -9.395   5.877  64.407  1.00  0.00     0.609 OA 
BRANCH  26  27
HETATM   27  C   UNL     1     -10.344   5.327  63.619  1.00  0.00     1.945 C  
HETATM   28  C   UNL     1     -10.616   6.249  62.472  1.00  0.00     4.978 C  
HETATM   29  O   UNL     1     -10.921   4.271  63.820  1.00  0.00    -0.008 OA 
ENDBRANCH  26  27
ENDBRANCH  20  26
ENDBRANCH   6   9
ENDBRANCH   2   3
TORSDOF 7
ENDMDL
MODEL      136
REMARK 921   NORMALIZED FREE ENERGY PREDICTED BY IDOCK:   18.81 KCAL/MOL
REMARK 922        TOTAL FREE ENERGY PREDICTED BY IDOCK:   25.40 KCAL/MOL
REMARK 923 INTER-LIGAND FREE ENERGY PREDICTED BY IDOCK:   23.74 KCAL/MOL
REMARK 924 INTRA-LIGAND FREE ENERGY PREDICTED BY IDOCK:    1.66 KCAL/MOL
REMARK 927      BINDING AFFINITY PREDICTED BY RF-SCORE:    0.00 PKD
ROOT
HETATM    1  C   UNL     1      -9.821  19.972  65.934  1.00  0.00    -0.332 C  
HETATM    2  O   UNL     1      -9.683  19.293  67.182  1.00  0.00    -0.312 OA 
ENDROOT
BRANCH   2   3
HETATM    3  C   UNL     1      -9.839  17.933  67.152  1.00  0.00    -0.308 A  
HETATM    4  C   UNL     1     -10.539  17.233  66.184  1.00  0.00    -0.204 A  
HETATM    5  C   UNL     1     -10.664  15.844  66.274  1.00  0.00    -0.261 A  
HETATM    6  C   UNL     1     -10.097  15.092  67.324  1.00  0.00    -0.235 A  
HETATM    7  C   UNL     1      -9.226  17.215  68.182  1.00  0.00    -0.261 A  
HETATM    8  C   UNL     1      -9.348  15.814  68.269  1.00  0.00    -0.193 A  
BRANCH   6   9
HETATM    9  C   UNL     1     -10.229  13.549  67.416  1.00  0.00    -0.237 C  
HETATM   10  S   UNL     1     -10.609  13.021  69.144  1.00  0.00     0.144 SA 
HETATM   11  C   UNL     1     -11.526  11.597  68.688  1.00  0.00    -0.290 A  
HETATM   12  C   UNL     1     -10.901  10.449  68.175  1.00  0.00    -0.264 A  
HETATM   13  C   UNL     1     -11.710   9.369  67.830  1.00  0.00     1.713 A  
HETATM   14  N   UNL     1      -9.472  10.443  67.952  1.00  0.00    -0.138 N  
HETATM   15  C   UNL     1     -12.923  11.679  68.817  1.00  0.00     2.234 A  
HETATM   16  C   UNL     1     -13.113   9.458  67.947  1.00  0.00    11.199 A  
HETATM   17  C   UNL     1      -9.034  11.194  66.841  1.00  0.00    -0.161 C  
HETATM   18  O   UNL     1      -8.537  10.622  65.862  1.00  0.00    -0.161 OA 
HETATM   19  C   UNL     1     -13.720  10.614  68.433  1.00  0.00     8.809 A  
HETATM   20  C   UNL     1      -8.990  12.756  66.927  1.00  0.00    -0.213 C  
BRANCH  14  21
HETATM   21  C   UNL     1      -8.782   9.137  68.178  1.00  0.00    -0.129 C  
BRANCH  21  22
HETATM   22  C   UNL     1      -8.454   8.889  69.684  1.00  0.00    -0.129 C  
BRANCH  22  23
HETATM   23  N   UNL     1      -9.591   8.588  70.593  1.00  0.00    -0.167 NA 
HETATM   24  C   UNL     1      -9.130   7.717  71.687  1.00  0.00    -0.133 C  
HETATM   25  C   UNL     1     -10.712   7.934  69.915  1.00  0.00    -0.244 C  
ENDBRANCH  22  23
ENDBRANCH  21  22
ENDBRANCH  14  21
BRANCH  20  26
HETATM   26  O   UNL     1      -7.898  13.129  67.791  1.00  0.00    -0.124 OA 
BRANCH  26  27
HETATM   27  C   UNL     1      -6.653  12.877  67.331  1.00  0.00    -0.126 C  
HETATM   28  C   UNL     1      -6.678  12.882  65.835  1.00  0.00     4.334 C  
HETATM   29  O   UNL     1      -5.670  12.643  68.014  1.00  0.00    -0.071 OA 
ENDBRANCH  26  27
ENDBRANCH  20  26
ENDBRANCH   6   9
ENDBRANCH   2   3
TORSDOF 7
ENDMDL
MODEL      137
REMARK 921   NORMALIZED FREE ENERGY PREDICTED BY IDOCK:   18.92 KCAL/MOL
REMARK 922        TOTAL FREE ENERGY PREDICTED BY IDOCK:   25.54 KCAL/MOL
REMARK 923 INTER-LIGAND FREE ENERGY PREDICTED BY IDOCK:   24.96 KCAL/MOL
REMARK 924 INTRA-LIGAND FREE ENERGY PREDICTED BY IDOCK:    0.58 KCAL/MOL
REMARK 927      BINDING AFFINITY PREDICTED BY RF-SCORE:    0.00 PKD
ROOT
HETATM    1  C   UNL     1     -10.051   8.223  68.529  1.00  0.00    -0.197 C  
HETATM    2  O   UNL     1      -8.871   8.898  68.967  1.00  0.00    -0.134 OA 
ENDROOT
BRANCH   2   3
HETATM    3  C   UNL     1      -8.938  10.265  69.013  1.00  0.00    -0.172 A  
HETATM    4  C   UNL     1     -10.105  11.007  68.968  1.00  0.00    -0.197 A  
HETATM    5  C   UNL     1     -10.051  12.404  68.986  1.00  0.00     0.136 A  
HETATM    6  C   UNL     1      -8.839  13.120  69.053  1.00  0.00     0.473 A  
HETATM    7  C   UNL     1      -7.721  10.941  69.125  1.00  0.00    -0.127 A  
HETATM    8  C   UNL     1      -7.668  12.350  69.149  1.00  0.00     0.286 A  
BRANCH   6   9
HETATM    9  C   UNL     1      -8.783  14.670  69.083  1.00  0.00    -0.029 C  
HETATM   10  S   UNL     1     -10.429  15.398  68.667  1.00  0.00    -0.245 SA 
HETATM   11  C   UNL     1     -10.227  16.841  69.644  1.00  0.00    -0.093 A  
HETATM   12  C   UNL     1      -9.358  17.876  69.262  1.00  0.00     0.175 A  
HETATM   13  C   UNL     1      -9.255  18.980  70.105  1.00  0.00     1.399 A  
HETATM   14  N   UNL     1      -8.555  17.740  68.067  1.00  0.00    -0.244 N  
HETATM   15  C   UNL     1     -10.943  16.888  70.853  1.00  0.00     0.626 A  
HETATM   16  C   UNL     1      -9.963  19.020  71.324  1.00  0.00     3.170 A  
HETATM   17  C   UNL     1      -7.467  16.849  68.173  1.00  0.00    -0.178 C  
HETATM   18  O   UNL     1      -6.307  17.277  68.124  1.00  0.00    -0.149 OA 
HETATM   19  C   UNL     1     -10.800  17.973  71.702  1.00  0.00     2.856 A  
HETATM   20  C   UNL     1      -7.722  15.305  68.147  1.00  0.00    -0.117 C  
BRANCH  14  21
HETATM   21  C   UNL     1      -8.303  19.000  67.305  1.00  0.00    -0.276 C  
BRANCH  21  22
HETATM   22  C   UNL     1      -9.490  20.009  67.411  1.00  0.00    -0.382 C  
BRANCH  22  23
HETATM   23  N   UNL     1      -9.716  20.926  66.262  1.00  0.00     0.324 NA 
HETATM   24  C   UNL     1     -11.127  21.346  66.238  1.00  0.00     5.542 C  
HETATM   25  C   UNL     1      -9.386  20.321  64.971  1.00  0.00     1.471 C  
ENDBRANCH  22  23
ENDBRANCH  21  22
ENDBRANCH  14  21
BRANCH  20  26
HETATM   26  O   UNL     1      -8.084  14.930  66.803  1.00  0.00    -0.155 OA 
BRANCH  26  27
HETATM   27  C   UNL     1      -7.466  13.841  66.295  1.00  0.00     2.630 C  
HETATM   28  C   UNL     1      -6.090  14.226  65.853  1.00  0.00     7.823 C  
HETATM   29  O   UNL     1      -7.955  12.730  66.174  1.00  0.00     0.748 OA 
ENDBRANCH  26  27
ENDBRANCH  20  26
ENDBRANCH   6   9
ENDBRANCH   2   3
TORSDOF 7
ENDMDL
MODEL      138
REMARK 921   NORMALIZED FREE ENERGY PREDICTED BY IDOCK:   31.90 KCAL/MOL
REMARK 922        TOTAL FREE ENERGY PREDICTED BY IDOCK:   43.84 KCAL/MOL
REMARK 923 INTER-LIGAND FREE ENERGY PREDICTED BY IDOCK:    9.52 KCAL/MOL
REMARK 924 INTRA-LIGAND FREE ENERGY PREDICTED BY IDOCK:   34.32 KCAL/MOL
REMARK 927      BINDING AFFINITY PREDICTED BY RF-SCORE:    0.00 PKD
ROOT
HETATM    1  C   UNL     1      -9.035  17.217  66.189  1.00  0.00    -0.154 C  
HETATM    2  O   UNL     1      -9.184  16.222  65.176  1.00  0.00     0.026 OA 
ENDROOT
BRANCH   2   3
HETATM    3  C   UNL     1      -9.006  14.924  65.572  1.00  0.00     0.932 A  
HETATM    4  C   UNL     1      -7.822  14.216  65.469  1.00  0.00     5.447 A  
HETATM    5  C   UNL     1      -7.765  12.879  65.873  1.00  0.00     2.541 A  
HETATM    6  C   UNL     1      -8.878  12.192  66.398  1.00  0.00    -0.100 A  
HETATM    7  C   UNL     1     -10.117  14.288  66.129  1.00  0.00    -0.325 A  
HETATM    8  C   UNL     1     -10.058  12.941  66.542  1.00  0.00    -0.263 A  
BRANCH   6   9
HETATM    9  C   UNL     1      -8.810  10.711  66.855  1.00  0.00    -0.138 C  
HETATM   10  S   UNL     1      -8.358  10.591  68.642  1.00  0.00    -0.140 SA 
HETATM   11  C   UNL     1      -9.240   9.104  68.940  1.00  0.00    -0.139 A  
HETATM   12  C   UNL     1      -8.789   7.867  68.453  1.00  0.00    -0.130 A  
HETATM   13  C   UNL     1      -9.559   6.741  68.731  1.00  0.00    -0.132 A  
HETATM   14  N   UNL     1      -7.600   7.805  67.632  1.00  0.00    -0.110 N  
HETATM   15  C   UNL     1     -10.448   9.221  69.649  1.00  0.00    -0.234 A  
HETATM   16  C   UNL     1     -10.778   6.860  69.431  1.00  0.00    -0.275 A  
HETATM   17  C   UNL     1      -7.756   8.281  66.314  1.00  0.00    -0.097 C  
HETATM   18  O   UNL     1      -7.673   7.499  65.357  1.00  0.00    -0.095 OA 
HETATM   19  C   UNL     1     -11.226   8.099  69.884  1.00  0.00    -0.030 A  
HETATM   20  C   UNL     1      -7.830   9.821  66.047  1.00  0.00    -0.107 C  
BRANCH  14  21
HETATM   21  C   UNL     1      -6.758   6.582  67.795  1.00  0.00    -0.071 C  
BRANCH  21  22
HETATM   22  C   UNL     1      -6.856   5.979  69.232  1.00  0.00    -0.062 C  
BRANCH  22  23
HETATM   23  N   UNL     1      -7.706   6.695  70.220  1.00  0.00    -0.096 NA 
HETATM   24  C   UNL     1      -8.837   5.836  70.611  1.00  0.00    -0.140 C  
HETATM   25  C   UNL     1      -8.234   7.962  69.713  1.00  0.00    -0.121 C  
ENDBRANCH  22  23
ENDBRANCH  21  22
ENDBRANCH  14  21
BRANCH  20  26
HETATM   26  O   UNL     1      -6.514  10.377  66.245  1.00  0.00    -0.086 OA 
BRANCH  26  27
HETATM   27  C   UNL     1      -6.284  11.591  65.698  1.00  0.00     0.853 C  
HETATM   28  C   UNL     1      -6.320  11.467  64.208  1.00  0.00     1.930 C  
HETATM   29  O   UNL     1      -6.045  12.619  66.310  1.00  0.00     0.836 OA 
ENDBRANCH  26  27
ENDBRANCH  20  26
ENDBRANCH   6   9
ENDBRANCH   2   3
TORSDOF 7
ENDMDL
MODEL      139
REMARK 921   NORMALIZED FREE ENERGY PREDICTED BY IDOCK:   32.61 KCAL/MOL
REMARK 922        TOTAL FREE ENERGY PREDICTED BY IDOCK:   44.84 KCAL/MOL
REMARK 923 INTER-LIGAND FREE ENERGY PREDICTED BY IDOCK:   42.57 KCAL/MOL
REMARK 924 INTRA-LIGAND FREE ENERGY PREDICTED BY IDOCK:    2.27 KCAL/MOL
REMARK 927      BINDING AFFINITY PREDICTED BY RF-SCORE:    0.00 PKD
ROOT
HETATM    1  C   UNL     1     -10.196  20.349  62.657  1.00  0.00    15.687 C  
HETATM    2  O   UNL     1     -10.980  20.227  63.844  1.00  0.00     2.420 OA 
ENDROOT
BRANCH   2   3
HETATM    3  C   UNL     1     -10.454  19.450  64.840  1.00  0.00     1.723 A  
HETATM    4  C   UNL     1     -10.130  19.894  66.110  1.00  0.00    -0.611 A  
HETATM    5  C   UNL     1      -9.562  19.017  67.038  1.00  0.00    -0.364 A  
HETATM    6  C   UNL     1      -9.296  17.663  66.746  1.00  0.00    -0.286 A  
HETATM    7  C   UNL     1     -10.246  18.104  64.531  1.00  0.00     4.346 A  
HETATM    8  C   UNL     1      -9.678  17.218  65.469  1.00  0.00     0.316 A  
BRANCH   6   9
HETATM    9  C   UNL     1      -8.676  16.689  67.782  1.00  0.00    -0.201 C  
HETATM   10  S   UNL     1      -6.845  16.913  67.884  1.00  0.00    -0.152 SA 
HETATM   11  C   UNL     1      -6.712  16.455  69.572  1.00  0.00    -0.202 A  
HETATM   12  C   UNL     1      -6.855  15.122  69.989  1.00  0.00    -0.109 A  
HETATM   13  C   UNL     1      -6.743  14.853  71.350  1.00  0.00     1.043 A  
HETATM   14  N   UNL     1      -7.180  14.095  69.024  1.00  0.00    -0.118 N  
HETATM   15  C   UNL     1      -6.503  17.497  70.492  1.00  0.00     1.045 A  
HETATM   16  C   UNL     1      -6.547  15.901  72.275  1.00  0.00     3.855 A  
HETATM   17  C   UNL     1      -8.512  14.106  68.561  1.00  0.00    -0.157 C  
HETATM   18  O   UNL     1      -9.277  13.174  68.845  1.00  0.00     0.080 OA 
HETATM   19  C   UNL     1      -6.434  17.222  71.847  1.00  0.00     4.047 A  
HETATM   20  C   UNL     1      -8.966  15.188  67.526  1.00  0.00    -0.180 C  
BRANCH  14  21
HETATM   21  C   UNL     1      -6.583  12.749  69.278  1.00  0.00    -0.086 C  
BRANCH  21  22
HETATM   22  C   UNL     1      -7.295  11.991  70.443  1.00  0.00     2.427 C  
BRANCH  22  23
HETATM   23  N   UNL     1      -6.434  11.295  71.435  1.00  0.00     0.965 NA 
HETATM   24  C   UNL     1      -7.137  10.108  71.951  1.00  0.00     2.160 C  
HETATM   25  C   UNL     1      -6.057  12.143  72.567  1.00  0.00     3.092 C  
ENDBRANCH  22  23
ENDBRANCH  21  22
ENDBRANCH  14  21
BRANCH  20  26
HETATM   26  O   UNL     1      -8.375  14.867  66.251  1.00  0.00     0.095 OA 
BRANCH  26  27
HETATM   27  C   UNL     1      -9.041  13.976  65.485  1.00  0.00     0.844 C  
HETATM   28  C   UNL     1     -10.035  14.709  64.640  1.00  0.00     0.337 C  
HETATM   29  O   UNL     1      -8.893  12.765  65.500  1.00  0.00     0.549 OA 
ENDBRANCH  26  27
ENDBRANCH  20  26
ENDBRANCH   6   9
ENDBRANCH   2   3
TORSDOF 7
ENDMDL
MODEL      140
REMARK 921   NORMALIZED FREE ENERGY PREDICTED BY IDOCK:   32.72 KCAL/MOL
REMARK 922        TOTAL FREE ENERGY PREDICTED BY IDOCK:   44.99 KCAL/MOL
REMARK 923 INTER-LIGAND FREE ENERGY PREDICTED BY IDOCK:   24.51 KCAL/MOL
REMARK 924 INTRA-LIGAND FREE ENERGY PREDICTED BY IDOCK:   20.48 KCAL/MOL
REMARK 927      BINDING AFFINITY PREDICTED BY RF-SCORE:    0.00 PKD
ROOT
HETATM    1  C   UNL     1     -10.599  14.164  73.573  1.00  0.00     5.416 C  
HETATM    2  O   UNL     1      -9.620  14.665  72.662  1.00  0.00     4.522 OA 
ENDROOT
BRANCH   2   3
HETATM    3  C   UNL     1      -9.603  14.094  71.418  1.00  0.00     5.779 A  
HETATM    4  C   UNL     1      -8.597  13.278  70.930  1.00  0.00     8.012 A  
HETATM    5  C   UNL     1      -8.668  12.779  69.626  1.00  0.00     2.000 A  
HETATM    6  C   UNL     1      -9.740  13.064  68.756  1.00  0.00     0.049 A  
HETATM    7  C   UNL     1     -10.702  14.360  70.598  1.00  0.00     0.637 A  
HETATM    8  C   UNL     1     -10.776  13.851  69.286  1.00  0.00    -0.117 A  
BRANCH   6   9
HETATM    9  C   UNL     1      -9.820  12.499  67.313  1.00  0.00    -0.204 C  
HETATM   10  S   UNL     1     -11.311  11.428  67.105  1.00  0.00    -0.184 SA 
HETATM   11  C   UNL     1     -11.536  11.781  65.402  1.00  0.00    -0.176 A  
HETATM   12  C   UNL     1     -10.678  11.260  64.420  1.00  0.00    -0.339 A  
HETATM   13  C   UNL     1     -10.928  11.601  63.093  1.00  0.00    -0.247 A  
HETATM   14  N   UNL     1      -9.537  10.460  64.808  1.00  0.00    -0.266 N  
HETATM   15  C   UNL     1     -12.590  12.650  65.073  1.00  0.00    -0.504 A  
HETATM   16  C   UNL     1     -11.978  12.485  62.765  1.00  0.00     0.573 A  
HETATM   17  C   UNL     1      -8.467  11.179  65.381  1.00  0.00     0.043 C  
HETATM   18  O   UNL     1      -7.386  11.264  64.784  1.00  0.00     0.686 OA 
HETATM   19  C   UNL     1     -12.804  13.014  63.754  1.00  0.00     0.017 A  
HETATM   20  C   UNL     1      -8.577  11.694  66.855  1.00  0.00    -0.174 C  
BRANCH  14  21
HETATM   21  C   UNL     1      -9.164   9.358  63.871  1.00  0.00     0.074 C  
BRANCH  21  22
HETATM   22  C   UNL     1      -7.976   8.498  64.407  1.00  0.00    -0.147 C  
BRANCH  22  23
HETATM   23  N   UNL     1      -6.627   9.123  64.417  1.00  0.00    -0.079 NA 
HETATM   24  C   UNL     1      -5.610   8.103  64.109  1.00  0.00    -0.048 C  
HETATM   25  C   UNL     1      -6.291   9.745  65.699  1.00  0.00    -0.074 C  
ENDBRANCH  22  23
ENDBRANCH  21  22
ENDBRANCH  14  21
BRANCH  20  26
HETATM   26  O   UNL     1      -8.476  10.559  67.738  1.00  0.00    -0.114 OA 
BRANCH  26  27
HETATM   27  C   UNL     1      -9.629   9.917  68.030  1.00  0.00    -0.138 C  
HETATM   28  C   UNL     1     -10.770  10.673  67.428  1.00  0.00    -0.326 C  
HETATM   29  O   UNL     1      -9.736   8.908  68.707  1.00  0.00    -0.159 OA 
ENDBRANCH  26  27
ENDBRANCH  20  26
ENDBRANCH   6   9
ENDBRANCH   2   3
TORSDOF 7
ENDMDL
MODEL      141
REMARK 921   NORMALIZED FREE ENERGY PREDICTED BY IDOCK:   54.05 KCAL/MOL
REMARK 922        TOTAL FREE ENERGY PREDICTED BY IDOCK:   75.05 KCAL/MOL
REMARK 923 INTER-LIGAND FREE ENERGY PREDICTED BY IDOCK:   66.04 KCAL/MOL
REMARK 924 INTRA-LIGAND FREE ENERGY PREDICTED BY IDOCK:    9.01 KCAL/MOL
REMARK 927      BINDING AFFINITY PREDICTED BY RF-SCORE:    0.00 PKD
ROOT
HETATM    1  C   UNL     1      -9.990  14.185  73.814  1.00  0.00     8.367 C  
HETATM    2  O   UNL     1     -10.941  13.136  73.638  1.00  0.00     7.500 OA 
ENDROOT
BRANCH   2   3
HETATM    3  C   UNL     1     -10.548  12.088  72.849  1.00  0.00    16.807 A  
HETATM    4  C   UNL     1      -9.252  11.615  72.742  1.00  0.00    22.258 A  
HETATM    5  C   UNL     1      -8.959  10.559  71.874  1.00  0.00     7.191 A  
HETATM    6  C   UNL     1      -9.939   9.927  71.082  1.00  0.00     0.415 A  
HETATM    7  C   UNL     1     -11.552  11.456  72.112  1.00  0.00     3.792 A  
HETATM    8  C   UNL     1     -11.257  10.387  71.242  1.00  0.00     0.198 A  
BRANCH   6   9
HETATM    9  C   UNL     1      -9.612   8.749  70.127  1.00  0.00    -0.173 C  
HETATM   10  S   UNL     1      -8.551   7.492  70.969  1.00  0.00    -0.133 SA 
HETATM   11  C   UNL     1      -9.167   6.119  70.068  1.00  0.00    -0.151 A  
HETATM   12  C   UNL     1      -8.833   5.910  68.720  1.00  0.00    -0.111 A  
HETATM   13  C   UNL     1      -9.377   4.798  68.082  1.00  0.00    -0.172 A  
HETATM   14  N   UNL     1      -8.011   6.874  68.022  1.00  0.00    -0.113 N  
HETATM   15  C   UNL     1     -10.051   5.265  70.749  1.00  0.00    -0.294 A  
HETATM   16  C   UNL     1     -10.275   3.949  68.762  1.00  0.00     0.611 A  
HETATM   17  C   UNL     1      -8.654   8.083  67.689  1.00  0.00    -0.130 C  
HETATM   18  O   UNL     1      -8.862   8.369  66.502  1.00  0.00    -0.132 OA 
HETATM   19  C   UNL     1     -10.617   4.185  70.092  1.00  0.00     1.137 A  
HETATM   20  C   UNL     1      -8.923   9.153  68.799  1.00  0.00    -0.136 C  
BRANCH  14  21
HETATM   21  C   UNL     1      -7.084   6.315  66.992  1.00  0.00    -0.073 C  
BRANCH  21  22
HETATM   22  C   UNL     1      -7.791   5.296  66.044  1.00  0.00    -0.103 C  
BRANCH  22  23
HETATM   23  N   UNL     1      -7.245   5.146  64.669  1.00  0.00    -0.057 NA 
HETATM   24  C   UNL     1      -8.017   5.986  63.738  1.00  0.00    -0.112 C  
HETATM   25  C   UNL     1      -7.275   3.764  64.187  1.00  0.00    -0.058 C  
ENDBRANCH  22  23
ENDBRANCH  21  22
ENDBRANCH  14  21
BRANCH  20  26
HETATM   26  O   UNL     1      -7.663   9.756  69.158  1.00  0.00    -0.081 OA 
BRANCH  26  27
HETATM   27  C   UNL     1      -6.993   9.187  70.184  1.00  0.00    -0.056 C  
HETATM   28  C   UNL     1      -5.983  10.161  70.703  1.00  0.00    -0.104 C  
HETATM   29  O   UNL     1      -7.151   8.052  70.602  1.00  0.00    -0.044 OA 
ENDBRANCH  26  27
ENDBRANCH  20  26
ENDBRANCH   6   9
ENDBRANCH   2   3
TORSDOF 7
ENDMDL
MODEL      142
REMARK 921   NORMALIZED FREE ENERGY PREDICTED BY IDOCK:   64.74 KCAL/MOL
REMARK 922        TOTAL FREE ENERGY PREDICTED BY IDOCK:   90.12 KCAL/MOL
REMARK 923 INTER-LIGAND FREE ENERGY PREDICTED BY IDOCK:   85.25 KCAL/MOL
REMARK 924 INTRA-LIGAND FREE ENERGY PREDICTED BY IDOCK:    4.87 KCAL/MOL
REMARK 927      BINDING AFFINITY PREDICTED BY RF-SCORE:    0.00 PKD
ROOT
HETATM    1  C   UNL     1     -10.041   8.250  68.506  1.00  0.00    -0.197 C  
HETATM    2  O   UNL     1      -8.863   9.041  68.670  1.00  0.00    -0.135 OA 
ENDROOT
BRANCH   2   3
HETATM    3  C   UNL     1      -8.942  10.340  68.245  1.00  0.00    -0.132 A  
HETATM    4  C   UNL     1     -10.117  11.016  67.967  1.00  0.00    -0.198 A  
HETATM    5  C   UNL     1     -10.075  12.335  67.502  1.00  0.00    -0.206 A  
HETATM    6  C   UNL     1      -8.869  13.035  67.298  1.00  0.00    -0.208 A  
HETATM    7  C   UNL     1      -7.730  11.018  68.097  1.00  0.00    -0.105 A  
HETATM    8  C   UNL     1      -7.689  12.349  67.634  1.00  0.00    -0.151 A  
BRANCH   6   9
HETATM    9  C   UNL     1      -8.827  14.501  66.792  1.00  0.00    -0.220 C  
HETATM   10  S   UNL     1     -10.478  15.027  66.155  1.00  0.00    -0.321 SA 
HETATM   11  C   UNL     1     -10.291  16.719  66.574  1.00  0.00    -0.301 A  
HETATM   12  C   UNL     1      -9.431  17.567  65.857  1.00  0.00     0.031 A  
HETATM   13  C   UNL     1      -9.338  18.894  66.269  1.00  0.00    -0.297 A  
HETATM   14  N   UNL     1      -8.625  17.036  64.781  1.00  0.00     4.183 N  
HETATM   15  C   UNL     1     -11.008  17.174  67.694  1.00  0.00    -0.148 A  
HETATM   16  C   UNL     1     -10.048  19.346  67.401  1.00  0.00    -0.506 A  
HETATM   17  C   UNL     1      -7.529  16.245  65.185  1.00  0.00     5.219 C  
HETATM   18  O   UNL     1      -6.372  16.640  64.990  1.00  0.00     2.853 OA 
HETATM   19  C   UNL     1     -10.877  18.485  68.118  1.00  0.00    -0.064 A  
HETATM   20  C   UNL     1      -7.770  14.785  65.694  1.00  0.00     4.932 C  
BRANCH  14  21
HETATM   21  C   UNL     1      -8.382  17.958  63.631  1.00  0.00    15.971 C  
BRANCH  21  22
HETATM   22  C   UNL     1      -9.567  18.949  63.402  1.00  0.00    17.366 C  
BRANCH  22  23
HETATM   23  N   UNL     1      -9.234  20.388  63.231  1.00  0.00     7.778 NA 
HETATM   24  C   UNL     1     -10.296  21.049  62.453  1.00  0.00    11.498 C  
HETATM   25  C   UNL     1      -7.955  20.605  62.555  1.00  0.00     4.451 C  
ENDBRANCH  22  23
ENDBRANCH  21  22
ENDBRANCH  14  21
BRANCH  20  26
HETATM   26  O   UNL     1      -8.127  13.966  64.562  1.00  0.00     6.789 OA 
BRANCH  26  27
HETATM   27  C   UNL     1      -8.324  12.652  64.806  1.00  0.00     3.282 C  
HETATM   28  C   UNL     1      -6.995  11.971  64.902  1.00  0.00     4.039 C  
HETATM   29  O   UNL     1      -9.405  12.094  64.897  1.00  0.00     0.053 OA 
ENDBRANCH  26  27
ENDBRANCH  20  26
ENDBRANCH   6   9
ENDBRANCH   2   3
TORSDOF 7
ENDMDL
