MODEL        1
REMARK 921   NORMALIZED FREE ENERGY PREDICTED BY IDOCK:   -3.29 KCAL/MOL
REMARK 922        TOTAL FREE ENERGY PREDICTED BY IDOCK:   -3.68 KCAL/MOL
REMARK 923 INTER-LIGAND FREE ENERGY PREDICTED BY IDOCK:   -3.67 KCAL/MOL
REMARK 924 INTRA-LIGAND FREE ENERGY PREDICTED BY IDOCK:   -0.01 KCAL/MOL
REMARK 927      BINDING AFFINITY PREDICTED BY RF-SCORE:    0.00 PKD
ROOT
HETATM    1  O   UNL     1     -11.627  16.433  63.760  1.00  0.00    -1.605 OA 
HETATM    2  C   UNL     1     -10.928  16.085  64.951  1.00  0.00    -0.384 C  
HETATM    3  H   UNL     1     -11.577  17.366  63.592  1.00  0.00     0.000 HD 
ENDROOT
BRANCH   2   4
HETATM    4  C   UNL     1     -11.009  14.572  65.224  1.00  0.00    -0.360 C  
HETATM    5  S   UNL     1     -11.511  14.310  66.974  1.00  0.00    -0.378 SA 
HETATM    6  H   UNL     1     -11.585  12.945  67.219  1.00  0.00     0.000 H  
BRANCH   4   7
HETATM    7  C   UNL     1     -11.966  13.893  64.230  1.00  0.00    -0.444 C  
HETATM    8  S   UNL     1     -11.482  12.199  63.750  1.00  0.00    -0.500 SA 
HETATM    9  H   UNL     1     -12.347  11.585  62.852  1.00  0.00     0.000 H  
ENDBRANCH   4   7
ENDBRANCH   2   4
TORSDOF 2
ENDMDL
MODEL        2
REMARK 921   NORMALIZED FREE ENERGY PREDICTED BY IDOCK:   -3.28 KCAL/MOL
REMARK 922        TOTAL FREE ENERGY PREDICTED BY IDOCK:   -3.68 KCAL/MOL
REMARK 923 INTER-LIGAND FREE ENERGY PREDICTED BY IDOCK:   -3.67 KCAL/MOL
REMARK 924 INTRA-LIGAND FREE ENERGY PREDICTED BY IDOCK:   -0.00 KCAL/MOL
REMARK 927      BINDING AFFINITY PREDICTED BY RF-SCORE:    0.00 PKD
ROOT
HETATM    1  O   UNL     1     -11.744  16.354  63.824  1.00  0.00    -1.553 OA 
HETATM    2  C   UNL     1     -11.208  15.422  64.758  1.00  0.00    -0.395 C  
HETATM    3  H   UNL     1     -11.131  17.059  63.651  1.00  0.00     0.000 HD 
ENDROOT
BRANCH   2   4
HETATM    4  C   UNL     1     -12.201  14.280  65.038  1.00  0.00    -0.433 C  
HETATM    5  S   UNL     1     -11.956  12.960  63.781  1.00  0.00    -0.538 SA 
HETATM    6  H   UNL     1     -12.852  11.928  64.034  1.00  0.00     0.000 H  
BRANCH   4   7
HETATM    7  C   UNL     1     -12.037  13.759  66.475  1.00  0.00    -0.443 C  
HETATM    8  S   UNL     1     -11.519  12.012  66.593  1.00  0.00    -0.311 SA 
HETATM    9  H   UNL     1     -11.371  11.541  67.892  1.00  0.00     0.000 H  
ENDBRANCH   4   7
ENDBRANCH   2   4
TORSDOF 2
ENDMDL
MODEL        3
REMARK 921   NORMALIZED FREE ENERGY PREDICTED BY IDOCK:   -3.08 KCAL/MOL
REMARK 922        TOTAL FREE ENERGY PREDICTED BY IDOCK:   -3.46 KCAL/MOL
REMARK 923 INTER-LIGAND FREE ENERGY PREDICTED BY IDOCK:   -3.43 KCAL/MOL
REMARK 924 INTRA-LIGAND FREE ENERGY PREDICTED BY IDOCK:   -0.02 KCAL/MOL
REMARK 927      BINDING AFFINITY PREDICTED BY RF-SCORE:    0.00 PKD
ROOT
HETATM    1  O   UNL     1     -11.666  16.389  63.770  1.00  0.00    -1.553 OA 
HETATM    2  C   UNL     1     -11.997  15.138  64.365  1.00  0.00    -0.310 C  
HETATM    3  H   UNL     1     -12.422  16.782  63.352  1.00  0.00     0.000 HD 
ENDROOT
BRANCH   2   4
HETATM    4  C   UNL     1     -10.770  14.500  65.042  1.00  0.00    -0.427 C  
HETATM    5  S   UNL     1     -10.704  15.057  66.794  1.00  0.00    -0.312 SA 
HETATM    6  H   UNL     1      -9.597  14.482  67.406  1.00  0.00     0.000 H  
BRANCH   4   7
HETATM    7  C   UNL     1     -10.815  12.969  64.914  1.00  0.00    -0.323 C  
HETATM    8  S   UNL     1     -11.738  12.358  63.463  1.00  0.00    -0.509 SA 
HETATM    9  H   UNL     1     -11.780  10.973  63.347  1.00  0.00     0.000 H  
ENDBRANCH   4   7
ENDBRANCH   2   4
TORSDOF 2
ENDMDL
MODEL        4
REMARK 921   NORMALIZED FREE ENERGY PREDICTED BY IDOCK:   -3.02 KCAL/MOL
REMARK 922        TOTAL FREE ENERGY PREDICTED BY IDOCK:   -3.38 KCAL/MOL
REMARK 923 INTER-LIGAND FREE ENERGY PREDICTED BY IDOCK:   -3.38 KCAL/MOL
REMARK 924 INTRA-LIGAND FREE ENERGY PREDICTED BY IDOCK:   -0.00 KCAL/MOL
REMARK 927      BINDING AFFINITY PREDICTED BY RF-SCORE:    0.00 PKD
ROOT
HETATM    1  O   UNL     1     -11.584  16.362  63.802  1.00  0.00    -1.605 OA 
HETATM    2  C   UNL     1     -11.853  15.068  64.332  1.00  0.00    -0.339 C  
HETATM    3  H   UNL     1     -12.095  16.525  63.018  1.00  0.00     0.000 HD 
ENDROOT
BRANCH   2   4
HETATM    4  C   UNL     1     -11.025  14.804  65.603  1.00  0.00    -0.344 C  
HETATM    5  S   UNL     1     -10.061  16.317  66.009  1.00  0.00    -0.368 SA 
HETATM    6  H   UNL     1      -9.314  16.079  67.156  1.00  0.00     0.000 H  
BRANCH   4   7
HETATM    7  C   UNL     1     -11.935  14.360  66.760  1.00  0.00    -0.399 C  
HETATM    8  S   UNL     1     -11.553  15.140  68.366  1.00  0.00    -0.324 SA 
HETATM    9  H   UNL     1     -12.375  14.737  69.412  1.00  0.00     0.000 H  
ENDBRANCH   4   7
ENDBRANCH   2   4
TORSDOF 2
ENDMDL
MODEL        5
REMARK 921   NORMALIZED FREE ENERGY PREDICTED BY IDOCK:   -3.02 KCAL/MOL
REMARK 922        TOTAL FREE ENERGY PREDICTED BY IDOCK:   -3.38 KCAL/MOL
REMARK 923 INTER-LIGAND FREE ENERGY PREDICTED BY IDOCK:   -3.38 KCAL/MOL
REMARK 924 INTRA-LIGAND FREE ENERGY PREDICTED BY IDOCK:   -0.00 KCAL/MOL
REMARK 927      BINDING AFFINITY PREDICTED BY RF-SCORE:    0.00 PKD
ROOT
HETATM    1  O   UNL     1     -11.661  16.377  63.759  1.00  0.00    -1.605 OA 
HETATM    2  C   UNL     1     -12.097  15.161  64.357  1.00  0.00    -0.300 C  
HETATM    3  H   UNL     1     -12.275  16.676  63.099  1.00  0.00     0.000 HD 
ENDROOT
BRANCH   2   4
HETATM    4  C   UNL     1     -11.102  14.677  65.426  1.00  0.00    -0.348 C  
HETATM    5  S   UNL     1      -9.972  16.063  65.856  1.00  0.00    -0.364 SA 
HETATM    6  H   UNL     1      -9.073  15.626  66.822  1.00  0.00     0.000 H  
BRANCH   4   7
HETATM    7  C   UNL     1     -11.848  14.126  66.652  1.00  0.00    -0.424 C  
HETATM    8  S   UNL     1     -11.613  12.339  66.942  1.00  0.00    -0.337 SA 
HETATM    9  H   UNL     1     -12.289  11.841  68.050  1.00  0.00     0.000 H  
ENDBRANCH   4   7
ENDBRANCH   2   4
TORSDOF 2
ENDMDL
MODEL        6
REMARK 921   NORMALIZED FREE ENERGY PREDICTED BY IDOCK:   -2.98 KCAL/MOL
REMARK 922        TOTAL FREE ENERGY PREDICTED BY IDOCK:   -3.34 KCAL/MOL
REMARK 923 INTER-LIGAND FREE ENERGY PREDICTED BY IDOCK:   -3.33 KCAL/MOL
REMARK 924 INTRA-LIGAND FREE ENERGY PREDICTED BY IDOCK:   -0.01 KCAL/MOL
REMARK 927      BINDING AFFINITY PREDICTED BY RF-SCORE:    0.00 PKD
ROOT
HETATM    1  O   UNL     1     -12.510  14.051  63.138  1.00  0.00    -1.137 OA 
HETATM    2  C   UNL     1     -12.188  12.709  63.492  1.00  0.00    -0.547 C  
HETATM    3  H   UNL     1     -12.505  14.169  62.196  1.00  0.00     0.000 HD 
ENDROOT
BRANCH   2   4
HETATM    4  C   UNL     1     -12.197  12.517  65.019  1.00  0.00    -0.456 C  
HETATM    5  S   UNL     1     -10.588  11.789  65.534  1.00  0.00    -0.285 SA 
HETATM    6  H   UNL     1     -10.596  11.616  66.913  1.00  0.00     0.000 H  
BRANCH   4   7
HETATM    7  C   UNL     1     -12.494  13.847  65.730  1.00  0.00    -0.495 C  
HETATM    8  S   UNL     1     -11.814  13.970  67.420  1.00  0.00    -0.409 SA 
HETATM    9  H   UNL     1     -12.084  15.172  68.064  1.00  0.00     0.000 H  
ENDBRANCH   4   7
ENDBRANCH   2   4
TORSDOF 2
ENDMDL
MODEL        7
REMARK 921   NORMALIZED FREE ENERGY PREDICTED BY IDOCK:   -2.95 KCAL/MOL
REMARK 922        TOTAL FREE ENERGY PREDICTED BY IDOCK:   -3.31 KCAL/MOL
REMARK 923 INTER-LIGAND FREE ENERGY PREDICTED BY IDOCK:   -3.29 KCAL/MOL
REMARK 924 INTRA-LIGAND FREE ENERGY PREDICTED BY IDOCK:   -0.02 KCAL/MOL
REMARK 927      BINDING AFFINITY PREDICTED BY RF-SCORE:    0.00 PKD
ROOT
HETATM    1  O   UNL     1     -11.554  16.362  63.717  1.00  0.00    -1.605 OA 
HETATM    2  C   UNL     1     -11.021  16.192  65.027  1.00  0.00    -0.344 C  
HETATM    3  H   UNL     1     -11.323  17.211  63.359  1.00  0.00     0.000 HD 
ENDROOT
BRANCH   2   4
HETATM    4  C   UNL     1     -11.396  14.817  65.607  1.00  0.00    -0.343 C  
HETATM    5  S   UNL     1     -12.007  13.744  64.244  1.00  0.00    -0.423 SA 
HETATM    6  H   UNL     1     -12.345  12.502  64.767  1.00  0.00     0.000 H  
BRANCH   4   7
HETATM    7  C   UNL     1     -10.200  14.198  66.349  1.00  0.00    -0.290 C  
HETATM    8  S   UNL     1      -8.846  15.369  66.712  1.00  0.00    -0.288 SA 
HETATM    9  H   UNL     1      -7.765  14.809  67.383  1.00  0.00     0.000 H  
ENDBRANCH   4   7
ENDBRANCH   2   4
TORSDOF 2
ENDMDL
MODEL        8
REMARK 921   NORMALIZED FREE ENERGY PREDICTED BY IDOCK:   -2.87 KCAL/MOL
REMARK 922        TOTAL FREE ENERGY PREDICTED BY IDOCK:   -3.22 KCAL/MOL
REMARK 923 INTER-LIGAND FREE ENERGY PREDICTED BY IDOCK:   -3.18 KCAL/MOL
REMARK 924 INTRA-LIGAND FREE ENERGY PREDICTED BY IDOCK:   -0.04 KCAL/MOL
REMARK 927      BINDING AFFINITY PREDICTED BY RF-SCORE:    0.00 PKD
ROOT
HETATM    1  O   UNL     1     -14.098   8.911  73.343  1.00  0.00    -1.256 OA 
HETATM    2  C   UNL     1     -13.690   8.880  71.978  1.00  0.00    -0.459 C  
HETATM    3  H   UNL     1     -15.017   9.133  73.422  1.00  0.00     0.000 HD 
ENDROOT
BRANCH   2   4
HETATM    4  C   UNL     1     -12.199   8.519  71.850  1.00  0.00    -0.352 C  
HETATM    5  S   UNL     1     -12.054   6.892  71.004  1.00  0.00    -0.357 SA 
HETATM    6  H   UNL     1     -10.708   6.566  70.888  1.00  0.00     0.000 H  
BRANCH   4   7
HETATM    7  C   UNL     1     -11.433   9.632  71.117  1.00  0.00    -0.384 C  
HETATM    8  S   UNL     1     -12.418  11.132  70.778  1.00  0.00    -0.374 SA 
HETATM    9  H   UNL     1     -11.726  12.138  70.114  1.00  0.00     0.000 H  
ENDBRANCH   4   7
ENDBRANCH   2   4
TORSDOF 2
ENDMDL
MODEL        9
REMARK 921   NORMALIZED FREE ENERGY PREDICTED BY IDOCK:   -2.81 KCAL/MOL
REMARK 922        TOTAL FREE ENERGY PREDICTED BY IDOCK:   -3.15 KCAL/MOL
REMARK 923 INTER-LIGAND FREE ENERGY PREDICTED BY IDOCK:   -3.12 KCAL/MOL
REMARK 924 INTRA-LIGAND FREE ENERGY PREDICTED BY IDOCK:   -0.03 KCAL/MOL
REMARK 927      BINDING AFFINITY PREDICTED BY RF-SCORE:    0.00 PKD
ROOT
HETATM    1  O   UNL     1     -14.160   8.899  73.350  1.00  0.00    -1.256 OA 
HETATM    2  C   UNL     1     -14.059   8.678  71.947  1.00  0.00    -0.443 C  
HETATM    3  H   UNL     1     -15.061   8.840  73.644  1.00  0.00     0.000 HD 
ENDROOT
BRANCH   2   4
HETATM    4  C   UNL     1     -12.599   8.774  71.471  1.00  0.00    -0.326 C  
HETATM    5  S   UNL     1     -12.176  10.544  71.204  1.00  0.00    -0.389 SA 
HETATM    6  H   UNL     1     -10.857  10.629  70.775  1.00  0.00     0.000 H  
BRANCH   4   7
HETATM    7  C   UNL     1     -11.656   8.090  72.474  1.00  0.00    -0.403 C  
HETATM    8  S   UNL     1     -11.466   6.290  72.229  1.00  0.00    -0.304 SA 
HETATM    9  H   UNL     1     -10.614   5.672  73.137  1.00  0.00     0.000 H  
ENDBRANCH   4   7
ENDBRANCH   2   4
TORSDOF 2
ENDMDL
MODEL       10
REMARK 921   NORMALIZED FREE ENERGY PREDICTED BY IDOCK:   -2.81 KCAL/MOL
REMARK 922        TOTAL FREE ENERGY PREDICTED BY IDOCK:   -3.15 KCAL/MOL
REMARK 923 INTER-LIGAND FREE ENERGY PREDICTED BY IDOCK:   -3.12 KCAL/MOL
REMARK 924 INTRA-LIGAND FREE ENERGY PREDICTED BY IDOCK:   -0.03 KCAL/MOL
REMARK 927      BINDING AFFINITY PREDICTED BY RF-SCORE:    0.00 PKD
ROOT
HETATM    1  O   UNL     1     -12.358  13.852  63.058  1.00  0.00    -1.101 OA 
HETATM    2  C   UNL     1     -12.404  12.502  63.510  1.00  0.00    -0.525 C  
HETATM    3  H   UNL     1     -13.068  14.037  62.455  1.00  0.00     0.000 HD 
ENDROOT
BRANCH   2   4
HETATM    4  C   UNL     1     -11.253  12.202  64.488  1.00  0.00    -0.331 C  
HETATM    5  S   UNL     1      -9.903  11.352  63.572  1.00  0.00    -0.402 SA 
HETATM    6  H   UNL     1      -8.864  11.082  64.455  1.00  0.00     0.000 H  
BRANCH   4   7
HETATM    7  C   UNL     1     -10.776  13.492  65.175  1.00  0.00    -0.341 C  
HETATM    8  S   UNL     1     -11.756  13.978  66.636  1.00  0.00    -0.419 SA 
HETATM    9  H   UNL     1     -11.325  15.145  67.257  1.00  0.00     0.000 H  
ENDBRANCH   4   7
ENDBRANCH   2   4
TORSDOF 2
ENDMDL
MODEL       11
REMARK 921   NORMALIZED FREE ENERGY PREDICTED BY IDOCK:   -2.81 KCAL/MOL
REMARK 922        TOTAL FREE ENERGY PREDICTED BY IDOCK:   -3.15 KCAL/MOL
REMARK 923 INTER-LIGAND FREE ENERGY PREDICTED BY IDOCK:   -3.15 KCAL/MOL
REMARK 924 INTRA-LIGAND FREE ENERGY PREDICTED BY IDOCK:   -0.00 KCAL/MOL
REMARK 927      BINDING AFFINITY PREDICTED BY RF-SCORE:    0.00 PKD
ROOT
HETATM    1  O   UNL     1     -12.505  14.146  63.217  1.00  0.00    -1.146 OA 
HETATM    2  C   UNL     1     -12.133  12.806  63.523  1.00  0.00    -0.559 C  
HETATM    3  H   UNL     1     -13.412  14.197  62.940  1.00  0.00     0.000 HD 
ENDROOT
BRANCH   2   4
HETATM    4  C   UNL     1     -10.663  12.724  63.971  1.00  0.00    -0.426 C  
HETATM    5  S   UNL     1     -10.605  12.679  65.809  1.00  0.00    -0.278 SA 
HETATM    6  H   UNL     1      -9.278  12.604  66.214  1.00  0.00     0.000 H  
BRANCH   4   7
HETATM    7  C   UNL     1      -9.968  11.510  63.333  1.00  0.00    -0.417 C  
HETATM    8  S   UNL     1      -9.439  10.229  64.521  1.00  0.00    -0.320 SA 
HETATM    9  H   UNL     1      -8.810   9.132  63.943  1.00  0.00     0.000 H  
ENDBRANCH   4   7
ENDBRANCH   2   4
TORSDOF 2
ENDMDL
MODEL       12
REMARK 921   NORMALIZED FREE ENERGY PREDICTED BY IDOCK:   -2.78 KCAL/MOL
REMARK 922        TOTAL FREE ENERGY PREDICTED BY IDOCK:   -3.12 KCAL/MOL
REMARK 923 INTER-LIGAND FREE ENERGY PREDICTED BY IDOCK:   -3.11 KCAL/MOL
REMARK 924 INTRA-LIGAND FREE ENERGY PREDICTED BY IDOCK:   -0.01 KCAL/MOL
REMARK 927      BINDING AFFINITY PREDICTED BY RF-SCORE:    0.00 PKD
ROOT
HETATM    1  O   UNL     1     -12.488  14.487  63.345  1.00  0.00    -1.080 OA 
HETATM    2  C   UNL     1     -12.399  14.334  64.758  1.00  0.00    -0.426 C  
HETATM    3  H   UNL     1     -12.489  15.404  63.098  1.00  0.00     0.000 HD 
ENDROOT
BRANCH   2   4
HETATM    4  C   UNL     1     -12.398  12.847  65.159  1.00  0.00    -0.493 C  
HETATM    5  S   UNL     1     -11.631  11.869  63.803  1.00  0.00    -0.448 SA 
HETATM    6  H   UNL     1     -11.629  10.527  64.165  1.00  0.00     0.000 H  
BRANCH   4   7
HETATM    7  C   UNL     1     -11.681  12.649  66.504  1.00  0.00    -0.400 C  
HETATM    8  S   UNL     1      -9.907  13.081  66.487  1.00  0.00    -0.267 SA 
HETATM    9  H   UNL     1      -9.258  12.901  67.703  1.00  0.00     0.000 H  
ENDBRANCH   4   7
ENDBRANCH   2   4
TORSDOF 2
ENDMDL
MODEL       13
REMARK 921   NORMALIZED FREE ENERGY PREDICTED BY IDOCK:   -2.78 KCAL/MOL
REMARK 922        TOTAL FREE ENERGY PREDICTED BY IDOCK:   -3.12 KCAL/MOL
REMARK 923 INTER-LIGAND FREE ENERGY PREDICTED BY IDOCK:   -3.11 KCAL/MOL
REMARK 924 INTRA-LIGAND FREE ENERGY PREDICTED BY IDOCK:   -0.00 KCAL/MOL
REMARK 927      BINDING AFFINITY PREDICTED BY RF-SCORE:    0.00 PKD
ROOT
HETATM    1  O   UNL     1     -12.254  11.343  63.056  1.00  0.00    -0.946 OA 
HETATM    2  C   UNL     1     -12.257  12.677  63.556  1.00  0.00    -0.547 C  
HETATM    3  H   UNL     1     -12.116  11.329  62.116  1.00  0.00     0.000 HD 
ENDROOT
BRANCH   2   4
HETATM    4  C   UNL     1     -12.480  12.700  65.079  1.00  0.00    -0.487 C  
HETATM    5  S   UNL     1     -11.127  11.755  65.892  1.00  0.00    -0.272 SA 
HETATM    6  H   UNL     1     -11.328  11.777  67.266  1.00  0.00     0.000 H  
BRANCH   4   7
HETATM    7  C   UNL     1     -12.575  14.147  65.590  1.00  0.00    -0.470 C  
HETATM    8  S   UNL     1     -11.596  14.484  67.095  1.00  0.00    -0.390 SA 
HETATM    9  H   UNL     1     -11.682  15.792  67.557  1.00  0.00     0.000 H  
ENDBRANCH   4   7
ENDBRANCH   2   4
TORSDOF 2
ENDMDL
MODEL       14
REMARK 921   NORMALIZED FREE ENERGY PREDICTED BY IDOCK:   -2.77 KCAL/MOL
REMARK 922        TOTAL FREE ENERGY PREDICTED BY IDOCK:   -3.11 KCAL/MOL
REMARK 923 INTER-LIGAND FREE ENERGY PREDICTED BY IDOCK:   -3.09 KCAL/MOL
REMARK 924 INTRA-LIGAND FREE ENERGY PREDICTED BY IDOCK:   -0.02 KCAL/MOL
REMARK 927      BINDING AFFINITY PREDICTED BY RF-SCORE:    0.00 PKD
ROOT
HETATM    1  O   UNL     1     -12.453  14.206  63.241  1.00  0.00    -1.146 OA 
HETATM    2  C   UNL     1     -12.225  14.375  64.636  1.00  0.00    -0.464 C  
HETATM    3  H   UNL     1     -13.382  14.177  63.045  1.00  0.00     0.000 HD 
ENDROOT
BRANCH   2   4
HETATM    4  C   UNL     1     -10.719  14.422  64.953  1.00  0.00    -0.426 C  
HETATM    5  S   UNL     1     -10.327  16.042  65.730  1.00  0.00    -0.391 SA 
HETATM    6  H   UNL     1      -8.968  16.085  66.017  1.00  0.00     0.000 H  
BRANCH   4   7
HETATM    7  C   UNL     1     -10.314  13.233  65.838  1.00  0.00    -0.292 C  
HETATM    8  S   UNL     1     -11.608  12.679  67.000  1.00  0.00    -0.374 SA 
HETATM    9  H   UNL     1     -11.242  11.603  67.802  1.00  0.00     0.000 H  
ENDBRANCH   4   7
ENDBRANCH   2   4
TORSDOF 2
ENDMDL
MODEL       15
REMARK 921   NORMALIZED FREE ENERGY PREDICTED BY IDOCK:   -2.73 KCAL/MOL
REMARK 922        TOTAL FREE ENERGY PREDICTED BY IDOCK:   -3.06 KCAL/MOL
REMARK 923 INTER-LIGAND FREE ENERGY PREDICTED BY IDOCK:   -3.06 KCAL/MOL
REMARK 924 INTRA-LIGAND FREE ENERGY PREDICTED BY IDOCK:   -0.00 KCAL/MOL
REMARK 927      BINDING AFFINITY PREDICTED BY RF-SCORE:    0.00 PKD
ROOT
HETATM    1  O   UNL     1     -11.571  16.352  63.716  1.00  0.00    -1.605 OA 
HETATM    2  C   UNL     1     -11.576  15.020  64.222  1.00  0.00    -0.181 C  
HETATM    3  H   UNL     1     -11.820  16.373  62.800  1.00  0.00     0.000 HD 
ENDROOT
BRANCH   2   4
HETATM    4  C   UNL     1     -11.172  14.986  65.707  1.00  0.00    -0.318 C  
HETATM    5  S   UNL     1     -12.065  13.606  66.533  1.00  0.00    -0.408 SA 
HETATM    6  H   UNL     1     -11.700  13.575  67.873  1.00  0.00     0.000 H  
BRANCH   4   7
HETATM    7  C   UNL     1      -9.647  14.868  65.851  1.00  0.00    -0.308 C  
HETATM    8  S   UNL     1      -9.093  13.533  66.966  1.00  0.00    -0.237 SA 
HETATM    9  H   UNL     1      -7.713  13.426  67.097  1.00  0.00     0.000 H  
ENDBRANCH   4   7
ENDBRANCH   2   4
TORSDOF 2
ENDMDL
MODEL       16
REMARK 921   NORMALIZED FREE ENERGY PREDICTED BY IDOCK:   -2.72 KCAL/MOL
REMARK 922        TOTAL FREE ENERGY PREDICTED BY IDOCK:   -3.05 KCAL/MOL
REMARK 923 INTER-LIGAND FREE ENERGY PREDICTED BY IDOCK:   -3.05 KCAL/MOL
REMARK 924 INTRA-LIGAND FREE ENERGY PREDICTED BY IDOCK:   -0.00 KCAL/MOL
REMARK 927      BINDING AFFINITY PREDICTED BY RF-SCORE:    0.00 PKD
ROOT
HETATM    1  O   UNL     1     -14.256   8.875  73.253  1.00  0.00    -1.197 OA 
HETATM    2  C   UNL     1     -13.518   9.540  72.233  1.00  0.00    -0.440 C  
HETATM    3  H   UNL     1     -15.085   9.308  73.417  1.00  0.00     0.000 HD 
ENDROOT
BRANCH   2   4
HETATM    4  C   UNL     1     -12.175   8.838  71.967  1.00  0.00    -0.377 C  
HETATM    5  S   UNL     1     -12.503   7.093  71.487  1.00  0.00    -0.393 SA 
HETATM    6  H   UNL     1     -11.290   6.459  71.247  1.00  0.00     0.000 H  
BRANCH   4   7
HETATM    7  C   UNL     1     -11.367   9.598  70.903  1.00  0.00    -0.360 C  
HETATM    8  S   UNL     1      -9.604   9.133  70.815  1.00  0.00    -0.284 SA 
HETATM    9  H   UNL     1      -8.873   9.821  69.853  1.00  0.00     0.000 H  
ENDBRANCH   4   7
ENDBRANCH   2   4
TORSDOF 2
ENDMDL
MODEL       17
REMARK 921   NORMALIZED FREE ENERGY PREDICTED BY IDOCK:   -2.64 KCAL/MOL
REMARK 922        TOTAL FREE ENERGY PREDICTED BY IDOCK:   -2.96 KCAL/MOL
REMARK 923 INTER-LIGAND FREE ENERGY PREDICTED BY IDOCK:   -2.96 KCAL/MOL
REMARK 924 INTRA-LIGAND FREE ENERGY PREDICTED BY IDOCK:    0.00 KCAL/MOL
REMARK 927      BINDING AFFINITY PREDICTED BY RF-SCORE:    0.00 PKD
ROOT
HETATM    1  O   UNL     1     -12.507  13.748  63.149  1.00  0.00    -1.089 OA 
HETATM    2  C   UNL     1     -11.527  13.267  64.063  1.00  0.00    -0.388 C  
HETATM    3  H   UNL     1     -12.166  13.779  62.263  1.00  0.00     0.000 HD 
ENDROOT
BRANCH   2   4
HETATM    4  C   UNL     1     -12.081  13.215  65.498  1.00  0.00    -0.442 C  
HETATM    5  S   UNL     1     -11.216  11.879  66.420  1.00  0.00    -0.321 SA 
HETATM    6  H   UNL     1     -11.715  11.833  67.716  1.00  0.00     0.000 H  
BRANCH   4   7
HETATM    7  C   UNL     1     -11.942  14.585  66.182  1.00  0.00    -0.312 C  
HETATM    8  S   UNL     1     -10.688  15.681  65.433  1.00  0.00    -0.413 SA 
HETATM    9  H   UNL     1     -10.563  16.920  66.052  1.00  0.00     0.000 H  
ENDBRANCH   4   7
ENDBRANCH   2   4
TORSDOF 2
ENDMDL
MODEL       18
REMARK 921   NORMALIZED FREE ENERGY PREDICTED BY IDOCK:   -2.63 KCAL/MOL
REMARK 922        TOTAL FREE ENERGY PREDICTED BY IDOCK:   -2.95 KCAL/MOL
REMARK 923 INTER-LIGAND FREE ENERGY PREDICTED BY IDOCK:   -2.95 KCAL/MOL
REMARK 924 INTRA-LIGAND FREE ENERGY PREDICTED BY IDOCK:   -0.00 KCAL/MOL
REMARK 927      BINDING AFFINITY PREDICTED BY RF-SCORE:    0.00 PKD
ROOT
HETATM    1  O   UNL     1     -11.526  16.472  63.811  1.00  0.00    -1.615 OA 
HETATM    2  C   UNL     1     -10.855  15.794  64.868  1.00  0.00    -0.413 C  
HETATM    3  H   UNL     1     -11.470  15.984  62.999  1.00  0.00     0.000 HD 
ENDROOT
BRANCH   2   4
HETATM    4  C   UNL     1     -10.946  16.586  66.185  1.00  0.00     0.081 C  
HETATM    5  S   UNL     1      -9.938  15.730  67.463  1.00  0.00    -0.239 SA 
HETATM    6  H   UNL     1     -10.020  16.445  68.652  1.00  0.00     0.000 H  
BRANCH   4   7
HETATM    7  C   UNL     1     -10.507  18.044  65.972  1.00  0.00    -0.313 C  
HETATM    8  S   UNL     1     -10.395  19.032  67.503  1.00  0.00    -0.447 SA 
HETATM    9  H   UNL     1      -9.999  20.351  67.310  1.00  0.00     0.000 H  
ENDBRANCH   4   7
ENDBRANCH   2   4
TORSDOF 2
ENDMDL
MODEL       19
REMARK 921   NORMALIZED FREE ENERGY PREDICTED BY IDOCK:   -2.50 KCAL/MOL
REMARK 922        TOTAL FREE ENERGY PREDICTED BY IDOCK:   -2.80 KCAL/MOL
REMARK 923 INTER-LIGAND FREE ENERGY PREDICTED BY IDOCK:   -2.80 KCAL/MOL
REMARK 924 INTRA-LIGAND FREE ENERGY PREDICTED BY IDOCK:   -0.00 KCAL/MOL
REMARK 927      BINDING AFFINITY PREDICTED BY RF-SCORE:    0.00 PKD
ROOT
HETATM    1  O   UNL     1     -12.440  14.351  68.536  1.00  0.00    -0.585 OA 
HETATM    2  C   UNL     1     -11.449  14.013  67.571  1.00  0.00    -0.343 C  
HETATM    3  H   UNL     1     -12.087  14.320  69.417  1.00  0.00     0.000 HD 
ENDROOT
BRANCH   2   4
HETATM    4  C   UNL     1     -12.021  14.064  66.143  1.00  0.00    -0.420 C  
HETATM    5  S   UNL     1     -11.012  15.230  65.141  1.00  0.00    -0.428 SA 
HETATM    6  H   UNL     1     -11.528  15.276  63.851  1.00  0.00     0.000 H  
BRANCH   4   7
HETATM    7  C   UNL     1     -12.073  12.656  65.529  1.00  0.00    -0.458 C  
HETATM    8  S   UNL     1     -12.062  12.625  63.704  1.00  0.00    -0.565 SA 
HETATM    9  H   UNL     1     -12.110  11.351  63.149  1.00  0.00     0.000 H  
ENDBRANCH   4   7
ENDBRANCH   2   4
TORSDOF 2
ENDMDL
MODEL       20
REMARK 921   NORMALIZED FREE ENERGY PREDICTED BY IDOCK:   -2.47 KCAL/MOL
REMARK 922        TOTAL FREE ENERGY PREDICTED BY IDOCK:   -2.77 KCAL/MOL
REMARK 923 INTER-LIGAND FREE ENERGY PREDICTED BY IDOCK:   -2.74 KCAL/MOL
REMARK 924 INTRA-LIGAND FREE ENERGY PREDICTED BY IDOCK:   -0.03 KCAL/MOL
REMARK 927      BINDING AFFINITY PREDICTED BY RF-SCORE:    0.00 PKD
ROOT
HETATM    1  O   UNL     1     -14.263  14.019  72.663  1.00  0.00    -0.639 OA 
HETATM    2  C   UNL     1     -14.077  14.503  71.336  1.00  0.00    -0.352 C  
HETATM    3  H   UNL     1     -14.862  13.283  72.680  1.00  0.00     0.000 HD 
ENDROOT
BRANCH   2   4
HETATM    4  C   UNL     1     -13.106  15.696  71.309  1.00  0.00    -0.473 C  
HETATM    5  S   UNL     1     -12.372  15.903  72.983  1.00  0.00    -0.551 SA 
HETATM    6  H   UNL     1     -11.494  16.980  72.958  1.00  0.00     0.000 H  
BRANCH   4   7
HETATM    7  C   UNL     1     -12.038  15.501  70.220  1.00  0.00    -0.386 C  
HETATM    8  S   UNL     1     -11.914  13.796  69.579  1.00  0.00    -0.342 SA 
HETATM    9  H   UNL     1     -10.948  13.618  68.595  1.00  0.00     0.000 H  
ENDBRANCH   4   7
ENDBRANCH   2   4
TORSDOF 2
ENDMDL
MODEL       21
REMARK 921   NORMALIZED FREE ENERGY PREDICTED BY IDOCK:   -2.43 KCAL/MOL
REMARK 922        TOTAL FREE ENERGY PREDICTED BY IDOCK:   -2.72 KCAL/MOL
REMARK 923 INTER-LIGAND FREE ENERGY PREDICTED BY IDOCK:   -2.72 KCAL/MOL
REMARK 924 INTRA-LIGAND FREE ENERGY PREDICTED BY IDOCK:   -0.00 KCAL/MOL
REMARK 927      BINDING AFFINITY PREDICTED BY RF-SCORE:    0.00 PKD
ROOT
HETATM    1  O   UNL     1     -13.119  12.700  64.945  1.00  0.00    -0.850 OA 
HETATM    2  C   UNL     1     -12.499  13.910  65.366  1.00  0.00    -0.501 C  
HETATM    3  H   UNL     1     -13.432  12.766  64.050  1.00  0.00     0.000 HD 
ENDROOT
BRANCH   2   4
HETATM    4  C   UNL     1     -11.992  13.801  66.816  1.00  0.00    -0.426 C  
HETATM    5  S   UNL     1     -10.811  12.396  66.928  1.00  0.00    -0.261 SA 
HETATM    6  H   UNL     1     -10.353  12.298  68.236  1.00  0.00     0.000 H  
BRANCH   4   7
HETATM    7  C   UNL     1     -11.369  15.130  67.273  1.00  0.00    -0.303 C  
HETATM    8  S   UNL     1     -11.567  15.486  69.053  1.00  0.00    -0.377 SA 
HETATM    9  H   UNL     1     -11.004  16.688  69.466  1.00  0.00     0.000 H  
ENDBRANCH   4   7
ENDBRANCH   2   4
TORSDOF 2
ENDMDL
MODEL       22
REMARK 921   NORMALIZED FREE ENERGY PREDICTED BY IDOCK:   -2.40 KCAL/MOL
REMARK 922        TOTAL FREE ENERGY PREDICTED BY IDOCK:   -2.70 KCAL/MOL
REMARK 923 INTER-LIGAND FREE ENERGY PREDICTED BY IDOCK:   -2.66 KCAL/MOL
REMARK 924 INTRA-LIGAND FREE ENERGY PREDICTED BY IDOCK:   -0.03 KCAL/MOL
REMARK 927      BINDING AFFINITY PREDICTED BY RF-SCORE:    0.00 PKD
ROOT
HETATM    1  O   UNL     1     -12.131  11.376  67.810  1.00  0.00    -0.637 OA 
HETATM    2  C   UNL     1     -11.397  12.094  66.823  1.00  0.00    -0.342 C  
HETATM    3  H   UNL     1     -11.789  10.497  67.922  1.00  0.00     0.000 HD 
ENDROOT
BRANCH   2   4
HETATM    4  C   UNL     1     -11.950  13.519  66.643  1.00  0.00    -0.404 C  
HETATM    5  S   UNL     1     -10.623  14.726  67.045  1.00  0.00    -0.295 SA 
HETATM    6  H   UNL     1     -11.122  16.012  66.882  1.00  0.00     0.000 H  
BRANCH   4   7
HETATM    7  C   UNL     1     -12.506  13.708  65.222  1.00  0.00    -0.479 C  
HETATM    8  S   UNL     1     -12.057  12.382  64.050  1.00  0.00    -0.508 SA 
HETATM    9  H   UNL     1     -12.559  12.553  62.765  1.00  0.00     0.000 H  
ENDBRANCH   4   7
ENDBRANCH   2   4
TORSDOF 2
ENDMDL
MODEL       23
REMARK 921   NORMALIZED FREE ENERGY PREDICTED BY IDOCK:   -2.39 KCAL/MOL
REMARK 922        TOTAL FREE ENERGY PREDICTED BY IDOCK:   -2.69 KCAL/MOL
REMARK 923 INTER-LIGAND FREE ENERGY PREDICTED BY IDOCK:   -2.68 KCAL/MOL
REMARK 924 INTRA-LIGAND FREE ENERGY PREDICTED BY IDOCK:   -0.01 KCAL/MOL
REMARK 927      BINDING AFFINITY PREDICTED BY RF-SCORE:    0.00 PKD
ROOT
HETATM    1  O   UNL     1     -10.920  15.697  64.353  1.00  0.00    -0.727 OA 
HETATM    2  C   UNL     1     -10.639  14.726  65.357  1.00  0.00    -0.378 C  
HETATM    3  H   UNL     1     -10.121  16.053  63.986  1.00  0.00     0.000 HD 
ENDROOT
BRANCH   2   4
HETATM    4  C   UNL     1     -11.936  14.148  65.952  1.00  0.00    -0.409 C  
HETATM    5  S   UNL     1     -12.526  12.780  64.872  1.00  0.00    -0.457 SA 
HETATM    6  H   UNL     1     -13.696  12.258  65.410  1.00  0.00     0.000 H  
BRANCH   4   7
HETATM    7  C   UNL     1     -11.711  13.694  67.403  1.00  0.00    -0.381 C  
HETATM    8  S   UNL     1     -11.431  15.056  68.587  1.00  0.00    -0.326 SA 
HETATM    9  H   UNL     1     -11.226  14.646  69.899  1.00  0.00     0.000 H  
ENDBRANCH   4   7
ENDBRANCH   2   4
TORSDOF 2
ENDMDL
MODEL       24
REMARK 921   NORMALIZED FREE ENERGY PREDICTED BY IDOCK:   -2.39 KCAL/MOL
REMARK 922        TOTAL FREE ENERGY PREDICTED BY IDOCK:   -2.68 KCAL/MOL
REMARK 923 INTER-LIGAND FREE ENERGY PREDICTED BY IDOCK:   -2.65 KCAL/MOL
REMARK 924 INTRA-LIGAND FREE ENERGY PREDICTED BY IDOCK:   -0.03 KCAL/MOL
REMARK 927      BINDING AFFINITY PREDICTED BY RF-SCORE:    0.00 PKD
ROOT
HETATM    1  O   UNL     1     -14.219   7.515  71.015  1.00  0.00    -0.668 OA 
HETATM    2  C   UNL     1     -12.888   7.259  71.452  1.00  0.00    -0.382 C  
HETATM    3  H   UNL     1     -14.560   6.788  70.507  1.00  0.00     0.000 HD 
ENDROOT
BRANCH   2   4
HETATM    4  C   UNL     1     -12.336   8.437  72.275  1.00  0.00    -0.376 C  
HETATM    5  S   UNL     1     -10.540   8.618  71.920  1.00  0.00    -0.356 SA 
HETATM    6  H   UNL     1     -10.042   9.682  72.663  1.00  0.00     0.000 H  
BRANCH   4   7
HETATM    7  C   UNL     1     -13.126   9.722  71.980  1.00  0.00    -0.452 C  
HETATM    8  S   UNL     1     -12.350  10.820  70.744  1.00  0.00    -0.415 SA 
HETATM    9  H   UNL     1     -13.063  11.983  70.478  1.00  0.00     0.000 H  
ENDBRANCH   4   7
ENDBRANCH   2   4
TORSDOF 2
ENDMDL
MODEL       25
REMARK 921   NORMALIZED FREE ENERGY PREDICTED BY IDOCK:   -2.38 KCAL/MOL
REMARK 922        TOTAL FREE ENERGY PREDICTED BY IDOCK:   -2.67 KCAL/MOL
REMARK 923 INTER-LIGAND FREE ENERGY PREDICTED BY IDOCK:   -2.64 KCAL/MOL
REMARK 924 INTRA-LIGAND FREE ENERGY PREDICTED BY IDOCK:   -0.04 KCAL/MOL
REMARK 927      BINDING AFFINITY PREDICTED BY RF-SCORE:    0.00 PKD
ROOT
HETATM    1  O   UNL     1     -13.001  10.162  70.099  1.00  0.00    -0.580 OA 
HETATM    2  C   UNL     1     -12.895  10.420  71.496  1.00  0.00    -0.464 C  
HETATM    3  H   UNL     1     -12.947  10.966  69.596  1.00  0.00     0.000 HD 
ENDROOT
BRANCH   2   4
HETATM    4  C   UNL     1     -12.982   9.117  72.311  1.00  0.00    -0.420 C  
HETATM    5  S   UNL     1     -14.358   8.093  71.649  1.00  0.00    -0.463 SA 
HETATM    6  H   UNL     1     -14.436   6.917  72.385  1.00  0.00     0.000 H  
BRANCH   4   7
HETATM    7  C   UNL     1     -11.636   8.375  72.292  1.00  0.00    -0.383 C  
HETATM    8  S   UNL     1     -11.609   6.883  71.240  1.00  0.00    -0.330 SA 
HETATM    9  H   UNL     1     -10.392   6.212  71.223  1.00  0.00     0.000 H  
ENDBRANCH   4   7
ENDBRANCH   2   4
TORSDOF 2
ENDMDL
MODEL       26
REMARK 921   NORMALIZED FREE ENERGY PREDICTED BY IDOCK:   -2.37 KCAL/MOL
REMARK 922        TOTAL FREE ENERGY PREDICTED BY IDOCK:   -2.65 KCAL/MOL
REMARK 923 INTER-LIGAND FREE ENERGY PREDICTED BY IDOCK:   -2.65 KCAL/MOL
REMARK 924 INTRA-LIGAND FREE ENERGY PREDICTED BY IDOCK:   -0.00 KCAL/MOL
REMARK 927      BINDING AFFINITY PREDICTED BY RF-SCORE:    0.00 PKD
ROOT
HETATM    1  O   UNL     1     -14.270  13.298  72.621  1.00  0.00    -0.724 OA 
HETATM    2  C   UNL     1     -13.907  14.487  71.926  1.00  0.00    -0.457 C  
HETATM    3  H   UNL     1     -15.195  13.293  72.835  1.00  0.00     0.000 HD 
ENDROOT
BRANCH   2   4
HETATM    4  C   UNL     1     -12.407  14.495  71.580  1.00  0.00    -0.361 C  
HETATM    5  S   UNL     1     -12.131  13.417  70.116  1.00  0.00    -0.303 SA 
HETATM    6  H   UNL     1     -10.777  13.424  69.802  1.00  0.00     0.000 H  
BRANCH   4   7
HETATM    7  C   UNL     1     -11.912  15.932  71.352  1.00  0.00    -0.457 C  
HETATM    8  S   UNL     1     -10.893  16.153  69.854  1.00  0.00    -0.349 SA 
HETATM    9  H   UNL     1     -10.444  17.453  69.648  1.00  0.00     0.000 H  
ENDBRANCH   4   7
ENDBRANCH   2   4
TORSDOF 2
ENDMDL
MODEL       27
REMARK 921   NORMALIZED FREE ENERGY PREDICTED BY IDOCK:   -2.24 KCAL/MOL
REMARK 922        TOTAL FREE ENERGY PREDICTED BY IDOCK:   -2.51 KCAL/MOL
REMARK 923 INTER-LIGAND FREE ENERGY PREDICTED BY IDOCK:   -2.49 KCAL/MOL
REMARK 924 INTRA-LIGAND FREE ENERGY PREDICTED BY IDOCK:   -0.02 KCAL/MOL
REMARK 927      BINDING AFFINITY PREDICTED BY RF-SCORE:    0.00 PKD
ROOT
HETATM    1  O   UNL     1     -13.728  15.569  70.608  1.00  0.00    -0.851 OA 
HETATM    2  C   UNL     1     -12.806  14.603  71.103  1.00  0.00    -0.343 C  
HETATM    3  H   UNL     1     -14.410  15.750  71.243  1.00  0.00     0.000 HD 
ENDROOT
BRANCH   2   4
HETATM    4  C   UNL     1     -11.700  14.309  70.073  1.00  0.00    -0.298 C  
HETATM    5  S   UNL     1     -11.794  12.537  69.590  1.00  0.00    -0.270 SA 
HETATM    6  H   UNL     1     -10.796  12.272  68.661  1.00  0.00     0.000 H  
BRANCH   4   7
HETATM    7  C   UNL     1     -11.818  15.254  68.866  1.00  0.00    -0.320 C  
HETATM    8  S   UNL     1     -11.758  14.420  67.243  1.00  0.00    -0.408 SA 
HETATM    9  H   UNL     1     -11.865  15.274  66.152  1.00  0.00     0.000 H  
ENDBRANCH   4   7
ENDBRANCH   2   4
TORSDOF 2
ENDMDL
MODEL       28
REMARK 921   NORMALIZED FREE ENERGY PREDICTED BY IDOCK:   -2.22 KCAL/MOL
REMARK 922        TOTAL FREE ENERGY PREDICTED BY IDOCK:   -2.49 KCAL/MOL
REMARK 923 INTER-LIGAND FREE ENERGY PREDICTED BY IDOCK:   -2.45 KCAL/MOL
REMARK 924 INTRA-LIGAND FREE ENERGY PREDICTED BY IDOCK:   -0.04 KCAL/MOL
REMARK 927      BINDING AFFINITY PREDICTED BY RF-SCORE:    0.00 PKD
ROOT
HETATM    1  O   UNL     1      -9.234  12.202  63.206  1.00  0.00    -0.653 OA 
HETATM    2  C   UNL     1     -10.214  11.193  63.432  1.00  0.00    -0.380 C  
HETATM    3  H   UNL     1      -8.738  12.029  62.415  1.00  0.00     0.000 HD 
ENDROOT
BRANCH   2   4
HETATM    4  C   UNL     1     -11.019  11.474  64.713  1.00  0.00    -0.273 C  
HETATM    5  S   UNL     1      -9.901  12.233  65.961  1.00  0.00    -0.244 SA 
HETATM    6  H   UNL     1     -10.628  12.487  67.118  1.00  0.00     0.000 H  
BRANCH   4   7
HETATM    7  C   UNL     1     -12.239  12.356  64.405  1.00  0.00    -0.437 C  
HETATM    8  S   UNL     1     -11.976  14.140  64.690  1.00  0.00    -0.466 SA 
HETATM    9  H   UNL     1     -13.079  14.938  64.412  1.00  0.00     0.000 H  
ENDBRANCH   4   7
ENDBRANCH   2   4
TORSDOF 2
ENDMDL
MODEL       29
REMARK 921   NORMALIZED FREE ENERGY PREDICTED BY IDOCK:   -2.20 KCAL/MOL
REMARK 922        TOTAL FREE ENERGY PREDICTED BY IDOCK:   -2.47 KCAL/MOL
REMARK 923 INTER-LIGAND FREE ENERGY PREDICTED BY IDOCK:   -2.47 KCAL/MOL
REMARK 924 INTRA-LIGAND FREE ENERGY PREDICTED BY IDOCK:   -0.01 KCAL/MOL
REMARK 927      BINDING AFFINITY PREDICTED BY RF-SCORE:    0.00 PKD
ROOT
HETATM    1  O   UNL     1     -12.490  10.647  68.814  1.00  0.00    -0.795 OA 
HETATM    2  C   UNL     1     -11.422  10.908  69.720  1.00  0.00    -0.313 C  
HETATM    3  H   UNL     1     -12.415  11.179  68.032  1.00  0.00     0.000 HD 
ENDROOT
BRANCH   2   4
HETATM    4  C   UNL     1     -11.544  10.045  70.989  1.00  0.00    -0.393 C  
HETATM    5  S   UNL     1     -13.172  10.377  71.779  1.00  0.00    -0.387 SA 
HETATM    6  H   UNL     1     -13.281   9.598  72.924  1.00  0.00     0.000 H  
BRANCH   4   7
HETATM    7  C   UNL     1     -11.346   8.558  70.654  1.00  0.00    -0.241 C  
HETATM    8  S   UNL     1     -12.168   7.407  71.808  1.00  0.00    -0.337 SA 
HETATM    9  H   UNL     1     -11.989   6.062  71.506  1.00  0.00     0.000 H  
ENDBRANCH   4   7
ENDBRANCH   2   4
TORSDOF 2
ENDMDL
MODEL       30
REMARK 921   NORMALIZED FREE ENERGY PREDICTED BY IDOCK:   -2.19 KCAL/MOL
REMARK 922        TOTAL FREE ENERGY PREDICTED BY IDOCK:   -2.46 KCAL/MOL
REMARK 923 INTER-LIGAND FREE ENERGY PREDICTED BY IDOCK:   -2.46 KCAL/MOL
REMARK 924 INTRA-LIGAND FREE ENERGY PREDICTED BY IDOCK:   -0.00 KCAL/MOL
REMARK 927      BINDING AFFINITY PREDICTED BY RF-SCORE:    0.00 PKD
ROOT
HETATM    1  O   UNL     1     -12.042  11.660  67.689  1.00  0.00    -0.615 OA 
HETATM    2  C   UNL     1     -11.814  12.790  66.853  1.00  0.00    -0.371 C  
HETATM    3  H   UNL     1     -11.985  10.850  67.197  1.00  0.00     0.000 HD 
ENDROOT
BRANCH   2   4
HETATM    4  C   UNL     1     -11.905  14.103  67.652  1.00  0.00    -0.392 C  
HETATM    5  S   UNL     1     -11.843  13.710  69.448  1.00  0.00    -0.348 SA 
HETATM    6  H   UNL     1     -11.925  14.895  70.169  1.00  0.00     0.000 H  
BRANCH   4   7
HETATM    7  C   UNL     1     -10.793  15.075  67.225  1.00  0.00    -0.310 C  
HETATM    8  S   UNL     1     -10.661  15.329  65.422  1.00  0.00    -0.423 SA 
HETATM    9  H   UNL     1      -9.655  16.208  65.036  1.00  0.00     0.000 H  
ENDBRANCH   4   7
ENDBRANCH   2   4
TORSDOF 2
ENDMDL
MODEL       31
REMARK 921   NORMALIZED FREE ENERGY PREDICTED BY IDOCK:   -2.19 KCAL/MOL
REMARK 922        TOTAL FREE ENERGY PREDICTED BY IDOCK:   -2.46 KCAL/MOL
REMARK 923 INTER-LIGAND FREE ENERGY PREDICTED BY IDOCK:   -2.45 KCAL/MOL
REMARK 924 INTRA-LIGAND FREE ENERGY PREDICTED BY IDOCK:   -0.02 KCAL/MOL
REMARK 927      BINDING AFFINITY PREDICTED BY RF-SCORE:    0.00 PKD
ROOT
HETATM    1  O   UNL     1     -13.357   9.857  70.652  1.00  0.00    -0.617 OA 
HETATM    2  C   UNL     1     -13.107  11.017  71.439  1.00  0.00    -0.341 C  
HETATM    3  H   UNL     1     -13.997   9.291  71.066  1.00  0.00     0.000 HD 
ENDROOT
BRANCH   2   4
HETATM    4  C   UNL     1     -12.068  11.933  70.768  1.00  0.00    -0.226 C  
HETATM    5  S   UNL     1     -11.881  11.429  69.009  1.00  0.00    -0.331 SA 
HETATM    6  H   UNL     1     -10.944  12.257  68.403  1.00  0.00     0.000 H  
BRANCH   4   7
HETATM    7  C   UNL     1     -12.472  13.409  70.916  1.00  0.00    -0.359 C  
HETATM    8  S   UNL     1     -13.769  13.718  72.163  1.00  0.00    -0.572 SA 
HETATM    9  H   UNL     1     -14.135  15.053  72.296  1.00  0.00     0.000 H  
ENDBRANCH   4   7
ENDBRANCH   2   4
TORSDOF 2
ENDMDL
MODEL       32
REMARK 921   NORMALIZED FREE ENERGY PREDICTED BY IDOCK:   -2.19 KCAL/MOL
REMARK 922        TOTAL FREE ENERGY PREDICTED BY IDOCK:   -2.45 KCAL/MOL
REMARK 923 INTER-LIGAND FREE ENERGY PREDICTED BY IDOCK:   -2.44 KCAL/MOL
REMARK 924 INTRA-LIGAND FREE ENERGY PREDICTED BY IDOCK:   -0.02 KCAL/MOL
REMARK 927      BINDING AFFINITY PREDICTED BY RF-SCORE:    0.00 PKD
ROOT
HETATM    1  O   UNL     1     -11.995   6.586  69.611  1.00  0.00    -0.618 OA 
HETATM    2  C   UNL     1     -12.020   6.924  70.994  1.00  0.00    -0.374 C  
HETATM    3  H   UNL     1     -12.253   5.683  69.473  1.00  0.00     0.000 HD 
ENDROOT
BRANCH   2   4
HETATM    4  C   UNL     1     -11.602   8.389  71.218  1.00  0.00    -0.283 C  
HETATM    5  S   UNL     1     -13.053   9.332  71.840  1.00  0.00    -0.451 SA 
HETATM    6  H   UNL     1     -12.675  10.654  72.042  1.00  0.00     0.000 H  
BRANCH   4   7
HETATM    7  C   UNL     1     -10.398   8.469  72.170  1.00  0.00    -0.339 C  
HETATM    8  S   UNL     1     -10.299   7.108  73.382  1.00  0.00    -0.373 SA 
HETATM    9  H   UNL     1      -9.211   7.181  74.244  1.00  0.00     0.000 H  
ENDBRANCH   4   7
ENDBRANCH   2   4
TORSDOF 2
ENDMDL
MODEL       33
REMARK 921   NORMALIZED FREE ENERGY PREDICTED BY IDOCK:   -2.18 KCAL/MOL
REMARK 922        TOTAL FREE ENERGY PREDICTED BY IDOCK:   -2.45 KCAL/MOL
REMARK 923 INTER-LIGAND FREE ENERGY PREDICTED BY IDOCK:   -2.42 KCAL/MOL
REMARK 924 INTRA-LIGAND FREE ENERGY PREDICTED BY IDOCK:   -0.02 KCAL/MOL
REMARK 927      BINDING AFFINITY PREDICTED BY RF-SCORE:    0.00 PKD
ROOT
HETATM    1  O   UNL     1      -9.965  13.172  63.861  1.00  0.00    -0.760 OA 
HETATM    2  C   UNL     1     -10.700  13.952  64.798  1.00  0.00    -0.423 C  
HETATM    3  H   UNL     1     -10.542  12.758  63.230  1.00  0.00     0.000 HD 
ENDROOT
BRANCH   2   4
HETATM    4  C   UNL     1      -9.765  14.623  65.820  1.00  0.00    -0.297 C  
HETATM    5  S   UNL     1     -10.248  16.390  65.995  1.00  0.00    -0.361 SA 
HETATM    6  H   UNL     1      -9.404  16.995  66.919  1.00  0.00     0.000 H  
BRANCH   4   7
HETATM    7  C   UNL     1      -9.798  13.870  67.160  1.00  0.00    -0.241 C  
HETATM    8  S   UNL     1     -11.450  13.266  67.649  1.00  0.00    -0.343 SA 
HETATM    9  H   UNL     1     -11.479  12.586  68.861  1.00  0.00     0.000 H  
ENDBRANCH   4   7
ENDBRANCH   2   4
TORSDOF 2
ENDMDL
MODEL       34
REMARK 921   NORMALIZED FREE ENERGY PREDICTED BY IDOCK:   -2.17 KCAL/MOL
REMARK 922        TOTAL FREE ENERGY PREDICTED BY IDOCK:   -2.44 KCAL/MOL
REMARK 923 INTER-LIGAND FREE ENERGY PREDICTED BY IDOCK:   -2.44 KCAL/MOL
REMARK 924 INTRA-LIGAND FREE ENERGY PREDICTED BY IDOCK:   -0.00 KCAL/MOL
REMARK 927      BINDING AFFINITY PREDICTED BY RF-SCORE:    0.00 PKD
ROOT
HETATM    1  O   UNL     1      -9.339  16.646  65.690  1.00  0.00    -0.502 OA 
HETATM    2  C   UNL     1     -10.396  15.723  65.444  1.00  0.00    -0.389 C  
HETATM    3  H   UNL     1      -9.106  17.120  64.902  1.00  0.00     0.000 HD 
ENDROOT
BRANCH   2   4
HETATM    4  C   UNL     1     -10.775  14.954  66.722  1.00  0.00    -0.312 C  
HETATM    5  S   UNL     1     -10.881  16.144  68.120  1.00  0.00    -0.335 SA 
HETATM    6  H   UNL     1     -11.224  15.451  69.275  1.00  0.00     0.000 H  
BRANCH   4   7
HETATM    7  C   UNL     1     -12.082  14.171  66.517  1.00  0.00    -0.454 C  
HETATM    8  S   UNL     1     -11.888  12.600  65.607  1.00  0.00    -0.446 SA 
HETATM    9  H   UNL     1     -13.070  11.893  65.421  1.00  0.00     0.000 H  
ENDBRANCH   4   7
ENDBRANCH   2   4
TORSDOF 2
ENDMDL
MODEL       35
REMARK 921   NORMALIZED FREE ENERGY PREDICTED BY IDOCK:   -2.16 KCAL/MOL
REMARK 922        TOTAL FREE ENERGY PREDICTED BY IDOCK:   -2.42 KCAL/MOL
REMARK 923 INTER-LIGAND FREE ENERGY PREDICTED BY IDOCK:   -2.41 KCAL/MOL
REMARK 924 INTRA-LIGAND FREE ENERGY PREDICTED BY IDOCK:   -0.02 KCAL/MOL
REMARK 927      BINDING AFFINITY PREDICTED BY RF-SCORE:    0.00 PKD
ROOT
HETATM    1  O   UNL     1     -10.528  20.021  69.853  1.00  0.00    -0.611 OA 
HETATM    2  C   UNL     1     -10.096  19.787  68.516  1.00  0.00    -0.445 C  
HETATM    3  H   UNL     1     -10.632  20.950  70.023  1.00  0.00     0.000 HD 
ENDROOT
BRANCH   2   4
HETATM    4  C   UNL     1      -9.927  18.282  68.241  1.00  0.00    -0.364 C  
HETATM    5  S   UNL     1     -10.244  17.966  66.457  1.00  0.00    -0.375 SA 
HETATM    6  H   UNL     1     -10.091  16.607  66.208  1.00  0.00     0.000 H  
BRANCH   4   7
HETATM    7  C   UNL     1      -8.535  17.803  68.683  1.00  0.00    -0.269 C  
HETATM    8  S   UNL     1      -7.265  19.114  68.737  1.00  0.00    -0.342 SA 
HETATM    9  H   UNL     1      -6.006  18.682  69.137  1.00  0.00     0.000 H  
ENDBRANCH   4   7
ENDBRANCH   2   4
TORSDOF 2
ENDMDL
MODEL       36
REMARK 921   NORMALIZED FREE ENERGY PREDICTED BY IDOCK:   -2.14 KCAL/MOL
REMARK 922        TOTAL FREE ENERGY PREDICTED BY IDOCK:   -2.41 KCAL/MOL
REMARK 923 INTER-LIGAND FREE ENERGY PREDICTED BY IDOCK:   -2.41 KCAL/MOL
REMARK 924 INTRA-LIGAND FREE ENERGY PREDICTED BY IDOCK:   -0.00 KCAL/MOL
REMARK 927      BINDING AFFINITY PREDICTED BY RF-SCORE:    0.00 PKD
ROOT
HETATM    1  O   UNL     1      -9.362  12.143  63.021  1.00  0.00    -0.600 OA 
HETATM    2  C   UNL     1     -10.308  12.141  64.085  1.00  0.00    -0.354 C  
HETATM    3  H   UNL     1      -9.272  11.279  62.638  1.00  0.00     0.000 HD 
ENDROOT
BRANCH   2   4
HETATM    4  C   UNL     1     -10.454  13.542  64.705  1.00  0.00    -0.413 C  
HETATM    5  S   UNL     1     -12.091  14.233  64.230  1.00  0.00    -0.373 SA 
HETATM    6  H   UNL     1     -12.223  15.498  64.789  1.00  0.00     0.000 H  
BRANCH   4   7
HETATM    7  C   UNL     1     -10.261  13.484  66.229  1.00  0.00    -0.299 C  
HETATM    8  S   UNL     1     -11.559  12.559  67.121  1.00  0.00    -0.366 SA 
HETATM    9  H   UNL     1     -11.385  12.506  68.499  1.00  0.00     0.000 H  
ENDBRANCH   4   7
ENDBRANCH   2   4
TORSDOF 2
ENDMDL
MODEL       37
REMARK 921   NORMALIZED FREE ENERGY PREDICTED BY IDOCK:   -2.14 KCAL/MOL
REMARK 922        TOTAL FREE ENERGY PREDICTED BY IDOCK:   -2.41 KCAL/MOL
REMARK 923 INTER-LIGAND FREE ENERGY PREDICTED BY IDOCK:   -2.39 KCAL/MOL
REMARK 924 INTRA-LIGAND FREE ENERGY PREDICTED BY IDOCK:   -0.02 KCAL/MOL
REMARK 927      BINDING AFFINITY PREDICTED BY RF-SCORE:    0.00 PKD
ROOT
HETATM    1  O   UNL     1      -8.338  19.246  68.583  1.00  0.00    -0.357 OA 
HETATM    2  C   UNL     1      -9.719  19.583  68.668  1.00  0.00    -0.433 C  
HETATM    3  H   UNL     1      -7.825  19.737  69.213  1.00  0.00     0.000 HD 
ENDROOT
BRANCH   2   4
HETATM    4  C   UNL     1     -10.551  18.786  67.646  1.00  0.00    -0.419 C  
HETATM    5  S   UNL     1     -10.287  19.508  65.975  1.00  0.00    -0.488 SA 
HETATM    6  H   UNL     1     -11.038  18.789  65.053  1.00  0.00     0.000 H  
BRANCH   4   7
HETATM    7  C   UNL     1     -10.194  17.292  67.704  1.00  0.00    -0.333 C  
HETATM    8  S   UNL     1     -10.185  16.453  66.082  1.00  0.00    -0.360 SA 
HETATM    9  H   UNL     1      -9.863  15.102  66.134  1.00  0.00     0.000 H  
ENDBRANCH   4   7
ENDBRANCH   2   4
TORSDOF 2
ENDMDL
MODEL       38
REMARK 921   NORMALIZED FREE ENERGY PREDICTED BY IDOCK:   -2.14 KCAL/MOL
REMARK 922        TOTAL FREE ENERGY PREDICTED BY IDOCK:   -2.40 KCAL/MOL
REMARK 923 INTER-LIGAND FREE ENERGY PREDICTED BY IDOCK:   -2.37 KCAL/MOL
REMARK 924 INTRA-LIGAND FREE ENERGY PREDICTED BY IDOCK:   -0.03 KCAL/MOL
REMARK 927      BINDING AFFINITY PREDICTED BY RF-SCORE:    0.00 PKD
ROOT
HETATM    1  O   UNL     1     -11.092  17.110  64.819  1.00  0.00    -0.909 OA 
HETATM    2  C   UNL     1     -10.301  16.044  65.335  1.00  0.00    -0.359 C  
HETATM    3  H   UNL     1     -10.732  17.444  64.006  1.00  0.00     0.000 HD 
ENDROOT
BRANCH   2   4
HETATM    4  C   UNL     1     -10.886  15.503  66.652  1.00  0.00    -0.285 C  
HETATM    5  S   UNL     1     -10.257  13.796  66.923  1.00  0.00    -0.264 SA 
HETATM    6  H   UNL     1     -10.785  13.308  68.112  1.00  0.00     0.000 H  
BRANCH   4   7
HETATM    7  C   UNL     1     -10.551  16.444  67.821  1.00  0.00    -0.321 C  
HETATM    8  S   UNL     1      -8.891  17.199  67.733  1.00  0.00    -0.228 SA 
HETATM    9  H   UNL     1      -8.588  18.050  68.790  1.00  0.00     0.000 H  
ENDBRANCH   4   7
ENDBRANCH   2   4
TORSDOF 2
ENDMDL
MODEL       39
REMARK 921   NORMALIZED FREE ENERGY PREDICTED BY IDOCK:   -2.12 KCAL/MOL
REMARK 922        TOTAL FREE ENERGY PREDICTED BY IDOCK:   -2.38 KCAL/MOL
REMARK 923 INTER-LIGAND FREE ENERGY PREDICTED BY IDOCK:   -2.38 KCAL/MOL
REMARK 924 INTRA-LIGAND FREE ENERGY PREDICTED BY IDOCK:   -0.00 KCAL/MOL
REMARK 927      BINDING AFFINITY PREDICTED BY RF-SCORE:    0.00 PKD
ROOT
HETATM    1  O   UNL     1      -8.929  14.814  66.258  1.00  0.00    -0.444 OA 
HETATM    2  C   UNL     1     -10.056  14.818  65.388  1.00  0.00    -0.374 C  
HETATM    3  H   UNL     1      -8.302  15.484  66.014  1.00  0.00     0.000 HD 
ENDROOT
BRANCH   2   4
HETATM    4  C   UNL     1     -11.073  13.733  65.785  1.00  0.00    -0.289 C  
HETATM    5  S   UNL     1     -11.869  14.218  67.371  1.00  0.00    -0.397 SA 
HETATM    6  H   UNL     1     -12.787  13.238  67.729  1.00  0.00     0.000 H  
BRANCH   4   7
HETATM    7  C   UNL     1     -12.095  13.509  64.659  1.00  0.00    -0.409 C  
HETATM    8  S   UNL     1     -11.629  12.213  63.460  1.00  0.00    -0.466 SA 
HETATM    9  H   UNL     1     -12.553  12.011  62.441  1.00  0.00     0.000 H  
ENDBRANCH   4   7
ENDBRANCH   2   4
TORSDOF 2
ENDMDL
MODEL       40
REMARK 921   NORMALIZED FREE ENERGY PREDICTED BY IDOCK:   -2.12 KCAL/MOL
REMARK 922        TOTAL FREE ENERGY PREDICTED BY IDOCK:   -2.38 KCAL/MOL
REMARK 923 INTER-LIGAND FREE ENERGY PREDICTED BY IDOCK:   -2.37 KCAL/MOL
REMARK 924 INTRA-LIGAND FREE ENERGY PREDICTED BY IDOCK:   -0.01 KCAL/MOL
REMARK 927      BINDING AFFINITY PREDICTED BY RF-SCORE:    0.00 PKD
ROOT
HETATM    1  O   UNL     1     -12.077  10.500  68.761  1.00  0.00    -0.739 OA 
HETATM    2  C   UNL     1     -11.426  10.498  70.028  1.00  0.00    -0.316 C  
HETATM    3  H   UNL     1     -11.644  11.086  68.153  1.00  0.00     0.000 HD 
ENDROOT
BRANCH   2   4
HETATM    4  C   UNL     1     -12.128   9.547  71.015  1.00  0.00    -0.318 C  
HETATM    5  S   UNL     1     -10.853   8.722  72.052  1.00  0.00    -0.325 SA 
HETATM    6  H   UNL     1     -11.486   7.865  72.943  1.00  0.00     0.000 H  
BRANCH   4   7
HETATM    7  C   UNL     1     -13.166  10.309  71.855  1.00  0.00    -0.445 C  
HETATM    8  S   UNL     1     -13.053  12.127  71.732  1.00  0.00    -0.230 SA 
HETATM    9  H   UNL     1     -13.991  12.815  72.492  1.00  0.00     0.000 H  
ENDBRANCH   4   7
ENDBRANCH   2   4
TORSDOF 2
ENDMDL
MODEL       41
REMARK 921   NORMALIZED FREE ENERGY PREDICTED BY IDOCK:   -2.12 KCAL/MOL
REMARK 922        TOTAL FREE ENERGY PREDICTED BY IDOCK:   -2.38 KCAL/MOL
REMARK 923 INTER-LIGAND FREE ENERGY PREDICTED BY IDOCK:   -2.37 KCAL/MOL
REMARK 924 INTRA-LIGAND FREE ENERGY PREDICTED BY IDOCK:   -0.01 KCAL/MOL
REMARK 927      BINDING AFFINITY PREDICTED BY RF-SCORE:    0.00 PKD
ROOT
HETATM    1  O   UNL     1     -13.079  13.595  65.192  1.00  0.00    -0.750 OA 
HETATM    2  C   UNL     1     -12.108  14.331  65.929  1.00  0.00    -0.404 C  
HETATM    3  H   UNL     1     -13.715  14.173  64.787  1.00  0.00     0.000 HD 
ENDROOT
BRANCH   2   4
HETATM    4  C   UNL     1     -11.078  13.393  66.584  1.00  0.00    -0.295 C  
HETATM    5  S   UNL     1      -9.692  14.405  67.246  1.00  0.00    -0.238 SA 
HETATM    6  H   UNL     1      -8.762  13.559  67.837  1.00  0.00     0.000 H  
BRANCH   4   7
HETATM    7  C   UNL     1     -11.743  12.530  67.668  1.00  0.00    -0.361 C  
HETATM    8  S   UNL     1     -11.138  10.809  67.741  1.00  0.00    -0.318 SA 
HETATM    9  H   UNL     1     -11.740  10.027  68.721  1.00  0.00     0.000 H  
ENDBRANCH   4   7
ENDBRANCH   2   4
TORSDOF 2
ENDMDL
MODEL       42
REMARK 921   NORMALIZED FREE ENERGY PREDICTED BY IDOCK:   -2.11 KCAL/MOL
REMARK 922        TOTAL FREE ENERGY PREDICTED BY IDOCK:   -2.37 KCAL/MOL
REMARK 923 INTER-LIGAND FREE ENERGY PREDICTED BY IDOCK:   -2.37 KCAL/MOL
REMARK 924 INTRA-LIGAND FREE ENERGY PREDICTED BY IDOCK:   -0.00 KCAL/MOL
REMARK 927      BINDING AFFINITY PREDICTED BY RF-SCORE:    0.00 PKD
ROOT
HETATM    1  O   UNL     1     -13.765   8.786  73.152  1.00  0.00    -0.983 OA 
HETATM    2  C   UNL     1     -12.577   9.019  72.402  1.00  0.00    -0.333 C  
HETATM    3  H   UNL     1     -14.271   9.583  73.252  1.00  0.00     0.000 HD 
ENDROOT
BRANCH   2   4
HETATM    4  C   UNL     1     -11.757   7.726  72.241  1.00  0.00    -0.340 C  
HETATM    5  S   UNL     1     -10.958   7.734  70.585  1.00  0.00    -0.250 SA 
HETATM    6  H   UNL     1     -10.217   6.567  70.440  1.00  0.00     0.000 H  
BRANCH   4   7
HETATM    7  C   UNL     1     -10.739   7.585  73.384  1.00  0.00    -0.332 C  
HETATM    8  S   UNL     1      -9.381   6.412  73.047  1.00  0.00    -0.134 SA 
HETATM    9  H   UNL     1      -8.460   6.283  74.081  1.00  0.00     0.000 H  
ENDBRANCH   4   7
ENDBRANCH   2   4
TORSDOF 2
ENDMDL
MODEL       43
REMARK 921   NORMALIZED FREE ENERGY PREDICTED BY IDOCK:   -2.10 KCAL/MOL
REMARK 922        TOTAL FREE ENERGY PREDICTED BY IDOCK:   -2.36 KCAL/MOL
REMARK 923 INTER-LIGAND FREE ENERGY PREDICTED BY IDOCK:   -2.34 KCAL/MOL
REMARK 924 INTRA-LIGAND FREE ENERGY PREDICTED BY IDOCK:   -0.01 KCAL/MOL
REMARK 927      BINDING AFFINITY PREDICTED BY RF-SCORE:    0.00 PKD
ROOT
HETATM    1  O   UNL     1     -11.577   4.585  65.060  1.00  0.00    -1.101 OA 
HETATM    2  C   UNL     1     -10.202   4.370  65.361  1.00  0.00    -0.228 C  
HETATM    3  H   UNL     1     -11.860   4.042  64.334  1.00  0.00     0.000 HD 
ENDROOT
BRANCH   2   4
HETATM    4  C   UNL     1      -9.744   5.250  66.537  1.00  0.00    -0.167 C  
HETATM    5  S   UNL     1      -8.263   6.209  66.019  1.00  0.00    -0.133 SA 
HETATM    6  H   UNL     1      -7.850   7.004  67.081  1.00  0.00     0.000 H  
BRANCH   4   7
HETATM    7  C   UNL     1     -10.891   6.153  67.017  1.00  0.00    -0.356 C  
HETATM    8  S   UNL     1     -11.010   6.327  68.831  1.00  0.00    -0.359 SA 
HETATM    9  H   UNL     1     -12.048   7.144  69.265  1.00  0.00     0.000 H  
ENDBRANCH   4   7
ENDBRANCH   2   4
TORSDOF 2
ENDMDL
MODEL       44
REMARK 921   NORMALIZED FREE ENERGY PREDICTED BY IDOCK:   -2.09 KCAL/MOL
REMARK 922        TOTAL FREE ENERGY PREDICTED BY IDOCK:   -2.35 KCAL/MOL
REMARK 923 INTER-LIGAND FREE ENERGY PREDICTED BY IDOCK:   -2.35 KCAL/MOL
REMARK 924 INTRA-LIGAND FREE ENERGY PREDICTED BY IDOCK:   -0.00 KCAL/MOL
REMARK 927      BINDING AFFINITY PREDICTED BY RF-SCORE:    0.00 PKD
ROOT
HETATM    1  O   UNL     1     -12.013  11.161  67.777  1.00  0.00    -0.630 OA 
HETATM    2  C   UNL     1     -11.843  12.573  67.847  1.00  0.00    -0.323 C  
HETATM    3  H   UNL     1     -12.412  10.823  68.569  1.00  0.00     0.000 HD 
ENDROOT
BRANCH   2   4
HETATM    4  C   UNL     1     -11.197  13.121  66.561  1.00  0.00    -0.310 C  
HETATM    5  S   UNL     1     -12.510  13.857  65.505  1.00  0.00    -0.512 SA 
HETATM    6  H   UNL     1     -11.926  14.352  64.345  1.00  0.00     0.000 H  
BRANCH   4   7
HETATM    7  C   UNL     1     -10.084  14.126  66.900  1.00  0.00    -0.258 C  
HETATM    8  S   UNL     1     -10.682  15.741  67.509  1.00  0.00    -0.314 SA 
HETATM    9  H   UNL     1      -9.676  16.650  67.815  1.00  0.00     0.000 H  
ENDBRANCH   4   7
ENDBRANCH   2   4
TORSDOF 2
ENDMDL
MODEL       45
REMARK 921   NORMALIZED FREE ENERGY PREDICTED BY IDOCK:   -2.07 KCAL/MOL
REMARK 922        TOTAL FREE ENERGY PREDICTED BY IDOCK:   -2.33 KCAL/MOL
REMARK 923 INTER-LIGAND FREE ENERGY PREDICTED BY IDOCK:   -2.30 KCAL/MOL
REMARK 924 INTRA-LIGAND FREE ENERGY PREDICTED BY IDOCK:   -0.03 KCAL/MOL
REMARK 927      BINDING AFFINITY PREDICTED BY RF-SCORE:    0.00 PKD
ROOT
HETATM    1  O   UNL     1      -9.999  13.306  63.718  1.00  0.00    -0.699 OA 
HETATM    2  C   UNL     1     -10.965  12.262  63.643  1.00  0.00    -0.471 C  
HETATM    3  H   UNL     1     -10.396  14.154  63.560  1.00  0.00     0.000 HD 
ENDROOT
BRANCH   2   4
HETATM    4  C   UNL     1     -10.321  10.887  63.900  1.00  0.00    -0.329 C  
HETATM    5  S   UNL     1      -9.256  10.453  62.464  1.00  0.00    -0.298 SA 
HETATM    6  H   UNL     1      -8.675   9.213  62.696  1.00  0.00     0.000 H  
BRANCH   4   7
HETATM    7  C   UNL     1      -9.545  10.892  65.226  1.00  0.00    -0.229 C  
HETATM    8  S   UNL     1     -10.552  11.306  66.691  1.00  0.00    -0.269 SA 
HETATM    9  H   UNL     1      -9.850  11.311  67.891  1.00  0.00     0.000 H  
ENDBRANCH   4   7
ENDBRANCH   2   4
TORSDOF 2
ENDMDL
MODEL       46
REMARK 921   NORMALIZED FREE ENERGY PREDICTED BY IDOCK:   -2.07 KCAL/MOL
REMARK 922        TOTAL FREE ENERGY PREDICTED BY IDOCK:   -2.32 KCAL/MOL
REMARK 923 INTER-LIGAND FREE ENERGY PREDICTED BY IDOCK:   -2.29 KCAL/MOL
REMARK 924 INTRA-LIGAND FREE ENERGY PREDICTED BY IDOCK:   -0.03 KCAL/MOL
REMARK 927      BINDING AFFINITY PREDICTED BY RF-SCORE:    0.00 PKD
ROOT
HETATM    1  O   UNL     1      -8.685  20.464  66.032  1.00  0.00    -0.573 OA 
HETATM    2  C   UNL     1      -7.695  20.549  67.053  1.00  0.00    -0.297 C  
HETATM    3  H   UNL     1      -8.607  21.182  65.416  1.00  0.00     0.000 HD 
ENDROOT
BRANCH   2   4
HETATM    4  C   UNL     1      -7.823  19.385  68.051  1.00  0.00    -0.302 C  
HETATM    5  S   UNL     1      -6.557  19.593  69.369  1.00  0.00    -0.351 SA 
HETATM    6  H   UNL     1      -6.672  18.542  70.271  1.00  0.00     0.000 H  
BRANCH   4   7
HETATM    7  C   UNL     1      -9.251  19.308  68.615  1.00  0.00    -0.385 C  
HETATM    8  S   UNL     1     -10.030  17.662  68.481  1.00  0.00    -0.386 SA 
HETATM    9  H   UNL     1     -11.322  17.593  68.990  1.00  0.00     0.000 H  
ENDBRANCH   4   7
ENDBRANCH   2   4
TORSDOF 2
ENDMDL
MODEL       47
REMARK 921   NORMALIZED FREE ENERGY PREDICTED BY IDOCK:   -2.06 KCAL/MOL
REMARK 922        TOTAL FREE ENERGY PREDICTED BY IDOCK:   -2.32 KCAL/MOL
REMARK 923 INTER-LIGAND FREE ENERGY PREDICTED BY IDOCK:   -2.29 KCAL/MOL
REMARK 924 INTRA-LIGAND FREE ENERGY PREDICTED BY IDOCK:   -0.03 KCAL/MOL
REMARK 927      BINDING AFFINITY PREDICTED BY RF-SCORE:    0.00 PKD
ROOT
HETATM    1  O   UNL     1     -10.446  18.118  69.171  1.00  0.00    -0.445 OA 
HETATM    2  C   UNL     1      -9.936  19.417  68.884  1.00  0.00    -0.445 C  
HETATM    3  H   UNL     1     -11.286  18.167  69.611  1.00  0.00     0.000 HD 
ENDROOT
BRANCH   2   4
HETATM    4  C   UNL     1      -8.575  19.337  68.170  1.00  0.00    -0.327 C  
HETATM    5  S   UNL     1      -8.020  17.584  68.146  1.00  0.00    -0.259 SA 
HETATM    6  H   UNL     1      -6.791  17.512  67.501  1.00  0.00     0.000 H  
BRANCH   4   7
HETATM    7  C   UNL     1      -8.667  19.943  66.761  1.00  0.00    -0.343 C  
HETATM    8  S   UNL     1     -10.299  19.764  65.964  1.00  0.00    -0.470 SA 
HETATM    9  H   UNL     1     -10.382  20.311  64.689  1.00  0.00     0.000 H  
ENDBRANCH   4   7
ENDBRANCH   2   4
TORSDOF 2
ENDMDL
MODEL       48
REMARK 921   NORMALIZED FREE ENERGY PREDICTED BY IDOCK:   -2.05 KCAL/MOL
REMARK 922        TOTAL FREE ENERGY PREDICTED BY IDOCK:   -2.31 KCAL/MOL
REMARK 923 INTER-LIGAND FREE ENERGY PREDICTED BY IDOCK:   -2.28 KCAL/MOL
REMARK 924 INTRA-LIGAND FREE ENERGY PREDICTED BY IDOCK:   -0.03 KCAL/MOL
REMARK 927      BINDING AFFINITY PREDICTED BY RF-SCORE:    0.00 PKD
ROOT
HETATM    1  O   UNL     1     -13.983   8.128  71.010  1.00  0.00    -0.594 OA 
HETATM    2  C   UNL     1     -12.855   7.504  71.616  1.00  0.00    -0.358 C  
HETATM    3  H   UNL     1     -14.583   7.484  70.654  1.00  0.00     0.000 HD 
ENDROOT
BRANCH   2   4
HETATM    4  C   UNL     1     -11.882   8.548  72.193  1.00  0.00    -0.379 C  
HETATM    5  S   UNL     1     -10.528   7.672  73.076  1.00  0.00    -0.369 SA 
HETATM    6  H   UNL     1      -9.649   8.614  73.596  1.00  0.00     0.000 H  
BRANCH   4   7
HETATM    7  C   UNL     1     -11.358   9.471  71.082  1.00  0.00    -0.370 C  
HETATM    8  S   UNL     1     -10.211   8.669  69.909  1.00  0.00    -0.209 SA 
HETATM    9  H   UNL     1      -9.736   9.504  68.905  1.00  0.00     0.000 H  
ENDBRANCH   4   7
ENDBRANCH   2   4
TORSDOF 2
ENDMDL
MODEL       49
REMARK 921   NORMALIZED FREE ENERGY PREDICTED BY IDOCK:   -2.05 KCAL/MOL
REMARK 922        TOTAL FREE ENERGY PREDICTED BY IDOCK:   -2.30 KCAL/MOL
REMARK 923 INTER-LIGAND FREE ENERGY PREDICTED BY IDOCK:   -2.30 KCAL/MOL
REMARK 924 INTRA-LIGAND FREE ENERGY PREDICTED BY IDOCK:   -0.00 KCAL/MOL
REMARK 927      BINDING AFFINITY PREDICTED BY RF-SCORE:    0.00 PKD
ROOT
HETATM    1  O   UNL     1      -9.399  14.315  65.718  1.00  0.00    -0.520 OA 
HETATM    2  C   UNL     1      -9.874  13.655  66.888  1.00  0.00    -0.261 C  
HETATM    3  H   UNL     1      -8.519  14.034  65.498  1.00  0.00     0.000 HD 
ENDROOT
BRANCH   2   4
HETATM    4  C   UNL     1     -11.301  14.111  67.244  1.00  0.00    -0.332 C  
HETATM    5  S   UNL     1     -12.389  13.853  65.784  1.00  0.00    -0.492 SA 
HETATM    6  H   UNL     1     -13.676  14.264  66.107  1.00  0.00     0.000 H  
BRANCH   4   7
HETATM    7  C   UNL     1     -11.809  13.373  68.493  1.00  0.00    -0.366 C  
HETATM    8  S   UNL     1     -12.229  14.462  69.897  1.00  0.00    -0.328 SA 
HETATM    9  H   UNL     1     -12.688  13.795  71.027  1.00  0.00     0.000 H  
ENDBRANCH   4   7
ENDBRANCH   2   4
TORSDOF 2
ENDMDL
MODEL       50
REMARK 921   NORMALIZED FREE ENERGY PREDICTED BY IDOCK:   -2.04 KCAL/MOL
REMARK 922        TOTAL FREE ENERGY PREDICTED BY IDOCK:   -2.29 KCAL/MOL
REMARK 923 INTER-LIGAND FREE ENERGY PREDICTED BY IDOCK:   -2.29 KCAL/MOL
REMARK 924 INTRA-LIGAND FREE ENERGY PREDICTED BY IDOCK:   -0.01 KCAL/MOL
REMARK 927      BINDING AFFINITY PREDICTED BY RF-SCORE:    0.00 PKD
ROOT
HETATM    1  O   UNL     1     -11.596   7.600  73.321  1.00  0.00    -0.643 OA 
HETATM    2  C   UNL     1     -12.078   8.597  72.426  1.00  0.00    -0.345 C  
HETATM    3  H   UNL     1     -11.857   7.785  74.215  1.00  0.00     0.000 HD 
ENDROOT
BRANCH   2   4
HETATM    4  C   UNL     1     -11.656   8.297  70.976  1.00  0.00    -0.275 C  
HETATM    5  S   UNL     1      -9.927   8.874  70.730  1.00  0.00    -0.248 SA 
HETATM    6  H   UNL     1      -9.546   8.602  69.421  1.00  0.00     0.000 H  
BRANCH   4   7
HETATM    7  C   UNL     1     -11.826   6.802  70.661  1.00  0.00    -0.387 C  
HETATM    8  S   UNL     1     -11.019   6.257  69.117  1.00  0.00    -0.390 SA 
HETATM    9  H   UNL     1     -11.174   4.905  68.831  1.00  0.00     0.000 H  
ENDBRANCH   4   7
ENDBRANCH   2   4
TORSDOF 2
ENDMDL
MODEL       51
REMARK 921   NORMALIZED FREE ENERGY PREDICTED BY IDOCK:   -2.03 KCAL/MOL
REMARK 922        TOTAL FREE ENERGY PREDICTED BY IDOCK:   -2.28 KCAL/MOL
REMARK 923 INTER-LIGAND FREE ENERGY PREDICTED BY IDOCK:   -2.28 KCAL/MOL
REMARK 924 INTRA-LIGAND FREE ENERGY PREDICTED BY IDOCK:   -0.00 KCAL/MOL
REMARK 927      BINDING AFFINITY PREDICTED BY RF-SCORE:    0.00 PKD
ROOT
HETATM    1  O   UNL     1     -10.315  10.654  65.211  1.00  0.00    -0.290 OA 
HETATM    2  C   UNL     1     -10.990  11.607  66.028  1.00  0.00    -0.286 C  
HETATM    3  H   UNL     1     -10.071   9.884  65.710  1.00  0.00     0.000 HD 
ENDROOT
BRANCH   2   4
HETATM    4  C   UNL     1     -11.386  12.854  65.218  1.00  0.00    -0.300 C  
HETATM    5  S   UNL     1     -12.118  12.316  63.619  1.00  0.00    -0.572 SA 
HETATM    6  H   UNL     1     -12.476  13.442  62.888  1.00  0.00     0.000 H  
BRANCH   4   7
HETATM    7  C   UNL     1     -12.339  13.746  66.029  1.00  0.00    -0.457 C  
HETATM    8  S   UNL     1     -11.535  14.695  67.366  1.00  0.00    -0.377 SA 
HETATM    9  H   UNL     1     -12.397  15.501  68.100  1.00  0.00     0.000 H  
ENDBRANCH   4   7
ENDBRANCH   2   4
TORSDOF 2
ENDMDL
MODEL       52
REMARK 921   NORMALIZED FREE ENERGY PREDICTED BY IDOCK:   -2.03 KCAL/MOL
REMARK 922        TOTAL FREE ENERGY PREDICTED BY IDOCK:   -2.28 KCAL/MOL
REMARK 923 INTER-LIGAND FREE ENERGY PREDICTED BY IDOCK:   -2.24 KCAL/MOL
REMARK 924 INTRA-LIGAND FREE ENERGY PREDICTED BY IDOCK:   -0.04 KCAL/MOL
REMARK 927      BINDING AFFINITY PREDICTED BY RF-SCORE:    0.00 PKD
ROOT
HETATM    1  O   UNL     1      -9.510  14.718  65.555  1.00  0.00    -0.493 OA 
HETATM    2  C   UNL     1     -10.731  14.521  64.849  1.00  0.00    -0.429 C  
HETATM    3  H   UNL     1      -9.161  15.587  65.403  1.00  0.00     0.000 HD 
ENDROOT
BRANCH   2   4
HETATM    4  C   UNL     1     -11.297  13.111  65.095  1.00  0.00    -0.296 C  
HETATM    5  S   UNL     1     -12.264  12.594  63.618  1.00  0.00    -0.536 SA 
HETATM    6  H   UNL     1     -12.774  11.320  63.840  1.00  0.00     0.000 H  
BRANCH   4   7
HETATM    7  C   UNL     1     -10.167  12.125  65.431  1.00  0.00    -0.270 C  
HETATM    8  S   UNL     1     -10.292  11.366  67.088  1.00  0.00    -0.221 SA 
HETATM    9  H   UNL     1      -9.270  10.475  67.392  1.00  0.00     0.000 H  
ENDBRANCH   4   7
ENDBRANCH   2   4
TORSDOF 2
ENDMDL
MODEL       53
REMARK 921   NORMALIZED FREE ENERGY PREDICTED BY IDOCK:   -2.01 KCAL/MOL
REMARK 922        TOTAL FREE ENERGY PREDICTED BY IDOCK:   -2.26 KCAL/MOL
REMARK 923 INTER-LIGAND FREE ENERGY PREDICTED BY IDOCK:   -2.25 KCAL/MOL
REMARK 924 INTRA-LIGAND FREE ENERGY PREDICTED BY IDOCK:   -0.00 KCAL/MOL
REMARK 927      BINDING AFFINITY PREDICTED BY RF-SCORE:    0.00 PKD
ROOT
HETATM    1  O   UNL     1     -11.203  12.851  69.823  1.00  0.00    -0.481 OA 
HETATM    2  C   UNL     1     -11.233  12.384  68.478  1.00  0.00    -0.279 C  
HETATM    3  H   UNL     1     -10.827  12.202  70.404  1.00  0.00     0.000 HD 
ENDROOT
BRANCH   2   4
HETATM    4  C   UNL     1     -11.841  13.438  67.535  1.00  0.00    -0.366 C  
HETATM    5  S   UNL     1     -11.324  15.110  68.101  1.00  0.00    -0.343 SA 
HETATM    6  H   UNL     1     -11.873  16.061  67.249  1.00  0.00     0.000 H  
BRANCH   4   7
HETATM    7  C   UNL     1     -11.436  13.159  66.078  1.00  0.00    -0.335 C  
HETATM    8  S   UNL     1     -12.129  14.332  64.862  1.00  0.00    -0.450 SA 
HETATM    9  H   UNL     1     -11.763  14.080  63.545  1.00  0.00     0.000 H  
ENDBRANCH   4   7
ENDBRANCH   2   4
TORSDOF 2
ENDMDL
MODEL       54
REMARK 921   NORMALIZED FREE ENERGY PREDICTED BY IDOCK:   -2.01 KCAL/MOL
REMARK 922        TOTAL FREE ENERGY PREDICTED BY IDOCK:   -2.25 KCAL/MOL
REMARK 923 INTER-LIGAND FREE ENERGY PREDICTED BY IDOCK:   -2.25 KCAL/MOL
REMARK 924 INTRA-LIGAND FREE ENERGY PREDICTED BY IDOCK:   -0.00 KCAL/MOL
REMARK 927      BINDING AFFINITY PREDICTED BY RF-SCORE:    0.00 PKD
ROOT
HETATM    1  O   UNL     1     -12.892  15.444  70.037  1.00  0.00    -0.629 OA 
HETATM    2  C   UNL     1     -11.562  15.910  70.246  1.00  0.00    -0.354 C  
HETATM    3  H   UNL     1     -13.397  15.474  70.840  1.00  0.00     0.000 HD 
ENDROOT
BRANCH   2   4
HETATM    4  C   UNL     1     -10.743  15.862  68.944  1.00  0.00    -0.254 C  
HETATM    5  S   UNL     1     -11.616  14.788  67.733  1.00  0.00    -0.345 SA 
HETATM    6  H   UNL     1     -10.876  14.745  66.557  1.00  0.00     0.000 H  
BRANCH   4   7
HETATM    7  C   UNL     1     -10.500  17.280  68.404  1.00  0.00    -0.381 C  
HETATM    8  S   UNL     1      -9.537  17.345  66.854  1.00  0.00    -0.288 SA 
HETATM    9  H   UNL     1      -9.317  18.628  66.365  1.00  0.00     0.000 H  
ENDBRANCH   4   7
ENDBRANCH   2   4
TORSDOF 2
ENDMDL
MODEL       55
REMARK 921   NORMALIZED FREE ENERGY PREDICTED BY IDOCK:   -2.00 KCAL/MOL
REMARK 922        TOTAL FREE ENERGY PREDICTED BY IDOCK:   -2.25 KCAL/MOL
REMARK 923 INTER-LIGAND FREE ENERGY PREDICTED BY IDOCK:   -2.22 KCAL/MOL
REMARK 924 INTRA-LIGAND FREE ENERGY PREDICTED BY IDOCK:   -0.03 KCAL/MOL
REMARK 927      BINDING AFFINITY PREDICTED BY RF-SCORE:    0.00 PKD
ROOT
HETATM    1  O   UNL     1      -9.474  17.306  66.042  1.00  0.00    -0.462 OA 
HETATM    2  C   UNL     1      -9.435  15.882  66.052  1.00  0.00    -0.354 C  
HETATM    3  H   UNL     1      -8.600  17.674  65.994  1.00  0.00     0.000 HD 
ENDROOT
BRANCH   2   4
HETATM    4  C   UNL     1     -10.852  15.286  66.129  1.00  0.00    -0.320 C  
HETATM    5  S   UNL     1     -11.093  14.144  64.708  1.00  0.00    -0.382 SA 
HETATM    6  H   UNL     1     -12.372  13.605  64.778  1.00  0.00     0.000 H  
BRANCH   4   7
HETATM    7  C   UNL     1     -11.076  14.594  67.483  1.00  0.00    -0.313 C  
HETATM    8  S   UNL     1     -11.587  15.715  68.831  1.00  0.00    -0.386 SA 
HETATM    9  H   UNL     1     -11.789  15.089  70.056  1.00  0.00     0.000 H  
ENDBRANCH   4   7
ENDBRANCH   2   4
TORSDOF 2
ENDMDL
MODEL       56
REMARK 921   NORMALIZED FREE ENERGY PREDICTED BY IDOCK:   -2.00 KCAL/MOL
REMARK 922        TOTAL FREE ENERGY PREDICTED BY IDOCK:   -2.24 KCAL/MOL
REMARK 923 INTER-LIGAND FREE ENERGY PREDICTED BY IDOCK:   -2.24 KCAL/MOL
REMARK 924 INTRA-LIGAND FREE ENERGY PREDICTED BY IDOCK:   -0.01 KCAL/MOL
REMARK 927      BINDING AFFINITY PREDICTED BY RF-SCORE:    0.00 PKD
ROOT
HETATM    1  O   UNL     1     -11.586   6.458  68.767  1.00  0.00    -0.550 OA 
HETATM    2  C   UNL     1     -10.964   6.063  69.985  1.00  0.00    -0.380 C  
HETATM    3  H   UNL     1     -11.139   6.086  68.016  1.00  0.00     0.000 HD 
ENDROOT
BRANCH   2   4
HETATM    4  C   UNL     1     -11.687   6.665  71.203  1.00  0.00    -0.346 C  
HETATM    5  S   UNL     1     -10.743   6.242  72.723  1.00  0.00    -0.255 SA 
HETATM    6  H   UNL     1     -11.397   6.787  73.822  1.00  0.00     0.000 H  
BRANCH   4   7
HETATM    7  C   UNL     1     -11.871   8.181  71.028  1.00  0.00    -0.260 C  
HETATM    8  S   UNL     1     -13.103   8.929  72.149  1.00  0.00    -0.447 SA 
HETATM    9  H   UNL     1     -13.269  10.300  71.991  1.00  0.00     0.000 H  
ENDBRANCH   4   7
ENDBRANCH   2   4
TORSDOF 2
ENDMDL
MODEL       57
REMARK 921   NORMALIZED FREE ENERGY PREDICTED BY IDOCK:   -1.99 KCAL/MOL
REMARK 922        TOTAL FREE ENERGY PREDICTED BY IDOCK:   -2.24 KCAL/MOL
REMARK 923 INTER-LIGAND FREE ENERGY PREDICTED BY IDOCK:   -2.22 KCAL/MOL
REMARK 924 INTRA-LIGAND FREE ENERGY PREDICTED BY IDOCK:   -0.02 KCAL/MOL
REMARK 927      BINDING AFFINITY PREDICTED BY RF-SCORE:    0.00 PKD
ROOT
HETATM    1  O   UNL     1     -10.638  10.352  70.560  1.00  0.00    -0.424 OA 
HETATM    2  C   UNL     1     -10.664   9.293  71.512  1.00  0.00    -0.355 C  
HETATM    3  H   UNL     1      -9.753  10.527  70.264  1.00  0.00     0.000 HD 
ENDROOT
BRANCH   2   4
HETATM    4  C   UNL     1     -12.098   9.010  71.992  1.00  0.00    -0.370 C  
HETATM    5  S   UNL     1     -13.142  10.484  71.647  1.00  0.00    -0.431 SA 
HETATM    6  H   UNL     1     -14.437  10.228  72.081  1.00  0.00     0.000 H  
BRANCH   4   7
HETATM    7  C   UNL     1     -12.648   7.734  71.333  1.00  0.00    -0.317 C  
HETATM    8  S   UNL     1     -11.411   6.414  71.089  1.00  0.00    -0.320 SA 
HETATM    9  H   UNL     1     -11.908   5.261  70.493  1.00  0.00     0.000 H  
ENDBRANCH   4   7
ENDBRANCH   2   4
TORSDOF 2
ENDMDL
MODEL       58
REMARK 921   NORMALIZED FREE ENERGY PREDICTED BY IDOCK:   -1.99 KCAL/MOL
REMARK 922        TOTAL FREE ENERGY PREDICTED BY IDOCK:   -2.24 KCAL/MOL
REMARK 923 INTER-LIGAND FREE ENERGY PREDICTED BY IDOCK:   -2.26 KCAL/MOL
REMARK 924 INTRA-LIGAND FREE ENERGY PREDICTED BY IDOCK:    0.02 KCAL/MOL
REMARK 927      BINDING AFFINITY PREDICTED BY RF-SCORE:    0.00 PKD
ROOT
HETATM    1  O   UNL     1     -12.639  14.124  66.676  1.00  0.00    -0.549 OA 
HETATM    2  C   UNL     1     -11.786  14.146  67.817  1.00  0.00    -0.379 C  
HETATM    3  H   UNL     1     -12.641  13.268  66.265  1.00  0.00     0.000 HD 
ENDROOT
BRANCH   2   4
HETATM    4  C   UNL     1     -11.784  15.534  68.484  1.00  0.00    -0.337 C  
HETATM    5  S   UNL     1     -12.058  15.324  70.290  1.00  0.00    -0.376 SA 
HETATM    6  H   UNL     1     -12.055  16.576  70.892  1.00  0.00     0.000 H  
BRANCH   4   7
HETATM    7  C   UNL     1     -10.479  16.283  68.171  1.00  0.00    -0.289 C  
HETATM    8  S   UNL     1     -10.136  16.496  66.390  1.00  0.00    -0.326 SA 
HETATM    9  H   UNL     1      -8.956  17.173  66.107  1.00  0.00     0.000 H  
ENDBRANCH   4   7
ENDBRANCH   2   4
TORSDOF 2
ENDMDL
MODEL       59
REMARK 921   NORMALIZED FREE ENERGY PREDICTED BY IDOCK:   -1.98 KCAL/MOL
REMARK 922        TOTAL FREE ENERGY PREDICTED BY IDOCK:   -2.23 KCAL/MOL
REMARK 923 INTER-LIGAND FREE ENERGY PREDICTED BY IDOCK:   -2.22 KCAL/MOL
REMARK 924 INTRA-LIGAND FREE ENERGY PREDICTED BY IDOCK:   -0.00 KCAL/MOL
REMARK 927      BINDING AFFINITY PREDICTED BY RF-SCORE:    0.00 PKD
ROOT
HETATM    1  O   UNL     1      -9.873  16.625  65.792  1.00  0.00    -0.482 OA 
HETATM    2  C   UNL     1      -9.527  17.350  66.968  1.00  0.00    -0.266 C  
HETATM    3  H   UNL     1     -10.201  15.760  66.004  1.00  0.00     0.000 HD 
ENDROOT
BRANCH   2   4
HETATM    4  C   UNL     1      -8.996  18.753  66.623  1.00  0.00    -0.315 C  
HETATM    5  S   UNL     1     -10.408  19.809  66.099  1.00  0.00    -0.510 SA 
HETATM    6  H   UNL     1      -9.928  21.076  65.788  1.00  0.00     0.000 H  
BRANCH   4   7
HETATM    7  C   UNL     1      -8.228  19.349  67.814  1.00  0.00    -0.289 C  
HETATM    8  S   UNL     1      -6.992  20.614  67.360  1.00  0.00    -0.362 SA 
HETATM    9  H   UNL     1      -6.296  21.152  68.436  1.00  0.00     0.000 H  
ENDBRANCH   4   7
ENDBRANCH   2   4
TORSDOF 2
ENDMDL
MODEL       60
REMARK 921   NORMALIZED FREE ENERGY PREDICTED BY IDOCK:   -1.97 KCAL/MOL
REMARK 922        TOTAL FREE ENERGY PREDICTED BY IDOCK:   -2.21 KCAL/MOL
REMARK 923 INTER-LIGAND FREE ENERGY PREDICTED BY IDOCK:   -2.19 KCAL/MOL
REMARK 924 INTRA-LIGAND FREE ENERGY PREDICTED BY IDOCK:   -0.02 KCAL/MOL
REMARK 927      BINDING AFFINITY PREDICTED BY RF-SCORE:    0.00 PKD
ROOT
HETATM    1  O   UNL     1     -10.040  16.603  65.397  1.00  0.00    -0.578 OA 
HETATM    2  C   UNL     1      -8.842  16.645  66.165  1.00  0.00    -0.288 C  
HETATM    3  H   UNL     1      -9.872  16.301  64.513  1.00  0.00     0.000 HD 
ENDROOT
BRANCH   2   4
HETATM    4  C   UNL     1      -9.116  17.134  67.599  1.00  0.00    -0.227 C  
HETATM    5  S   UNL     1      -7.572  17.863  68.282  1.00  0.00    -0.275 SA 
HETATM    6  H   UNL     1      -7.819  18.305  69.576  1.00  0.00     0.000 H  
BRANCH   4   7
HETATM    7  C   UNL     1     -10.292  18.124  67.619  1.00  0.00    -0.397 C  
HETATM    8  S   UNL     1      -9.803  19.876  67.769  1.00  0.00    -0.424 SA 
HETATM    9  H   UNL     1     -10.866  20.772  67.787  1.00  0.00     0.000 H  
ENDBRANCH   4   7
ENDBRANCH   2   4
TORSDOF 2
ENDMDL
MODEL       61
REMARK 921   NORMALIZED FREE ENERGY PREDICTED BY IDOCK:   -1.96 KCAL/MOL
REMARK 922        TOTAL FREE ENERGY PREDICTED BY IDOCK:   -2.21 KCAL/MOL
REMARK 923 INTER-LIGAND FREE ENERGY PREDICTED BY IDOCK:   -2.17 KCAL/MOL
REMARK 924 INTRA-LIGAND FREE ENERGY PREDICTED BY IDOCK:   -0.04 KCAL/MOL
REMARK 927      BINDING AFFINITY PREDICTED BY RF-SCORE:    0.00 PKD
ROOT
HETATM    1  O   UNL     1      -9.216  12.166  65.566  1.00  0.00    -0.431 OA 
HETATM    2  C   UNL     1     -10.480  11.613  65.214  1.00  0.00    -0.273 C  
HETATM    3  H   UNL     1      -8.530  11.853  64.988  1.00  0.00     0.000 HD 
ENDROOT
BRANCH   2   4
HETATM    4  C   UNL     1     -11.592  12.121  66.150  1.00  0.00    -0.354 C  
HETATM    5  S   UNL     1     -11.302  11.446  67.836  1.00  0.00    -0.304 SA 
HETATM    6  H   UNL     1     -12.305  11.905  68.681  1.00  0.00     0.000 H  
BRANCH   4   7
HETATM    7  C   UNL     1     -11.653  13.656  66.134  1.00  0.00    -0.347 C  
HETATM    8  S   UNL     1     -11.984  14.384  64.493  1.00  0.00    -0.461 SA 
HETATM    9  H   UNL     1     -12.039  15.774  64.479  1.00  0.00     0.000 H  
ENDBRANCH   4   7
ENDBRANCH   2   4
TORSDOF 2
ENDMDL
MODEL       62
REMARK 921   NORMALIZED FREE ENERGY PREDICTED BY IDOCK:   -1.96 KCAL/MOL
REMARK 922        TOTAL FREE ENERGY PREDICTED BY IDOCK:   -2.20 KCAL/MOL
REMARK 923 INTER-LIGAND FREE ENERGY PREDICTED BY IDOCK:   -2.33 KCAL/MOL
REMARK 924 INTRA-LIGAND FREE ENERGY PREDICTED BY IDOCK:    0.13 KCAL/MOL
REMARK 927      BINDING AFFINITY PREDICTED BY RF-SCORE:    0.00 PKD
ROOT
HETATM    1  O   UNL     1     -12.527  14.244  67.264  1.00  0.00    -0.589 OA 
HETATM    2  C   UNL     1     -11.446  13.317  67.232  1.00  0.00    -0.338 C  
HETATM    3  H   UNL     1     -12.839  14.378  68.151  1.00  0.00     0.000 HD 
ENDROOT
BRANCH   2   4
HETATM    4  C   UNL     1     -10.939  13.101  65.795  1.00  0.00    -0.277 C  
HETATM    5  S   UNL     1     -12.368  12.668  64.721  1.00  0.00    -0.471 SA 
HETATM    6  H   UNL     1     -11.911  12.473  63.424  1.00  0.00     0.000 H  
BRANCH   4   7
HETATM    7  C   UNL     1     -10.183  14.342  65.294  1.00  0.00    -0.382 C  
HETATM    8  S   UNL     1     -11.250  15.644  64.588  1.00  0.00    -0.274 SA 
HETATM    9  H   UNL     1     -10.566  16.766  64.134  1.00  0.00     0.000 H  
ENDBRANCH   4   7
ENDBRANCH   2   4
TORSDOF 2
ENDMDL
MODEL       63
REMARK 921   NORMALIZED FREE ENERGY PREDICTED BY IDOCK:   -1.96 KCAL/MOL
REMARK 922        TOTAL FREE ENERGY PREDICTED BY IDOCK:   -2.20 KCAL/MOL
REMARK 923 INTER-LIGAND FREE ENERGY PREDICTED BY IDOCK:   -2.16 KCAL/MOL
REMARK 924 INTRA-LIGAND FREE ENERGY PREDICTED BY IDOCK:   -0.03 KCAL/MOL
REMARK 927      BINDING AFFINITY PREDICTED BY RF-SCORE:    0.00 PKD
ROOT
HETATM    1  O   UNL     1     -10.983  16.802  67.876  1.00  0.00    -0.337 OA 
HETATM    2  C   UNL     1     -11.531  15.634  68.478  1.00  0.00    -0.375 C  
HETATM    3  H   UNL     1     -11.190  17.579  68.381  1.00  0.00     0.000 HD 
ENDROOT
BRANCH   2   4
HETATM    4  C   UNL     1     -11.196  14.375  67.658  1.00  0.00    -0.313 C  
HETATM    5  S   UNL     1     -11.446  12.893  68.719  1.00  0.00    -0.324 SA 
HETATM    6  H   UNL     1     -11.143  11.756  67.979  1.00  0.00     0.000 H  
BRANCH   4   7
HETATM    7  C   UNL     1     -12.036  14.325  66.372  1.00  0.00    -0.419 C  
HETATM    8  S   UNL     1     -11.070  14.474  64.830  1.00  0.00    -0.396 SA 
HETATM    9  H   UNL     1     -11.831  14.430  63.667  1.00  0.00     0.000 H  
ENDBRANCH   4   7
ENDBRANCH   2   4
TORSDOF 2
ENDMDL
MODEL       64
REMARK 921   NORMALIZED FREE ENERGY PREDICTED BY IDOCK:   -1.95 KCAL/MOL
REMARK 922        TOTAL FREE ENERGY PREDICTED BY IDOCK:   -2.20 KCAL/MOL
REMARK 923 INTER-LIGAND FREE ENERGY PREDICTED BY IDOCK:   -2.19 KCAL/MOL
REMARK 924 INTRA-LIGAND FREE ENERGY PREDICTED BY IDOCK:   -0.01 KCAL/MOL
REMARK 927      BINDING AFFINITY PREDICTED BY RF-SCORE:    0.00 PKD
ROOT
HETATM    1  O   UNL     1     -12.444  14.789  67.891  1.00  0.00    -0.556 OA 
HETATM    2  C   UNL     1     -11.191  14.753  68.567  1.00  0.00    -0.276 C  
HETATM    3  H   UNL     1     -13.047  14.149  68.250  1.00  0.00     0.000 HD 
ENDROOT
BRANCH   2   4
HETATM    4  C   UNL     1     -10.213  15.790  67.986  1.00  0.00    -0.229 C  
HETATM    5  S   UNL     1     -10.380  15.801  66.154  1.00  0.00    -0.337 SA 
HETATM    6  H   UNL     1      -9.498  16.738  65.629  1.00  0.00     0.000 H  
BRANCH   4   7
HETATM    7  C   UNL     1     -10.460  17.175  68.606  1.00  0.00    -0.366 C  
HETATM    8  S   UNL     1     -10.426  18.556  67.412  1.00  0.00    -0.422 SA 
HETATM    9  H   UNL     1     -10.649  19.809  67.974  1.00  0.00     0.000 H  
ENDBRANCH   4   7
ENDBRANCH   2   4
TORSDOF 2
ENDMDL
MODEL       65
REMARK 921   NORMALIZED FREE ENERGY PREDICTED BY IDOCK:   -1.94 KCAL/MOL
REMARK 922        TOTAL FREE ENERGY PREDICTED BY IDOCK:   -2.18 KCAL/MOL
REMARK 923 INTER-LIGAND FREE ENERGY PREDICTED BY IDOCK:   -2.18 KCAL/MOL
REMARK 924 INTRA-LIGAND FREE ENERGY PREDICTED BY IDOCK:   -0.00 KCAL/MOL
REMARK 927      BINDING AFFINITY PREDICTED BY RF-SCORE:    0.00 PKD
ROOT
HETATM    1  O   UNL     1     -12.379  14.402  67.759  1.00  0.00    -0.620 OA 
HETATM    2  C   UNL     1     -11.486  15.300  68.411  1.00  0.00    -0.345 C  
HETATM    3  H   UNL     1     -12.785  13.809  68.379  1.00  0.00     0.000 HD 
ENDROOT
BRANCH   2   4
HETATM    4  C   UNL     1     -10.829  16.262  67.404  1.00  0.00    -0.242 C  
HETATM    5  S   UNL     1     -10.255  17.760  68.304  1.00  0.00    -0.394 SA 
HETATM    6  H   UNL     1      -9.662  18.628  67.395  1.00  0.00     0.000 H  
BRANCH   4   7
HETATM    7  C   UNL     1      -9.690  15.559  66.648  1.00  0.00    -0.247 C  
HETATM    8  S   UNL     1      -8.192  16.577  66.420  1.00  0.00    -0.330 SA 
HETATM    9  H   UNL     1      -7.162  15.942  65.735  1.00  0.00     0.000 H  
ENDBRANCH   4   7
ENDBRANCH   2   4
TORSDOF 2
ENDMDL
MODEL       66
REMARK 921   NORMALIZED FREE ENERGY PREDICTED BY IDOCK:   -1.94 KCAL/MOL
REMARK 922        TOTAL FREE ENERGY PREDICTED BY IDOCK:   -2.18 KCAL/MOL
REMARK 923 INTER-LIGAND FREE ENERGY PREDICTED BY IDOCK:   -2.16 KCAL/MOL
REMARK 924 INTRA-LIGAND FREE ENERGY PREDICTED BY IDOCK:   -0.02 KCAL/MOL
REMARK 927      BINDING AFFINITY PREDICTED BY RF-SCORE:    0.00 PKD
ROOT
HETATM    1  O   UNL     1     -11.663   5.948  73.000  1.00  0.00    -0.508 OA 
HETATM    2  C   UNL     1     -10.835   7.106  73.014  1.00  0.00    -0.328 C  
HETATM    3  H   UNL     1     -11.959   5.726  73.875  1.00  0.00     0.000 HD 
ENDROOT
BRANCH   2   4
HETATM    4  C   UNL     1     -10.356   7.466  71.596  1.00  0.00    -0.196 C  
HETATM    5  S   UNL     1     -11.366   6.533  70.374  1.00  0.00    -0.405 SA 
HETATM    6  H   UNL     1     -10.934   6.858  69.094  1.00  0.00     0.000 H  
BRANCH   4   7
HETATM    7  C   UNL     1     -10.420   8.986  71.372  1.00  0.00    -0.324 C  
HETATM    8  S   UNL     1     -12.111   9.665  71.264  1.00  0.00    -0.397 SA 
HETATM    9  H   UNL     1     -12.169  11.039  71.061  1.00  0.00     0.000 H  
ENDBRANCH   4   7
ENDBRANCH   2   4
TORSDOF 2
ENDMDL
MODEL       67
REMARK 921   NORMALIZED FREE ENERGY PREDICTED BY IDOCK:   -1.92 KCAL/MOL
REMARK 922        TOTAL FREE ENERGY PREDICTED BY IDOCK:   -2.16 KCAL/MOL
REMARK 923 INTER-LIGAND FREE ENERGY PREDICTED BY IDOCK:   -2.13 KCAL/MOL
REMARK 924 INTRA-LIGAND FREE ENERGY PREDICTED BY IDOCK:   -0.03 KCAL/MOL
REMARK 927      BINDING AFFINITY PREDICTED BY RF-SCORE:    0.00 PKD
ROOT
HETATM    1  O   UNL     1     -13.095  10.024  70.421  1.00  0.00    -0.593 OA 
HETATM    2  C   UNL     1     -12.002  10.926  70.561  1.00  0.00    -0.371 C  
HETATM    3  H   UNL     1     -13.168   9.452  71.176  1.00  0.00     0.000 HD 
ENDROOT
BRANCH   2   4
HETATM    4  C   UNL     1     -11.885  11.852  69.337  1.00  0.00    -0.327 C  
HETATM    5  S   UNL     1     -11.992  13.599  69.902  1.00  0.00    -0.340 SA 
HETATM    6  H   UNL     1     -11.886  14.435  68.797  1.00  0.00     0.000 H  
BRANCH   4   7
HETATM    7  C   UNL     1     -10.588  11.565  68.562  1.00  0.00    -0.210 C  
HETATM    8  S   UNL     1     -10.649  10.072  67.513  1.00  0.00    -0.285 SA 
HETATM    9  H   UNL     1      -9.476   9.811  66.813  1.00  0.00     0.000 H  
ENDBRANCH   4   7
ENDBRANCH   2   4
TORSDOF 2
ENDMDL
MODEL       68
REMARK 921   NORMALIZED FREE ENERGY PREDICTED BY IDOCK:   -1.92 KCAL/MOL
REMARK 922        TOTAL FREE ENERGY PREDICTED BY IDOCK:   -2.15 KCAL/MOL
REMARK 923 INTER-LIGAND FREE ENERGY PREDICTED BY IDOCK:   -2.14 KCAL/MOL
REMARK 924 INTRA-LIGAND FREE ENERGY PREDICTED BY IDOCK:   -0.01 KCAL/MOL
REMARK 927      BINDING AFFINITY PREDICTED BY RF-SCORE:    0.00 PKD
ROOT
HETATM    1  O   UNL     1     -12.395  12.317  70.673  1.00  0.00    -0.354 OA 
HETATM    2  C   UNL     1     -11.762  13.269  69.825  1.00  0.00    -0.284 C  
HETATM    3  H   UNL     1     -12.064  11.441  70.515  1.00  0.00     0.000 HD 
ENDROOT
BRANCH   2   4
HETATM    4  C   UNL     1     -12.299  14.689  70.081  1.00  0.00    -0.336 C  
HETATM    5  S   UNL     1     -11.825  15.203  71.782  1.00  0.00    -0.429 SA 
HETATM    6  H   UNL     1     -12.309  16.485  72.013  1.00  0.00     0.000 H  
BRANCH   4   7
HETATM    7  C   UNL     1     -11.786  15.664  69.009  1.00  0.00    -0.395 C  
HETATM    8  S   UNL     1     -11.284  14.870  67.443  1.00  0.00    -0.344 SA 
HETATM    9  H   UNL     1     -10.820  15.752  66.473  1.00  0.00     0.000 H  
ENDBRANCH   4   7
ENDBRANCH   2   4
TORSDOF 2
ENDMDL
MODEL       69
REMARK 921   NORMALIZED FREE ENERGY PREDICTED BY IDOCK:   -1.91 KCAL/MOL
REMARK 922        TOTAL FREE ENERGY PREDICTED BY IDOCK:   -2.14 KCAL/MOL
REMARK 923 INTER-LIGAND FREE ENERGY PREDICTED BY IDOCK:   -2.13 KCAL/MOL
REMARK 924 INTRA-LIGAND FREE ENERGY PREDICTED BY IDOCK:   -0.01 KCAL/MOL
REMARK 927      BINDING AFFINITY PREDICTED BY RF-SCORE:    0.00 PKD
ROOT
HETATM    1  O   UNL     1     -11.274   9.024  68.259  1.00  0.00    -0.459 OA 
HETATM    2  C   UNL     1     -10.345   9.023  69.338  1.00  0.00    -0.213 C  
HETATM    3  H   UNL     1     -10.889   8.659  67.472  1.00  0.00     0.000 HD 
ENDROOT
BRANCH   2   4
HETATM    4  C   UNL     1     -10.969   9.615  70.614  1.00  0.00    -0.320 C  
HETATM    5  S   UNL     1     -12.077  11.005  70.142  1.00  0.00    -0.373 SA 
HETATM    6  H   UNL     1     -12.642  11.539  71.294  1.00  0.00     0.000 H  
BRANCH   4   7
HETATM    7  C   UNL     1     -11.702   8.526  71.415  1.00  0.00    -0.294 C  
HETATM    8  S   UNL     1     -13.369   9.000  71.989  1.00  0.00    -0.470 SA 
HETATM    9  H   UNL     1     -14.031   8.015  72.713  1.00  0.00     0.000 H  
ENDBRANCH   4   7
ENDBRANCH   2   4
TORSDOF 2
ENDMDL
MODEL       70
REMARK 921   NORMALIZED FREE ENERGY PREDICTED BY IDOCK:   -1.91 KCAL/MOL
REMARK 922        TOTAL FREE ENERGY PREDICTED BY IDOCK:   -2.14 KCAL/MOL
REMARK 923 INTER-LIGAND FREE ENERGY PREDICTED BY IDOCK:   -2.10 KCAL/MOL
REMARK 924 INTRA-LIGAND FREE ENERGY PREDICTED BY IDOCK:   -0.04 KCAL/MOL
REMARK 927      BINDING AFFINITY PREDICTED BY RF-SCORE:    0.00 PKD
ROOT
HETATM    1  O   UNL     1      -9.968  17.202  69.183  1.00  0.00    -0.272 OA 
HETATM    2  C   UNL     1     -10.888  17.067  68.104  1.00  0.00    -0.338 C  
HETATM    3  H   UNL     1     -10.409  17.138  70.021  1.00  0.00     0.000 HD 
ENDROOT
BRANCH   2   4
HETATM    4  C   UNL     1     -10.173  17.170  66.745  1.00  0.00    -0.311 C  
HETATM    5  S   UNL     1     -10.486  15.630  65.791  1.00  0.00    -0.388 SA 
HETATM    6  H   UNL     1      -9.841  15.723  64.564  1.00  0.00     0.000 H  
BRANCH   4   7
HETATM    7  C   UNL     1     -10.624  18.431  65.990  1.00  0.00    -0.309 C  
HETATM    8  S   UNL     1     -10.011  19.998  66.699  1.00  0.00    -0.485 SA 
HETATM    9  H   UNL     1     -10.420  21.138  66.016  1.00  0.00     0.000 H  
ENDBRANCH   4   7
ENDBRANCH   2   4
TORSDOF 2
ENDMDL
MODEL       71
REMARK 921   NORMALIZED FREE ENERGY PREDICTED BY IDOCK:   -1.90 KCAL/MOL
REMARK 922        TOTAL FREE ENERGY PREDICTED BY IDOCK:   -2.14 KCAL/MOL
REMARK 923 INTER-LIGAND FREE ENERGY PREDICTED BY IDOCK:   -2.12 KCAL/MOL
REMARK 924 INTRA-LIGAND FREE ENERGY PREDICTED BY IDOCK:   -0.02 KCAL/MOL
REMARK 927      BINDING AFFINITY PREDICTED BY RF-SCORE:    0.00 PKD
ROOT
HETATM    1  O   UNL     1      -7.822  17.969  65.592  1.00  0.00    -0.531 OA 
HETATM    2  C   UNL     1      -7.800  19.315  66.057  1.00  0.00    -0.258 C  
HETATM    3  H   UNL     1      -7.343  17.878  64.778  1.00  0.00     0.000 HD 
ENDROOT
BRANCH   2   4
HETATM    4  C   UNL     1      -8.576  19.462  67.378  1.00  0.00    -0.297 C  
HETATM    5  S   UNL     1     -10.377  19.503  67.007  1.00  0.00    -0.487 SA 
HETATM    6  H   UNL     1     -11.077  19.635  68.199  1.00  0.00     0.000 H  
BRANCH   4   7
HETATM    7  C   UNL     1      -8.203  18.334  68.354  1.00  0.00    -0.311 C  
HETATM    8  S   UNL     1      -6.448  18.318  68.858  1.00  0.00    -0.235 SA 
HETATM    9  H   UNL     1      -6.111  17.298  69.740  1.00  0.00     0.000 H  
ENDBRANCH   4   7
ENDBRANCH   2   4
TORSDOF 2
ENDMDL
MODEL       72
REMARK 921   NORMALIZED FREE ENERGY PREDICTED BY IDOCK:   -1.90 KCAL/MOL
REMARK 922        TOTAL FREE ENERGY PREDICTED BY IDOCK:   -2.13 KCAL/MOL
REMARK 923 INTER-LIGAND FREE ENERGY PREDICTED BY IDOCK:   -2.10 KCAL/MOL
REMARK 924 INTRA-LIGAND FREE ENERGY PREDICTED BY IDOCK:   -0.04 KCAL/MOL
REMARK 927      BINDING AFFINITY PREDICTED BY RF-SCORE:    0.00 PKD
ROOT
HETATM    1  O   UNL     1     -10.040  16.603  65.397  1.00  0.00    -0.578 OA 
HETATM    2  C   UNL     1      -8.842  16.645  66.165  1.00  0.00    -0.288 C  
HETATM    3  H   UNL     1      -9.872  16.301  64.513  1.00  0.00     0.000 HD 
ENDROOT
BRANCH   2   4
HETATM    4  C   UNL     1      -9.116  17.134  67.599  1.00  0.00    -0.227 C  
HETATM    5  S   UNL     1     -10.398  18.451  67.542  1.00  0.00    -0.408 SA 
HETATM    6  H   UNL     1     -10.645  18.892  68.836  1.00  0.00     0.000 H  
BRANCH   4   7
HETATM    7  C   UNL     1      -9.520  15.959  68.504  1.00  0.00    -0.209 C  
HETATM    8  S   UNL     1     -11.309  15.854  68.853  1.00  0.00    -0.388 SA 
HETATM    9  H   UNL     1     -11.675  14.792  69.672  1.00  0.00     0.000 H  
ENDBRANCH   4   7
ENDBRANCH   2   4
TORSDOF 2
ENDMDL
MODEL       73
REMARK 921   NORMALIZED FREE ENERGY PREDICTED BY IDOCK:   -1.90 KCAL/MOL
REMARK 922        TOTAL FREE ENERGY PREDICTED BY IDOCK:   -2.13 KCAL/MOL
REMARK 923 INTER-LIGAND FREE ENERGY PREDICTED BY IDOCK:   -2.13 KCAL/MOL
REMARK 924 INTRA-LIGAND FREE ENERGY PREDICTED BY IDOCK:   -0.01 KCAL/MOL
REMARK 927      BINDING AFFINITY PREDICTED BY RF-SCORE:    0.00 PKD
ROOT
HETATM    1  O   UNL     1     -12.258  13.445  67.005  1.00  0.00    -0.353 OA 
HETATM    2  C   UNL     1     -11.432  14.405  66.353  1.00  0.00    -0.360 C  
HETATM    3  H   UNL     1     -12.901  13.866  67.562  1.00  0.00     0.000 HD 
ENDROOT
BRANCH   2   4
HETATM    4  C   UNL     1     -10.389  13.723  65.450  1.00  0.00    -0.333 C  
HETATM    5  S   UNL     1      -9.486  12.460  66.436  1.00  0.00    -0.222 SA 
HETATM    6  H   UNL     1      -8.545  11.843  65.620  1.00  0.00     0.000 H  
BRANCH   4   7
HETATM    7  C   UNL     1     -11.061  13.124  64.203  1.00  0.00    -0.394 C  
HETATM    8  S   UNL     1     -10.247  11.626  63.550  1.00  0.00    -0.464 SA 
HETATM    9  H   UNL     1     -10.854  11.085  62.423  1.00  0.00     0.000 H  
ENDBRANCH   4   7
ENDBRANCH   2   4
TORSDOF 2
ENDMDL
MODEL       74
REMARK 921   NORMALIZED FREE ENERGY PREDICTED BY IDOCK:   -1.89 KCAL/MOL
REMARK 922        TOTAL FREE ENERGY PREDICTED BY IDOCK:   -2.12 KCAL/MOL
REMARK 923 INTER-LIGAND FREE ENERGY PREDICTED BY IDOCK:   -2.12 KCAL/MOL
REMARK 924 INTRA-LIGAND FREE ENERGY PREDICTED BY IDOCK:   -0.00 KCAL/MOL
REMARK 927      BINDING AFFINITY PREDICTED BY RF-SCORE:    0.00 PKD
ROOT
HETATM    1  O   UNL     1     -10.052  13.382  68.837  1.00  0.00    -0.410 OA 
HETATM    2  C   UNL     1     -11.123  12.846  68.066  1.00  0.00    -0.253 C  
HETATM    3  H   UNL     1     -10.204  13.263  69.766  1.00  0.00     0.000 HD 
ENDROOT
BRANCH   2   4
HETATM    4  C   UNL     1     -10.876  13.038  66.559  1.00  0.00    -0.279 C  
HETATM    5  S   UNL     1      -9.971  11.572  65.914  1.00  0.00    -0.241 SA 
HETATM    6  H   UNL     1      -9.748  11.746  64.553  1.00  0.00     0.000 H  
BRANCH   4   7
HETATM    7  C   UNL     1     -12.201  13.282  65.819  1.00  0.00    -0.456 C  
HETATM    8  S   UNL     1     -12.278  12.557  64.145  1.00  0.00    -0.482 SA 
HETATM    9  H   UNL     1     -13.476  12.778  63.476  1.00  0.00     0.000 H  
ENDBRANCH   4   7
ENDBRANCH   2   4
TORSDOF 2
ENDMDL
MODEL       75
REMARK 921   NORMALIZED FREE ENERGY PREDICTED BY IDOCK:   -1.88 KCAL/MOL
REMARK 922        TOTAL FREE ENERGY PREDICTED BY IDOCK:   -2.11 KCAL/MOL
REMARK 923 INTER-LIGAND FREE ENERGY PREDICTED BY IDOCK:   -2.11 KCAL/MOL
REMARK 924 INTRA-LIGAND FREE ENERGY PREDICTED BY IDOCK:   -0.00 KCAL/MOL
REMARK 927      BINDING AFFINITY PREDICTED BY RF-SCORE:    0.00 PKD
ROOT
HETATM    1  O   UNL     1     -13.624  11.126  72.259  1.00  0.00    -0.543 OA 
HETATM    2  C   UNL     1     -12.703  11.619  71.292  1.00  0.00    -0.340 C  
HETATM    3  H   UNL     1     -13.930  11.821  72.829  1.00  0.00     0.000 HD 
ENDROOT
BRANCH   2   4
HETATM    4  C   UNL     1     -12.207  10.492  70.368  1.00  0.00    -0.328 C  
HETATM    5  S   UNL     1     -11.738  11.217  68.745  1.00  0.00    -0.335 SA 
HETATM    6  H   UNL     1     -11.290  10.199  67.911  1.00  0.00     0.000 H  
BRANCH   4   7
HETATM    7  C   UNL     1     -11.048   9.724  71.025  1.00  0.00    -0.361 C  
HETATM    8  S   UNL     1      -9.746   9.182  69.865  1.00  0.00    -0.204 SA 
HETATM    9  H   UNL     1      -8.698   8.487  70.459  1.00  0.00     0.000 H  
ENDBRANCH   4   7
ENDBRANCH   2   4
TORSDOF 2
ENDMDL
MODEL       76
REMARK 921   NORMALIZED FREE ENERGY PREDICTED BY IDOCK:   -1.88 KCAL/MOL
REMARK 922        TOTAL FREE ENERGY PREDICTED BY IDOCK:   -2.11 KCAL/MOL
REMARK 923 INTER-LIGAND FREE ENERGY PREDICTED BY IDOCK:   -2.16 KCAL/MOL
REMARK 924 INTRA-LIGAND FREE ENERGY PREDICTED BY IDOCK:    0.05 KCAL/MOL
REMARK 927      BINDING AFFINITY PREDICTED BY RF-SCORE:    0.00 PKD
ROOT
HETATM    1  O   UNL     1     -12.673  14.720  69.152  1.00  0.00    -0.512 OA 
HETATM    2  C   UNL     1     -11.435  14.604  68.458  1.00  0.00    -0.302 C  
HETATM    3  H   UNL     1     -12.537  14.946  70.064  1.00  0.00     0.000 HD 
ENDROOT
BRANCH   2   4
HETATM    4  C   UNL     1     -11.657  14.238  66.979  1.00  0.00    -0.386 C  
HETATM    5  S   UNL     1     -10.681  15.391  65.930  1.00  0.00    -0.341 SA 
HETATM    6  H   UNL     1     -10.881  15.060  64.595  1.00  0.00     0.000 H  
BRANCH   4   7
HETATM    7  C   UNL     1     -11.295  12.765  66.726  1.00  0.00    -0.313 C  
HETATM    8  S   UNL     1     -11.618  11.653  68.138  1.00  0.00    -0.307 SA 
HETATM    9  H   UNL     1     -11.291  10.321  67.909  1.00  0.00     0.000 H  
ENDBRANCH   4   7
ENDBRANCH   2   4
TORSDOF 2
ENDMDL
MODEL       77
REMARK 921   NORMALIZED FREE ENERGY PREDICTED BY IDOCK:   -1.87 KCAL/MOL
REMARK 922        TOTAL FREE ENERGY PREDICTED BY IDOCK:   -2.10 KCAL/MOL
REMARK 923 INTER-LIGAND FREE ENERGY PREDICTED BY IDOCK:   -2.12 KCAL/MOL
REMARK 924 INTRA-LIGAND FREE ENERGY PREDICTED BY IDOCK:    0.02 KCAL/MOL
REMARK 927      BINDING AFFINITY PREDICTED BY RF-SCORE:    0.00 PKD
ROOT
HETATM    1  O   UNL     1     -13.754  11.919  72.448  1.00  0.00    -0.505 OA 
HETATM    2  C   UNL     1     -12.625  11.837  71.583  1.00  0.00    -0.144 C  
HETATM    3  H   UNL     1     -13.734  12.715  72.965  1.00  0.00     0.000 HD 
ENDROOT
BRANCH   2   4
HETATM    4  C   UNL     1     -12.658  10.546  70.745  1.00  0.00    -0.382 C  
HETATM    5  S   UNL     1     -11.302  10.610  69.504  1.00  0.00    -0.299 SA 
HETATM    6  H   UNL     1     -11.330   9.444  68.748  1.00  0.00     0.000 H  
BRANCH   4   7
HETATM    7  C   UNL     1     -12.565   9.308  71.653  1.00  0.00    -0.365 C  
HETATM    8  S   UNL     1     -14.169   8.518  72.020  1.00  0.00    -0.428 SA 
HETATM    9  H   UNL     1     -14.086   7.399  72.842  1.00  0.00     0.000 H  
ENDBRANCH   4   7
ENDBRANCH   2   4
TORSDOF 2
ENDMDL
MODEL       78
REMARK 921   NORMALIZED FREE ENERGY PREDICTED BY IDOCK:   -1.87 KCAL/MOL
REMARK 922        TOTAL FREE ENERGY PREDICTED BY IDOCK:   -2.10 KCAL/MOL
REMARK 923 INTER-LIGAND FREE ENERGY PREDICTED BY IDOCK:   -2.10 KCAL/MOL
REMARK 924 INTRA-LIGAND FREE ENERGY PREDICTED BY IDOCK:   -0.00 KCAL/MOL
REMARK 927      BINDING AFFINITY PREDICTED BY RF-SCORE:    0.00 PKD
ROOT
HETATM    1  O   UNL     1      -8.996  13.622  66.264  1.00  0.00    -0.464 OA 
HETATM    2  C   UNL     1      -9.131  14.881  66.917  1.00  0.00    -0.250 C  
HETATM    3  H   UNL     1      -8.085  13.360  66.206  1.00  0.00     0.000 HD 
ENDROOT
BRANCH   2   4
HETATM    4  C   UNL     1     -10.608  15.305  67.011  1.00  0.00    -0.306 C  
HETATM    5  S   UNL     1     -11.609  13.855  67.537  1.00  0.00    -0.382 SA 
HETATM    6  H   UNL     1     -12.942  14.238  67.623  1.00  0.00     0.000 H  
BRANCH   4   7
HETATM    7  C   UNL     1     -10.767  16.504  67.959  1.00  0.00    -0.343 C  
HETATM    8  S   UNL     1     -10.478  18.129  67.180  1.00  0.00    -0.352 SA 
HETATM    9  H   UNL     1     -10.622  19.214  68.037  1.00  0.00     0.000 H  
ENDBRANCH   4   7
ENDBRANCH   2   4
TORSDOF 2
ENDMDL
MODEL       79
REMARK 921   NORMALIZED FREE ENERGY PREDICTED BY IDOCK:   -1.86 KCAL/MOL
REMARK 922        TOTAL FREE ENERGY PREDICTED BY IDOCK:   -2.09 KCAL/MOL
REMARK 923 INTER-LIGAND FREE ENERGY PREDICTED BY IDOCK:   -2.05 KCAL/MOL
REMARK 924 INTRA-LIGAND FREE ENERGY PREDICTED BY IDOCK:   -0.03 KCAL/MOL
REMARK 927      BINDING AFFINITY PREDICTED BY RF-SCORE:    0.00 PKD
ROOT
HETATM    1  O   UNL     1     -10.211  15.070  70.339  1.00  0.00    -0.502 OA 
HETATM    2  C   UNL     1      -9.548  15.609  69.200  1.00  0.00    -0.251 C  
HETATM    3  H   UNL     1      -9.611  14.575  70.884  1.00  0.00     0.000 HD 
ENDROOT
BRANCH   2   4
HETATM    4  C   UNL     1     -10.520  16.412  68.317  1.00  0.00    -0.302 C  
HETATM    5  S   UNL     1     -10.129  18.201  68.479  1.00  0.00    -0.393 SA 
HETATM    6  H   UNL     1     -11.007  18.926  67.681  1.00  0.00     0.000 H  
BRANCH   4   7
HETATM    7  C   UNL     1     -10.456  15.926  66.860  1.00  0.00    -0.309 C  
HETATM    8  S   UNL     1      -9.691  14.283  66.643  1.00  0.00    -0.297 SA 
HETATM    9  H   UNL     1      -9.632  13.843  65.325  1.00  0.00     0.000 H  
ENDBRANCH   4   7
ENDBRANCH   2   4
TORSDOF 2
ENDMDL
MODEL       80
REMARK 921   NORMALIZED FREE ENERGY PREDICTED BY IDOCK:   -1.85 KCAL/MOL
REMARK 922        TOTAL FREE ENERGY PREDICTED BY IDOCK:   -2.08 KCAL/MOL
REMARK 923 INTER-LIGAND FREE ENERGY PREDICTED BY IDOCK:   -2.08 KCAL/MOL
REMARK 924 INTRA-LIGAND FREE ENERGY PREDICTED BY IDOCK:   -0.00 KCAL/MOL
REMARK 927      BINDING AFFINITY PREDICTED BY RF-SCORE:    0.00 PKD
ROOT
HETATM    1  O   UNL     1     -11.583   4.527  65.019  1.00  0.00    -1.101 OA 
HETATM    2  C   UNL     1     -10.214   4.227  65.269  1.00  0.00    -0.217 C  
HETATM    3  H   UNL     1     -11.986   3.867  64.467  1.00  0.00     0.000 HD 
ENDROOT
BRANCH   2   4
HETATM    4  C   UNL     1      -9.562   5.297  66.163  1.00  0.00    -0.161 C  
HETATM    5  S   UNL     1     -10.886   6.219  67.045  1.00  0.00    -0.359 SA 
HETATM    6  H   UNL     1     -10.298   7.185  67.853  1.00  0.00     0.000 H  
BRANCH   4   7
HETATM    7  C   UNL     1      -8.552   4.655  67.128  1.00  0.00    -0.104 C  
HETATM    8  S   UNL     1      -9.149   4.481  68.844  1.00  0.00    -0.133 SA 
HETATM    9  H   UNL     1      -8.235   3.901  69.717  1.00  0.00     0.000 H  
ENDBRANCH   4   7
ENDBRANCH   2   4
TORSDOF 2
ENDMDL
MODEL       81
REMARK 921   NORMALIZED FREE ENERGY PREDICTED BY IDOCK:   -1.85 KCAL/MOL
REMARK 922        TOTAL FREE ENERGY PREDICTED BY IDOCK:   -2.08 KCAL/MOL
REMARK 923 INTER-LIGAND FREE ENERGY PREDICTED BY IDOCK:   -2.08 KCAL/MOL
REMARK 924 INTRA-LIGAND FREE ENERGY PREDICTED BY IDOCK:   -0.00 KCAL/MOL
REMARK 927      BINDING AFFINITY PREDICTED BY RF-SCORE:    0.00 PKD
ROOT
HETATM    1  O   UNL     1      -9.698   7.538  74.035  1.00  0.00    -0.381 OA 
HETATM    2  C   UNL     1     -10.727   7.625  73.055  1.00  0.00    -0.391 C  
HETATM    3  H   UNL     1      -9.682   8.311  74.587  1.00  0.00     0.000 HD 
ENDROOT
BRANCH   2   4
HETATM    4  C   UNL     1     -10.753   6.371  72.161  1.00  0.00    -0.227 C  
HETATM    5  S   UNL     1     -11.148   4.908  73.203  1.00  0.00    -0.325 SA 
HETATM    6  H   UNL     1     -11.172   3.777  72.397  1.00  0.00     0.000 H  
BRANCH   4   7
HETATM    7  C   UNL     1     -11.747   6.553  71.003  1.00  0.00    -0.343 C  
HETATM    8  S   UNL     1     -11.043   6.245  69.346  1.00  0.00    -0.407 SA 
HETATM    9  H   UNL     1     -11.942   6.409  68.299  1.00  0.00     0.000 H  
ENDBRANCH   4   7
ENDBRANCH   2   4
TORSDOF 2
ENDMDL
MODEL       82
REMARK 921   NORMALIZED FREE ENERGY PREDICTED BY IDOCK:   -1.84 KCAL/MOL
REMARK 922        TOTAL FREE ENERGY PREDICTED BY IDOCK:   -2.07 KCAL/MOL
REMARK 923 INTER-LIGAND FREE ENERGY PREDICTED BY IDOCK:   -2.07 KCAL/MOL
REMARK 924 INTRA-LIGAND FREE ENERGY PREDICTED BY IDOCK:   -0.00 KCAL/MOL
REMARK 927      BINDING AFFINITY PREDICTED BY RF-SCORE:    0.00 PKD
ROOT
HETATM    1  O   UNL     1      -9.704  13.509  68.949  1.00  0.00    -0.410 OA 
HETATM    2  C   UNL     1     -10.849  14.128  68.371  1.00  0.00    -0.254 C  
HETATM    3  H   UNL     1      -8.946  13.589  68.382  1.00  0.00     0.000 HD 
ENDROOT
BRANCH   2   4
HETATM    4  C   UNL     1     -12.077  13.998  69.290  1.00  0.00    -0.338 C  
HETATM    5  S   UNL     1     -11.999  12.380  70.160  1.00  0.00    -0.219 SA 
HETATM    6  H   UNL     1     -13.107  12.264  70.991  1.00  0.00     0.000 H  
BRANCH   4   7
HETATM    7  C   UNL     1     -12.152  15.186  70.264  1.00  0.00    -0.341 C  
HETATM    8  S   UNL     1     -13.589  15.152  71.390  1.00  0.00    -0.508 SA 
HETATM    9  H   UNL     1     -13.657  16.226  72.270  1.00  0.00     0.000 H  
ENDBRANCH   4   7
ENDBRANCH   2   4
TORSDOF 2
ENDMDL
MODEL       83
REMARK 921   NORMALIZED FREE ENERGY PREDICTED BY IDOCK:   -1.84 KCAL/MOL
REMARK 922        TOTAL FREE ENERGY PREDICTED BY IDOCK:   -2.07 KCAL/MOL
REMARK 923 INTER-LIGAND FREE ENERGY PREDICTED BY IDOCK:   -2.04 KCAL/MOL
REMARK 924 INTRA-LIGAND FREE ENERGY PREDICTED BY IDOCK:   -0.03 KCAL/MOL
REMARK 927      BINDING AFFINITY PREDICTED BY RF-SCORE:    0.00 PKD
ROOT
HETATM    1  O   UNL     1     -12.892  10.445  69.540  1.00  0.00    -0.632 OA 
HETATM    2  C   UNL     1     -11.681  11.038  69.999  1.00  0.00    -0.355 C  
HETATM    3  H   UNL     1     -13.507  10.323  70.253  1.00  0.00     0.000 HD 
ENDROOT
BRANCH   2   4
HETATM    4  C   UNL     1     -10.684  11.235  68.843  1.00  0.00    -0.207 C  
HETATM    5  S   UNL     1      -9.251  10.111  69.097  1.00  0.00    -0.206 SA 
HETATM    6  H   UNL     1      -8.351  10.289  68.053  1.00  0.00     0.000 H  
BRANCH   4   7
HETATM    7  C   UNL     1     -11.374  11.010  67.488  1.00  0.00    -0.257 C  
HETATM    8  S   UNL     1     -11.526  12.510  66.458  1.00  0.00    -0.381 SA 
HETATM    9  H   UNL     1     -12.151  12.307  65.232  1.00  0.00     0.000 H  
ENDBRANCH   4   7
ENDBRANCH   2   4
TORSDOF 2
ENDMDL
MODEL       84
REMARK 921   NORMALIZED FREE ENERGY PREDICTED BY IDOCK:   -1.83 KCAL/MOL
REMARK 922        TOTAL FREE ENERGY PREDICTED BY IDOCK:   -2.06 KCAL/MOL
REMARK 923 INTER-LIGAND FREE ENERGY PREDICTED BY IDOCK:   -2.03 KCAL/MOL
REMARK 924 INTRA-LIGAND FREE ENERGY PREDICTED BY IDOCK:   -0.02 KCAL/MOL
REMARK 927      BINDING AFFINITY PREDICTED BY RF-SCORE:    0.00 PKD
ROOT
HETATM    1  O   UNL     1      -8.759   9.627  70.879  1.00  0.00    -0.332 OA 
HETATM    2  C   UNL     1      -9.567   8.621  71.481  1.00  0.00    -0.257 C  
HETATM    3  H   UNL     1      -7.899   9.663  71.278  1.00  0.00     0.000 HD 
ENDROOT
BRANCH   2   4
HETATM    4  C   UNL     1     -10.962   8.563  70.833  1.00  0.00    -0.251 C  
HETATM    5  S   UNL     1     -11.403   6.804  70.530  1.00  0.00    -0.365 SA 
HETATM    6  H   UNL     1     -12.662   6.752  69.945  1.00  0.00     0.000 H  
BRANCH   4   7
HETATM    7  C   UNL     1     -11.997   9.286  71.710  1.00  0.00    -0.385 C  
HETATM    8  S   UNL     1     -12.649  10.833  70.992  1.00  0.00    -0.445 SA 
HETATM    9  H   UNL     1     -13.585  11.487  71.786  1.00  0.00     0.000 H  
ENDBRANCH   4   7
ENDBRANCH   2   4
TORSDOF 2
ENDMDL
MODEL       85
REMARK 921   NORMALIZED FREE ENERGY PREDICTED BY IDOCK:   -1.83 KCAL/MOL
REMARK 922        TOTAL FREE ENERGY PREDICTED BY IDOCK:   -2.05 KCAL/MOL
REMARK 923 INTER-LIGAND FREE ENERGY PREDICTED BY IDOCK:   -2.02 KCAL/MOL
REMARK 924 INTRA-LIGAND FREE ENERGY PREDICTED BY IDOCK:   -0.03 KCAL/MOL
REMARK 927      BINDING AFFINITY PREDICTED BY RF-SCORE:    0.00 PKD
ROOT
HETATM    1  O   UNL     1     -11.581   6.453  66.935  1.00  0.00    -0.677 OA 
HETATM    2  C   UNL     1     -10.501   7.335  67.227  1.00  0.00    -0.310 C  
HETATM    3  H   UNL     1     -11.707   6.361  65.998  1.00  0.00     0.000 HD 
ENDROOT
BRANCH   2   4
HETATM    4  C   UNL     1     -10.297   7.482  68.745  1.00  0.00    -0.200 C  
HETATM    5  S   UNL     1     -10.645   9.224  69.224  1.00  0.00    -0.201 SA 
HETATM    6  H   UNL     1     -10.460   9.357  70.595  1.00  0.00     0.000 H  
BRANCH   4   7
HETATM    7  C   UNL     1     -11.172   6.477  69.510  1.00  0.00    -0.372 C  
HETATM    8  S   UNL     1     -10.246   5.120  70.307  1.00  0.00    -0.257 SA 
HETATM    9  H   UNL     1     -11.037   4.210  70.999  1.00  0.00     0.000 H  
ENDBRANCH   4   7
ENDBRANCH   2   4
TORSDOF 2
ENDMDL
MODEL       86
REMARK 921   NORMALIZED FREE ENERGY PREDICTED BY IDOCK:   -1.82 KCAL/MOL
REMARK 922        TOTAL FREE ENERGY PREDICTED BY IDOCK:   -2.05 KCAL/MOL
REMARK 923 INTER-LIGAND FREE ENERGY PREDICTED BY IDOCK:   -2.05 KCAL/MOL
REMARK 924 INTRA-LIGAND FREE ENERGY PREDICTED BY IDOCK:   -0.00 KCAL/MOL
REMARK 927      BINDING AFFINITY PREDICTED BY RF-SCORE:    0.00 PKD
ROOT
HETATM    1  O   UNL     1      -8.328   9.721  71.032  1.00  0.00    -0.352 OA 
HETATM    2  C   UNL     1      -9.315   8.757  71.388  1.00  0.00    -0.258 C  
HETATM    3  H   UNL     1      -7.461   9.335  71.015  1.00  0.00     0.000 HD 
ENDROOT
BRANCH   2   4
HETATM    4  C   UNL     1     -10.721   9.383  71.415  1.00  0.00    -0.337 C  
HETATM    5  S   UNL     1     -11.086  10.093  69.758  1.00  0.00    -0.294 SA 
HETATM    6  H   UNL     1     -12.355  10.657  69.782  1.00  0.00     0.000 H  
BRANCH   4   7
HETATM    7  C   UNL     1     -11.767   8.345  71.852  1.00  0.00    -0.334 C  
HETATM    8  S   UNL     1     -13.469   8.994  71.981  1.00  0.00    -0.472 SA 
HETATM    9  H   UNL     1     -14.415   8.055  72.377  1.00  0.00     0.000 H  
ENDBRANCH   4   7
ENDBRANCH   2   4
TORSDOF 2
ENDMDL
MODEL       87
REMARK 921   NORMALIZED FREE ENERGY PREDICTED BY IDOCK:   -1.82 KCAL/MOL
REMARK 922        TOTAL FREE ENERGY PREDICTED BY IDOCK:   -2.05 KCAL/MOL
REMARK 923 INTER-LIGAND FREE ENERGY PREDICTED BY IDOCK:   -2.05 KCAL/MOL
REMARK 924 INTRA-LIGAND FREE ENERGY PREDICTED BY IDOCK:   -0.00 KCAL/MOL
REMARK 927      BINDING AFFINITY PREDICTED BY RF-SCORE:    0.00 PKD
ROOT
HETATM    1  O   UNL     1     -11.106  16.989  69.981  1.00  0.00    -0.370 OA 
HETATM    2  C   UNL     1     -11.565  15.754  69.440  1.00  0.00    -0.365 C  
HETATM    3  H   UNL     1     -11.216  17.014  70.924  1.00  0.00     0.000 HD 
ENDROOT
BRANCH   2   4
HETATM    4  C   UNL     1     -11.387  15.714  67.911  1.00  0.00    -0.302 C  
HETATM    5  S   UNL     1     -10.390  17.170  67.392  1.00  0.00    -0.328 SA 
HETATM    6  H   UNL     1     -10.229  17.134  66.012  1.00  0.00     0.000 H  
BRANCH   4   7
HETATM    7  C   UNL     1     -10.754  14.383  67.474  1.00  0.00    -0.271 C  
HETATM    8  S   UNL     1     -11.798  13.378  66.364  1.00  0.00    -0.411 SA 
HETATM    9  H   UNL     1     -11.226  12.174  65.969  1.00  0.00     0.000 H  
ENDBRANCH   4   7
ENDBRANCH   2   4
TORSDOF 2
ENDMDL
MODEL       88
REMARK 921   NORMALIZED FREE ENERGY PREDICTED BY IDOCK:   -1.82 KCAL/MOL
REMARK 922        TOTAL FREE ENERGY PREDICTED BY IDOCK:   -2.05 KCAL/MOL
REMARK 923 INTER-LIGAND FREE ENERGY PREDICTED BY IDOCK:   -2.04 KCAL/MOL
REMARK 924 INTRA-LIGAND FREE ENERGY PREDICTED BY IDOCK:   -0.00 KCAL/MOL
REMARK 927      BINDING AFFINITY PREDICTED BY RF-SCORE:    0.00 PKD
ROOT
HETATM    1  O   UNL     1     -11.476   6.632  66.847  1.00  0.00    -0.777 OA 
HETATM    2  C   UNL     1     -10.444   7.233  67.623  1.00  0.00    -0.242 C  
HETATM    3  H   UNL     1     -11.267   6.654  65.921  1.00  0.00     0.000 HD 
ENDROOT
BRANCH   2   4
HETATM    4  C   UNL     1     -10.782   7.198  69.124  1.00  0.00    -0.198 C  
HETATM    5  S   UNL     1     -10.397   5.523  69.779  1.00  0.00    -0.315 SA 
HETATM    6  H   UNL     1     -10.701   5.490  71.135  1.00  0.00     0.000 H  
BRANCH   4   7
HETATM    7  C   UNL     1     -10.030   8.309  69.876  1.00  0.00    -0.190 C  
HETATM    8  S   UNL     1     -10.988   9.846  70.109  1.00  0.00    -0.322 SA 
HETATM    9  H   UNL     1     -10.308  10.851  70.788  1.00  0.00     0.000 H  
ENDBRANCH   4   7
ENDBRANCH   2   4
TORSDOF 2
ENDMDL
MODEL       89
REMARK 921   NORMALIZED FREE ENERGY PREDICTED BY IDOCK:   -1.81 KCAL/MOL
REMARK 922        TOTAL FREE ENERGY PREDICTED BY IDOCK:   -2.04 KCAL/MOL
REMARK 923 INTER-LIGAND FREE ENERGY PREDICTED BY IDOCK:   -2.02 KCAL/MOL
REMARK 924 INTRA-LIGAND FREE ENERGY PREDICTED BY IDOCK:   -0.01 KCAL/MOL
REMARK 927      BINDING AFFINITY PREDICTED BY RF-SCORE:    0.00 PKD
ROOT
HETATM    1  O   UNL     1      -9.758   8.441  72.338  1.00  0.00    -0.268 OA 
HETATM    2  C   UNL     1     -11.167   8.268  72.453  1.00  0.00    -0.381 C  
HETATM    3  H   UNL     1      -9.468   9.220  72.797  1.00  0.00     0.000 HD 
ENDROOT
BRANCH   2   4
HETATM    4  C   UNL     1     -11.637   7.005  71.710  1.00  0.00    -0.280 C  
HETATM    5  S   UNL     1     -11.230   5.530  72.730  1.00  0.00    -0.295 SA 
HETATM    6  H   UNL     1     -11.654   4.390  72.059  1.00  0.00     0.000 H  
BRANCH   4   7
HETATM    7  C   UNL     1     -13.136   7.096  71.381  1.00  0.00    -0.352 C  
HETATM    8  S   UNL     1     -13.924   8.669  71.867  1.00  0.00    -0.447 SA 
HETATM    9  H   UNL     1     -15.279   8.751  71.570  1.00  0.00     0.000 H  
ENDBRANCH   4   7
ENDBRANCH   2   4
TORSDOF 2
ENDMDL
MODEL       90
REMARK 921   NORMALIZED FREE ENERGY PREDICTED BY IDOCK:   -1.81 KCAL/MOL
REMARK 922        TOTAL FREE ENERGY PREDICTED BY IDOCK:   -2.04 KCAL/MOL
REMARK 923 INTER-LIGAND FREE ENERGY PREDICTED BY IDOCK:   -2.00 KCAL/MOL
REMARK 924 INTRA-LIGAND FREE ENERGY PREDICTED BY IDOCK:   -0.03 KCAL/MOL
REMARK 927      BINDING AFFINITY PREDICTED BY RF-SCORE:    0.00 PKD
ROOT
HETATM    1  O   UNL     1     -11.523   4.681  65.245  1.00  0.00    -1.070 OA 
HETATM    2  C   UNL     1     -10.244   4.129  65.540  1.00  0.00    -0.157 C  
HETATM    3  H   UNL     1     -11.909   5.086  66.013  1.00  0.00     0.000 HD 
ENDROOT
BRANCH   2   4
HETATM    4  C   UNL     1      -9.619   3.473  64.296  1.00  0.00    -0.160 C  
HETATM    5  S   UNL     1      -8.934   1.834  64.772  1.00  0.00    -0.119 SA 
HETATM    6  H   UNL     1      -8.370   1.240  63.649  1.00  0.00     0.000 H  
BRANCH   4   7
HETATM    7  C   UNL     1     -10.651   3.371  63.162  1.00  0.00    -0.236 C  
HETATM    8  S   UNL     1     -11.274   1.682  62.854  1.00  0.00    -0.262 SA 
HETATM    9  H   UNL     1     -12.207   1.589  61.828  1.00  0.00     0.000 H  
ENDBRANCH   4   7
ENDBRANCH   2   4
TORSDOF 2
ENDMDL
MODEL       91
REMARK 921   NORMALIZED FREE ENERGY PREDICTED BY IDOCK:   -1.81 KCAL/MOL
REMARK 922        TOTAL FREE ENERGY PREDICTED BY IDOCK:   -2.04 KCAL/MOL
REMARK 923 INTER-LIGAND FREE ENERGY PREDICTED BY IDOCK:   -2.01 KCAL/MOL
REMARK 924 INTRA-LIGAND FREE ENERGY PREDICTED BY IDOCK:   -0.02 KCAL/MOL
REMARK 927      BINDING AFFINITY PREDICTED BY RF-SCORE:    0.00 PKD
ROOT
HETATM    1  O   UNL     1     -11.658   4.509  64.962  1.00  0.00    -1.101 OA 
HETATM    2  C   UNL     1     -10.643   3.740  64.325  1.00  0.00    -0.228 C  
HETATM    3  H   UNL     1     -12.467   4.488  64.467  1.00  0.00     0.000 HD 
ENDROOT
BRANCH   2   4
HETATM    4  C   UNL     1      -9.330   3.773  65.129  1.00  0.00    -0.157 C  
HETATM    5  S   UNL     1      -8.143   4.893  64.281  1.00  0.00    -0.121 SA 
HETATM    6  H   UNL     1      -6.959   4.924  65.007  1.00  0.00     0.000 H  
BRANCH   4   7
HETATM    7  C   UNL     1      -9.596   4.193  66.584  1.00  0.00    -0.206 C  
HETATM    8  S   UNL     1      -9.270   2.889  67.819  1.00  0.00    -0.200 SA 
HETATM    9  H   UNL     1      -9.512   3.268  69.135  1.00  0.00     0.000 H  
ENDBRANCH   4   7
ENDBRANCH   2   4
TORSDOF 2
ENDMDL
MODEL       92
REMARK 921   NORMALIZED FREE ENERGY PREDICTED BY IDOCK:   -1.80 KCAL/MOL
REMARK 922        TOTAL FREE ENERGY PREDICTED BY IDOCK:   -2.02 KCAL/MOL
REMARK 923 INTER-LIGAND FREE ENERGY PREDICTED BY IDOCK:   -2.02 KCAL/MOL
REMARK 924 INTRA-LIGAND FREE ENERGY PREDICTED BY IDOCK:   -0.00 KCAL/MOL
REMARK 927      BINDING AFFINITY PREDICTED BY RF-SCORE:    0.00 PKD
ROOT
HETATM    1  O   UNL     1     -12.123   6.629  69.770  1.00  0.00    -0.638 OA 
HETATM    2  C   UNL     1     -10.865   7.290  69.848  1.00  0.00    -0.247 C  
HETATM    3  H   UNL     1     -12.091   5.898  69.164  1.00  0.00     0.000 HD 
ENDROOT
BRANCH   2   4
HETATM    4  C   UNL     1     -10.917   8.474  70.830  1.00  0.00    -0.251 C  
HETATM    5  S   UNL     1     -11.530   7.870  72.456  1.00  0.00    -0.398 SA 
HETATM    6  H   UNL     1     -11.577   8.939  73.342  1.00  0.00     0.000 H  
BRANCH   4   7
HETATM    7  C   UNL     1      -9.541   9.150  70.937  1.00  0.00    -0.279 C  
HETATM    8  S   UNL     1      -8.959   9.932  69.393  1.00  0.00    -0.206 SA 
HETATM    9  H   UNL     1      -7.715  10.543  69.489  1.00  0.00     0.000 H  
ENDBRANCH   4   7
ENDBRANCH   2   4
TORSDOF 2
ENDMDL
MODEL       93
REMARK 921   NORMALIZED FREE ENERGY PREDICTED BY IDOCK:   -1.80 KCAL/MOL
REMARK 922        TOTAL FREE ENERGY PREDICTED BY IDOCK:   -2.02 KCAL/MOL
REMARK 923 INTER-LIGAND FREE ENERGY PREDICTED BY IDOCK:   -2.00 KCAL/MOL
REMARK 924 INTRA-LIGAND FREE ENERGY PREDICTED BY IDOCK:   -0.02 KCAL/MOL
REMARK 927      BINDING AFFINITY PREDICTED BY RF-SCORE:    0.00 PKD
ROOT
HETATM    1  O   UNL     1     -12.231  12.334  66.629  1.00  0.00    -0.574 OA 
HETATM    2  C   UNL     1     -11.142  11.966  65.788  1.00  0.00    -0.317 C  
HETATM    3  H   UNL     1     -12.778  11.585  66.832  1.00  0.00     0.000 HD 
ENDROOT
BRANCH   2   4
HETATM    4  C   UNL     1     -10.255  13.180  65.460  1.00  0.00    -0.287 C  
HETATM    5  S   UNL     1     -11.330  14.576  64.935  1.00  0.00    -0.404 SA 
HETATM    6  H   UNL     1     -10.529  15.672  64.639  1.00  0.00     0.000 H  
BRANCH   4   7
HETATM    7  C   UNL     1      -9.367  13.542  66.661  1.00  0.00    -0.245 C  
HETATM    8  S   UNL     1      -8.233  12.214  67.193  1.00  0.00    -0.172 SA 
HETATM    9  H   UNL     1      -7.430  12.541  68.279  1.00  0.00     0.000 H  
ENDBRANCH   4   7
ENDBRANCH   2   4
TORSDOF 2
ENDMDL
MODEL       94
REMARK 921   NORMALIZED FREE ENERGY PREDICTED BY IDOCK:   -1.80 KCAL/MOL
REMARK 922        TOTAL FREE ENERGY PREDICTED BY IDOCK:   -2.02 KCAL/MOL
REMARK 923 INTER-LIGAND FREE ENERGY PREDICTED BY IDOCK:   -2.02 KCAL/MOL
REMARK 924 INTRA-LIGAND FREE ENERGY PREDICTED BY IDOCK:   -0.00 KCAL/MOL
REMARK 927      BINDING AFFINITY PREDICTED BY RF-SCORE:    0.00 PKD
ROOT
HETATM    1  O   UNL     1     -11.458   6.479  67.662  1.00  0.00    -0.694 OA 
HETATM    2  C   UNL     1     -11.153   6.057  68.988  1.00  0.00    -0.307 C  
HETATM    3  H   UNL     1     -11.759   5.752  67.130  1.00  0.00     0.000 HD 
ENDROOT
BRANCH   2   4
HETATM    4  C   UNL     1     -10.667   7.236  69.850  1.00  0.00    -0.242 C  
HETATM    5  S   UNL     1     -10.033   8.560  68.741  1.00  0.00    -0.191 SA 
HETATM    6  H   UNL     1      -9.594   9.624  69.520  1.00  0.00     0.000 H  
BRANCH   4   7
HETATM    7  C   UNL     1     -11.792   7.732  70.773  1.00  0.00    -0.187 C  
HETATM    8  S   UNL     1     -11.463   9.342  71.569  1.00  0.00    -0.398 SA 
HETATM    9  H   UNL     1     -12.479   9.791  72.404  1.00  0.00     0.000 H  
ENDBRANCH   4   7
ENDBRANCH   2   4
TORSDOF 2
ENDMDL
MODEL       95
REMARK 921   NORMALIZED FREE ENERGY PREDICTED BY IDOCK:   -1.79 KCAL/MOL
REMARK 922        TOTAL FREE ENERGY PREDICTED BY IDOCK:   -2.01 KCAL/MOL
REMARK 923 INTER-LIGAND FREE ENERGY PREDICTED BY IDOCK:   -2.01 KCAL/MOL
REMARK 924 INTRA-LIGAND FREE ENERGY PREDICTED BY IDOCK:   -0.00 KCAL/MOL
REMARK 927      BINDING AFFINITY PREDICTED BY RF-SCORE:    0.00 PKD
ROOT
HETATM    1  O   UNL     1     -10.225  14.117  69.559  1.00  0.00    -0.429 OA 
HETATM    2  C   UNL     1      -9.671  14.105  68.247  1.00  0.00    -0.227 C  
HETATM    3  H   UNL     1      -9.762  13.520  70.134  1.00  0.00     0.000 HD 
ENDROOT
BRANCH   2   4
HETATM    4  C   UNL     1     -10.422  15.072  67.315  1.00  0.00    -0.265 C  
HETATM    5  S   UNL     1      -9.210  15.864  66.181  1.00  0.00    -0.346 SA 
HETATM    6  H   UNL     1      -9.888  16.737  65.339  1.00  0.00     0.000 H  
BRANCH   4   7
HETATM    7  C   UNL     1     -11.541  14.338  66.560  1.00  0.00    -0.378 C  
HETATM    8  S   UNL     1     -11.023  13.596  64.974  1.00  0.00    -0.367 SA 
HETATM    9  H   UNL     1     -12.035  12.932  64.290  1.00  0.00     0.000 H  
ENDBRANCH   4   7
ENDBRANCH   2   4
TORSDOF 2
ENDMDL
MODEL       96
REMARK 921   NORMALIZED FREE ENERGY PREDICTED BY IDOCK:   -1.79 KCAL/MOL
REMARK 922        TOTAL FREE ENERGY PREDICTED BY IDOCK:   -2.01 KCAL/MOL
REMARK 923 INTER-LIGAND FREE ENERGY PREDICTED BY IDOCK:   -2.01 KCAL/MOL
REMARK 924 INTRA-LIGAND FREE ENERGY PREDICTED BY IDOCK:   -0.00 KCAL/MOL
REMARK 927      BINDING AFFINITY PREDICTED BY RF-SCORE:    0.00 PKD
ROOT
HETATM    1  O   UNL     1     -11.268   5.716  66.102  1.00  0.00    -0.763 OA 
HETATM    2  C   UNL     1     -10.976   6.629  67.156  1.00  0.00    -0.408 C  
HETATM    3  H   UNL     1     -11.338   6.164  65.268  1.00  0.00     0.000 HD 
ENDROOT
BRANCH   2   4
HETATM    4  C   UNL     1     -10.862   5.902  68.508  1.00  0.00    -0.248 C  
HETATM    5  S   UNL     1      -9.139   5.293  68.711  1.00  0.00    -0.115 SA 
HETATM    6  H   UNL     1      -9.036   4.637  69.932  1.00  0.00     0.000 H  
BRANCH   4   7
HETATM    7  C   UNL     1     -11.298   6.825  69.658  1.00  0.00    -0.272 C  
HETATM    8  S   UNL     1     -10.220   8.275  69.914  1.00  0.00    -0.205 SA 
HETATM    9  H   UNL     1     -10.613   9.109  70.955  1.00  0.00     0.000 H  
ENDBRANCH   4   7
ENDBRANCH   2   4
TORSDOF 2
ENDMDL
MODEL       97
REMARK 921   NORMALIZED FREE ENERGY PREDICTED BY IDOCK:   -1.79 KCAL/MOL
REMARK 922        TOTAL FREE ENERGY PREDICTED BY IDOCK:   -2.01 KCAL/MOL
REMARK 923 INTER-LIGAND FREE ENERGY PREDICTED BY IDOCK:   -1.98 KCAL/MOL
REMARK 924 INTRA-LIGAND FREE ENERGY PREDICTED BY IDOCK:   -0.03 KCAL/MOL
REMARK 927      BINDING AFFINITY PREDICTED BY RF-SCORE:    0.00 PKD
ROOT
HETATM    1  O   UNL     1      -7.668  16.808  67.492  1.00  0.00    -0.160 OA 
HETATM    2  C   UNL     1      -8.694  17.283  68.358  1.00  0.00    -0.261 C  
HETATM    3  H   UNL     1      -6.826  16.792  67.932  1.00  0.00     0.000 HD 
ENDROOT
BRANCH   2   4
HETATM    4  C   UNL     1     -10.058  17.309  67.644  1.00  0.00    -0.313 C  
HETATM    5  S   UNL     1     -11.198  16.149  68.502  1.00  0.00    -0.344 SA 
HETATM    6  H   UNL     1     -12.429  16.172  67.859  1.00  0.00     0.000 H  
BRANCH   4   7
HETATM    7  C   UNL     1     -10.612  18.741  67.586  1.00  0.00    -0.419 C  
HETATM    8  S   UNL     1     -10.048  19.713  66.146  1.00  0.00    -0.485 SA 
HETATM    9  H   UNL     1     -10.549  21.009  66.094  1.00  0.00     0.000 H  
ENDBRANCH   4   7
ENDBRANCH   2   4
TORSDOF 2
ENDMDL
MODEL       98
REMARK 921   NORMALIZED FREE ENERGY PREDICTED BY IDOCK:   -1.78 KCAL/MOL
REMARK 922        TOTAL FREE ENERGY PREDICTED BY IDOCK:   -2.00 KCAL/MOL
REMARK 923 INTER-LIGAND FREE ENERGY PREDICTED BY IDOCK:   -2.00 KCAL/MOL
REMARK 924 INTRA-LIGAND FREE ENERGY PREDICTED BY IDOCK:   -0.01 KCAL/MOL
REMARK 927      BINDING AFFINITY PREDICTED BY RF-SCORE:    0.00 PKD
ROOT
HETATM    1  O   UNL     1     -12.226  14.373  64.579  1.00  0.00    -0.456 OA 
HETATM    2  C   UNL     1     -11.406  13.228  64.790  1.00  0.00    -0.327 C  
HETATM    3  H   UNL     1     -12.721  14.299  63.772  1.00  0.00     0.000 HD 
ENDROOT
BRANCH   2   4
HETATM    4  C   UNL     1     -10.604  13.349  66.098  1.00  0.00    -0.292 C  
HETATM    5  S   UNL     1     -11.776  13.355  67.515  1.00  0.00    -0.371 SA 
HETATM    6  H   UNL     1     -11.052  13.464  68.695  1.00  0.00     0.000 H  
BRANCH   4   7
HETATM    7  C   UNL     1      -9.563  12.223  66.201  1.00  0.00    -0.240 C  
HETATM    8  S   UNL     1     -10.010  10.695  65.307  1.00  0.00    -0.310 SA 
HETATM    9  H   UNL     1      -9.069   9.676  65.402  1.00  0.00     0.000 H  
ENDBRANCH   4   7
ENDBRANCH   2   4
TORSDOF 2
ENDMDL
MODEL       99
REMARK 921   NORMALIZED FREE ENERGY PREDICTED BY IDOCK:   -1.78 KCAL/MOL
REMARK 922        TOTAL FREE ENERGY PREDICTED BY IDOCK:   -2.00 KCAL/MOL
REMARK 923 INTER-LIGAND FREE ENERGY PREDICTED BY IDOCK:   -2.00 KCAL/MOL
REMARK 924 INTRA-LIGAND FREE ENERGY PREDICTED BY IDOCK:   -0.00 KCAL/MOL
REMARK 927      BINDING AFFINITY PREDICTED BY RF-SCORE:    0.00 PKD
ROOT
HETATM    1  O   UNL     1      -9.531  12.147  68.754  1.00  0.00    -0.388 OA 
HETATM    2  C   UNL     1     -10.643  12.993  68.478  1.00  0.00    -0.258 C  
HETATM    3  H   UNL     1      -9.565  11.813  69.642  1.00  0.00     0.000 HD 
ENDROOT
BRANCH   2   4
HETATM    4  C   UNL     1     -10.588  13.533  67.037  1.00  0.00    -0.269 C  
HETATM    5  S   UNL     1     -11.888  12.696  66.040  1.00  0.00    -0.422 SA 
HETATM    6  H   UNL     1     -11.839  13.184  64.740  1.00  0.00     0.000 H  
BRANCH   4   7
HETATM    7  C   UNL     1     -10.733  15.063  67.026  1.00  0.00    -0.304 C  
HETATM    8  S   UNL     1      -9.396  15.944  66.149  1.00  0.00    -0.359 SA 
HETATM    9  H   UNL     1      -9.527  17.328  66.140  1.00  0.00     0.000 H  
ENDBRANCH   4   7
ENDBRANCH   2   4
TORSDOF 2
ENDMDL
MODEL      100
REMARK 921   NORMALIZED FREE ENERGY PREDICTED BY IDOCK:   -1.78 KCAL/MOL
REMARK 922        TOTAL FREE ENERGY PREDICTED BY IDOCK:   -2.00 KCAL/MOL
REMARK 923 INTER-LIGAND FREE ENERGY PREDICTED BY IDOCK:   -1.98 KCAL/MOL
REMARK 924 INTRA-LIGAND FREE ENERGY PREDICTED BY IDOCK:   -0.02 KCAL/MOL
REMARK 927      BINDING AFFINITY PREDICTED BY RF-SCORE:    0.00 PKD
ROOT
HETATM    1  O   UNL     1      -9.585  14.969  69.610  1.00  0.00    -0.410 OA 
HETATM    2  C   UNL     1      -9.809  14.018  68.574  1.00  0.00    -0.225 C  
HETATM    3  H   UNL     1      -8.825  15.507  69.424  1.00  0.00     0.000 HD 
ENDROOT
BRANCH   2   4
HETATM    4  C   UNL     1     -11.042  13.146  68.875  1.00  0.00    -0.266 C  
HETATM    5  S   UNL     1     -12.135  14.048  70.047  1.00  0.00    -0.361 SA 
HETATM    6  H   UNL     1     -13.248  13.261  70.318  1.00  0.00     0.000 H  
BRANCH   4   7
HETATM    7  C   UNL     1     -11.765  12.762  67.574  1.00  0.00    -0.364 C  
HETATM    8  S   UNL     1     -12.267  14.181  66.540  1.00  0.00    -0.356 SA 
HETATM    9  H   UNL     1     -12.921  13.834  65.364  1.00  0.00     0.000 H  
ENDBRANCH   4   7
ENDBRANCH   2   4
TORSDOF 2
ENDMDL
MODEL      101
REMARK 921   NORMALIZED FREE ENERGY PREDICTED BY IDOCK:   -1.78 KCAL/MOL
REMARK 922        TOTAL FREE ENERGY PREDICTED BY IDOCK:   -2.00 KCAL/MOL
REMARK 923 INTER-LIGAND FREE ENERGY PREDICTED BY IDOCK:   -1.99 KCAL/MOL
REMARK 924 INTRA-LIGAND FREE ENERGY PREDICTED BY IDOCK:   -0.01 KCAL/MOL
REMARK 927      BINDING AFFINITY PREDICTED BY RF-SCORE:    0.00 PKD
ROOT
HETATM    1  O   UNL     1      -9.849   9.069  65.599  1.00  0.00    -0.461 OA 
HETATM    2  C   UNL     1     -10.158  10.398  65.189  1.00  0.00    -0.308 C  
HETATM    3  H   UNL     1      -9.639   8.519  64.854  1.00  0.00     0.000 HD 
ENDROOT
BRANCH   2   4
HETATM    4  C   UNL     1     -10.499  11.289  66.397  1.00  0.00    -0.257 C  
HETATM    5  S   UNL     1     -11.721  12.559  65.871  1.00  0.00    -0.425 SA 
HETATM    6  H   UNL     1     -12.029  13.363  66.961  1.00  0.00     0.000 H  
BRANCH   4   7
HETATM    7  C   UNL     1     -11.004  10.438  67.573  1.00  0.00    -0.295 C  
HETATM    8  S   UNL     1     -10.956  11.281  69.192  1.00  0.00    -0.241 SA 
HETATM    9  H   UNL     1     -11.413  10.512  70.256  1.00  0.00     0.000 H  
ENDBRANCH   4   7
ENDBRANCH   2   4
TORSDOF 2
ENDMDL
MODEL      102
REMARK 921   NORMALIZED FREE ENERGY PREDICTED BY IDOCK:   -1.77 KCAL/MOL
REMARK 922        TOTAL FREE ENERGY PREDICTED BY IDOCK:   -1.99 KCAL/MOL
REMARK 923 INTER-LIGAND FREE ENERGY PREDICTED BY IDOCK:   -1.99 KCAL/MOL
REMARK 924 INTRA-LIGAND FREE ENERGY PREDICTED BY IDOCK:   -0.00 KCAL/MOL
REMARK 927      BINDING AFFINITY PREDICTED BY RF-SCORE:    0.00 PKD
ROOT
HETATM    1  O   UNL     1     -10.945   9.375  67.939  1.00  0.00    -0.471 OA 
HETATM    2  C   UNL     1     -11.155  10.736  68.300  1.00  0.00    -0.271 C  
HETATM    3  H   UNL     1     -11.318   8.786  68.584  1.00  0.00     0.000 HD 
ENDROOT
BRANCH   2   4
HETATM    4  C   UNL     1     -10.550  11.690  67.254  1.00  0.00    -0.228 C  
HETATM    5  S   UNL     1      -9.230  10.800  66.333  1.00  0.00    -0.175 SA 
HETATM    6  H   UNL     1      -8.684  11.661  65.389  1.00  0.00     0.000 H  
BRANCH   4   7
HETATM    7  C   UNL     1     -11.644  12.241  66.326  1.00  0.00    -0.385 C  
HETATM    8  S   UNL     1     -11.995  14.020  66.541  1.00  0.00    -0.457 SA 
HETATM    9  H   UNL     1     -12.985  14.518  65.702  1.00  0.00     0.000 H  
ENDBRANCH   4   7
ENDBRANCH   2   4
TORSDOF 2
ENDMDL
MODEL      103
REMARK 921   NORMALIZED FREE ENERGY PREDICTED BY IDOCK:   -1.77 KCAL/MOL
REMARK 922        TOTAL FREE ENERGY PREDICTED BY IDOCK:   -1.98 KCAL/MOL
REMARK 923 INTER-LIGAND FREE ENERGY PREDICTED BY IDOCK:   -1.95 KCAL/MOL
REMARK 924 INTRA-LIGAND FREE ENERGY PREDICTED BY IDOCK:   -0.04 KCAL/MOL
REMARK 927      BINDING AFFINITY PREDICTED BY RF-SCORE:    0.00 PKD
ROOT
HETATM    1  O   UNL     1      -7.296  17.486  66.800  1.00  0.00    -0.181 OA 
HETATM    2  C   UNL     1      -7.848  17.538  68.112  1.00  0.00    -0.244 C  
HETATM    3  H   UNL     1      -7.136  16.590  66.530  1.00  0.00     0.000 HD 
ENDROOT
BRANCH   2   4
HETATM    4  C   UNL     1      -8.109  18.990  68.551  1.00  0.00    -0.350 C  
HETATM    5  S   UNL     1      -6.547  19.699  69.215  1.00  0.00    -0.354 SA 
HETATM    6  H   UNL     1      -6.782  21.010  69.610  1.00  0.00     0.000 H  
BRANCH   4   7
HETATM    7  C   UNL     1      -8.678  19.814  67.384  1.00  0.00    -0.326 C  
HETATM    8  S   UNL     1     -10.445  19.514  67.037  1.00  0.00    -0.494 SA 
HETATM    9  H   UNL     1     -10.959  20.259  65.982  1.00  0.00     0.000 H  
ENDBRANCH   4   7
ENDBRANCH   2   4
TORSDOF 2
ENDMDL
MODEL      104
REMARK 921   NORMALIZED FREE ENERGY PREDICTED BY IDOCK:   -1.77 KCAL/MOL
REMARK 922        TOTAL FREE ENERGY PREDICTED BY IDOCK:   -1.98 KCAL/MOL
REMARK 923 INTER-LIGAND FREE ENERGY PREDICTED BY IDOCK:   -1.98 KCAL/MOL
REMARK 924 INTRA-LIGAND FREE ENERGY PREDICTED BY IDOCK:   -0.01 KCAL/MOL
REMARK 927      BINDING AFFINITY PREDICTED BY RF-SCORE:    0.00 PKD
ROOT
HETATM    1  O   UNL     1      -9.170   8.843  72.278  1.00  0.00    -0.376 OA 
HETATM    2  C   UNL     1     -10.438   8.249  72.538  1.00  0.00    -0.336 C  
HETATM    3  H   UNL     1      -8.625   8.845  73.056  1.00  0.00     0.000 HD 
ENDROOT
BRANCH   2   4
HETATM    4  C   UNL     1     -11.321   8.245  71.277  1.00  0.00    -0.267 C  
HETATM    5  S   UNL     1     -12.180   9.866  71.149  1.00  0.00    -0.401 SA 
HETATM    6  H   UNL     1     -12.977   9.862  70.011  1.00  0.00     0.000 H  
BRANCH   4   7
HETATM    7  C   UNL     1     -10.482   7.925  70.029  1.00  0.00    -0.231 C  
HETATM    8  S   UNL     1     -10.976   6.400  69.155  1.00  0.00    -0.366 SA 
HETATM    9  H   UNL     1     -10.217   6.110  68.027  1.00  0.00     0.000 H  
ENDBRANCH   4   7
ENDBRANCH   2   4
TORSDOF 2
ENDMDL
MODEL      105
REMARK 921   NORMALIZED FREE ENERGY PREDICTED BY IDOCK:   -1.77 KCAL/MOL
REMARK 922        TOTAL FREE ENERGY PREDICTED BY IDOCK:   -1.98 KCAL/MOL
REMARK 923 INTER-LIGAND FREE ENERGY PREDICTED BY IDOCK:   -1.97 KCAL/MOL
REMARK 924 INTRA-LIGAND FREE ENERGY PREDICTED BY IDOCK:   -0.02 KCAL/MOL
REMARK 927      BINDING AFFINITY PREDICTED BY RF-SCORE:    0.00 PKD
ROOT
HETATM    1  O   UNL     1      -9.372  11.088  65.202  1.00  0.00    -0.210 OA 
HETATM    2  C   UNL     1     -10.419  11.463  66.091  1.00  0.00    -0.255 C  
HETATM    3  H   UNL     1      -9.118  10.182  65.331  1.00  0.00     0.000 HD 
ENDROOT
BRANCH   2   4
HETATM    4  C   UNL     1     -10.830  12.931  65.881  1.00  0.00    -0.272 C  
HETATM    5  S   UNL     1      -9.619  14.015  66.741  1.00  0.00    -0.295 SA 
HETATM    6  H   UNL     1      -9.990  15.341  66.551  1.00  0.00     0.000 H  
BRANCH   4   7
HETATM    7  C   UNL     1     -10.946  13.253  64.382  1.00  0.00    -0.393 C  
HETATM    8  S   UNL     1     -12.245  12.317  63.505  1.00  0.00    -0.544 SA 
HETATM    9  H   UNL     1     -12.349  12.607  62.150  1.00  0.00     0.000 H  
ENDBRANCH   4   7
ENDBRANCH   2   4
TORSDOF 2
ENDMDL
MODEL      106
REMARK 921   NORMALIZED FREE ENERGY PREDICTED BY IDOCK:   -1.76 KCAL/MOL
REMARK 922        TOTAL FREE ENERGY PREDICTED BY IDOCK:   -1.98 KCAL/MOL
REMARK 923 INTER-LIGAND FREE ENERGY PREDICTED BY IDOCK:   -1.97 KCAL/MOL
REMARK 924 INTRA-LIGAND FREE ENERGY PREDICTED BY IDOCK:   -0.00 KCAL/MOL
REMARK 927      BINDING AFFINITY PREDICTED BY RF-SCORE:    0.00 PKD
ROOT
HETATM    1  O   UNL     1      -8.913  12.909  68.712  1.00  0.00    -0.386 OA 
HETATM    2  C   UNL     1     -10.136  13.487  68.266  1.00  0.00    -0.247 C  
HETATM    3  H   UNL     1      -8.600  12.252  68.103  1.00  0.00     0.000 HD 
ENDROOT
BRANCH   2   4
HETATM    4  C   UNL     1     -10.644  14.552  69.254  1.00  0.00    -0.212 C  
HETATM    5  S   UNL     1     -10.553  16.202  68.446  1.00  0.00    -0.301 SA 
HETATM    6  H   UNL     1     -11.012  17.163  69.338  1.00  0.00     0.000 H  
BRANCH   4   7
HETATM    7  C   UNL     1     -12.063  14.211  69.736  1.00  0.00    -0.354 C  
HETATM    8  S   UNL     1     -12.753  15.387  70.950  1.00  0.00    -0.474 SA 
HETATM    9  H   UNL     1     -14.036  15.079  71.387  1.00  0.00     0.000 H  
ENDBRANCH   4   7
ENDBRANCH   2   4
TORSDOF 2
ENDMDL
MODEL      107
REMARK 921   NORMALIZED FREE ENERGY PREDICTED BY IDOCK:   -1.74 KCAL/MOL
REMARK 922        TOTAL FREE ENERGY PREDICTED BY IDOCK:   -1.96 KCAL/MOL
REMARK 923 INTER-LIGAND FREE ENERGY PREDICTED BY IDOCK:   -1.93 KCAL/MOL
REMARK 924 INTRA-LIGAND FREE ENERGY PREDICTED BY IDOCK:   -0.03 KCAL/MOL
REMARK 927      BINDING AFFINITY PREDICTED BY RF-SCORE:    0.00 PKD
ROOT
HETATM    1  O   UNL     1     -11.650   9.410  71.360  1.00  0.00    -0.323 OA 
HETATM    2  C   UNL     1     -10.388   8.910  71.792  1.00  0.00    -0.356 C  
HETATM    3  H   UNL     1     -11.667  10.360  71.373  1.00  0.00     0.000 HD 
ENDROOT
BRANCH   2   4
HETATM    4  C   UNL     1     -10.362   7.371  71.771  1.00  0.00    -0.192 C  
HETATM    5  S   UNL     1     -10.445   6.752  73.501  1.00  0.00    -0.341 SA 
HETATM    6  H   UNL     1     -10.421   5.363  73.481  1.00  0.00     0.000 H  
BRANCH   4   7
HETATM    7  C   UNL     1     -11.499   6.822  70.895  1.00  0.00    -0.334 C  
HETATM    8  S   UNL     1     -10.961   6.163  69.280  1.00  0.00    -0.382 SA 
HETATM    9  H   UNL     1     -11.990   5.667  68.488  1.00  0.00     0.000 H  
ENDBRANCH   4   7
ENDBRANCH   2   4
TORSDOF 2
ENDMDL
MODEL      108
REMARK 921   NORMALIZED FREE ENERGY PREDICTED BY IDOCK:   -1.74 KCAL/MOL
REMARK 922        TOTAL FREE ENERGY PREDICTED BY IDOCK:   -1.96 KCAL/MOL
REMARK 923 INTER-LIGAND FREE ENERGY PREDICTED BY IDOCK:   -1.95 KCAL/MOL
REMARK 924 INTRA-LIGAND FREE ENERGY PREDICTED BY IDOCK:   -0.01 KCAL/MOL
REMARK 927      BINDING AFFINITY PREDICTED BY RF-SCORE:    0.00 PKD
ROOT
HETATM    1  O   UNL     1     -11.814  10.111  68.312  1.00  0.00    -0.697 OA 
HETATM    2  C   UNL     1     -10.695  10.398  69.144  1.00  0.00    -0.234 C  
HETATM    3  H   UNL     1     -11.822  10.667  67.542  1.00  0.00     0.000 HD 
ENDROOT
BRANCH   2   4
HETATM    4  C   UNL     1     -10.683   9.497  70.392  1.00  0.00    -0.284 C  
HETATM    5  S   UNL     1     -12.323   9.604  71.217  1.00  0.00    -0.382 SA 
HETATM    6  H   UNL     1     -12.313   8.790  72.343  1.00  0.00     0.000 H  
BRANCH   4   7
HETATM    7  C   UNL     1     -10.308   8.054  70.016  1.00  0.00    -0.218 C  
HETATM    8  S   UNL     1      -8.518   7.767  69.806  1.00  0.00    -0.134 SA 
HETATM    9  H   UNL     1      -8.179   6.463  69.465  1.00  0.00     0.000 H  
ENDBRANCH   4   7
ENDBRANCH   2   4
TORSDOF 2
ENDMDL
MODEL      109
REMARK 921   NORMALIZED FREE ENERGY PREDICTED BY IDOCK:   -1.74 KCAL/MOL
REMARK 922        TOTAL FREE ENERGY PREDICTED BY IDOCK:   -1.96 KCAL/MOL
REMARK 923 INTER-LIGAND FREE ENERGY PREDICTED BY IDOCK:   -1.93 KCAL/MOL
REMARK 924 INTRA-LIGAND FREE ENERGY PREDICTED BY IDOCK:   -0.02 KCAL/MOL
REMARK 927      BINDING AFFINITY PREDICTED BY RF-SCORE:    0.00 PKD
ROOT
HETATM    1  O   UNL     1      -7.754  19.053  65.513  1.00  0.00    -0.436 OA 
HETATM    2  C   UNL     1      -7.708  18.947  66.932  1.00  0.00    -0.239 C  
HETATM    3  H   UNL     1      -7.373  19.871  65.216  1.00  0.00     0.000 HD 
ENDROOT
BRANCH   2   4
HETATM    4  C   UNL     1      -8.326  17.621  67.412  1.00  0.00    -0.210 C  
HETATM    5  S   UNL     1      -9.833  17.992  68.400  1.00  0.00    -0.384 SA 
HETATM    6  H   UNL     1     -10.391  16.795  68.833  1.00  0.00     0.000 H  
BRANCH   4   7
HETATM    7  C   UNL     1      -8.620  16.697  66.219  1.00  0.00    -0.324 C  
HETATM    8  S   UNL     1     -10.314  16.018  66.186  1.00  0.00    -0.340 SA 
HETATM    9  H   UNL     1     -10.579  15.182  65.108  1.00  0.00     0.000 H  
ENDBRANCH   4   7
ENDBRANCH   2   4
TORSDOF 2
ENDMDL
MODEL      110
REMARK 921   NORMALIZED FREE ENERGY PREDICTED BY IDOCK:   -1.74 KCAL/MOL
REMARK 922        TOTAL FREE ENERGY PREDICTED BY IDOCK:   -1.96 KCAL/MOL
REMARK 923 INTER-LIGAND FREE ENERGY PREDICTED BY IDOCK:   -1.93 KCAL/MOL
REMARK 924 INTRA-LIGAND FREE ENERGY PREDICTED BY IDOCK:   -0.03 KCAL/MOL
REMARK 927      BINDING AFFINITY PREDICTED BY RF-SCORE:    0.00 PKD
ROOT
HETATM    1  O   UNL     1      -9.306  14.988  70.054  1.00  0.00    -0.455 OA 
HETATM    2  C   UNL     1      -9.150  15.536  68.749  1.00  0.00    -0.207 C  
HETATM    3  H   UNL     1      -8.469  14.726  70.419  1.00  0.00     0.000 HD 
ENDROOT
BRANCH   2   4
HETATM    4  C   UNL     1     -10.506  15.962  68.157  1.00  0.00    -0.270 C  
HETATM    5  S   UNL     1     -11.852  15.276  69.206  1.00  0.00    -0.315 SA 
HETATM    6  H   UNL     1     -13.076  15.661  68.673  1.00  0.00     0.000 H  
BRANCH   4   7
HETATM    7  C   UNL     1     -10.584  17.491  68.026  1.00  0.00    -0.384 C  
HETATM    8  S   UNL     1      -8.964  18.334  68.014  1.00  0.00    -0.297 SA 
HETATM    9  H   UNL     1      -9.035  19.717  67.896  1.00  0.00     0.000 H  
ENDBRANCH   4   7
ENDBRANCH   2   4
TORSDOF 2
ENDMDL
MODEL      111
REMARK 921   NORMALIZED FREE ENERGY PREDICTED BY IDOCK:   -1.72 KCAL/MOL
REMARK 922        TOTAL FREE ENERGY PREDICTED BY IDOCK:   -1.93 KCAL/MOL
REMARK 923 INTER-LIGAND FREE ENERGY PREDICTED BY IDOCK:   -1.92 KCAL/MOL
REMARK 924 INTRA-LIGAND FREE ENERGY PREDICTED BY IDOCK:   -0.01 KCAL/MOL
REMARK 927      BINDING AFFINITY PREDICTED BY RF-SCORE:    0.00 PKD
ROOT
HETATM    1  O   UNL     1      -9.889  19.561  65.645  1.00  0.00    -0.380 OA 
HETATM    2  C   UNL     1      -8.653  19.451  66.343  1.00  0.00    -0.354 C  
HETATM    3  H   UNL     1      -9.884  20.301  65.050  1.00  0.00     0.000 HD 
ENDROOT
BRANCH   2   4
HETATM    4  C   UNL     1      -8.662  18.252  67.308  1.00  0.00    -0.255 C  
HETATM    5  S   UNL     1      -7.897  16.807  66.464  1.00  0.00    -0.325 SA 
HETATM    6  H   UNL     1      -7.905  15.724  67.335  1.00  0.00     0.000 H  
BRANCH   4   7
HETATM    7  C   UNL     1      -7.950  18.608  68.622  1.00  0.00    -0.327 C  
HETATM    8  S   UNL     1      -6.556  19.773  68.437  1.00  0.00    -0.283 SA 
HETATM    9  H   UNL     1      -5.912  20.095  69.626  1.00  0.00     0.000 H  
ENDBRANCH   4   7
ENDBRANCH   2   4
TORSDOF 2
ENDMDL
MODEL      112
REMARK 921   NORMALIZED FREE ENERGY PREDICTED BY IDOCK:   -1.71 KCAL/MOL
REMARK 922        TOTAL FREE ENERGY PREDICTED BY IDOCK:   -1.93 KCAL/MOL
REMARK 923 INTER-LIGAND FREE ENERGY PREDICTED BY IDOCK:   -1.92 KCAL/MOL
REMARK 924 INTRA-LIGAND FREE ENERGY PREDICTED BY IDOCK:   -0.00 KCAL/MOL
REMARK 927      BINDING AFFINITY PREDICTED BY RF-SCORE:    0.00 PKD
ROOT
HETATM    1  O   UNL     1     -11.513   4.515  65.119  1.00  0.00    -1.105 OA 
HETATM    2  C   UNL     1     -10.651   4.882  66.191  1.00  0.00    -0.271 C  
HETATM    3  H   UNL     1     -12.424   4.658  65.345  1.00  0.00     0.000 HD 
ENDROOT
BRANCH   2   4
HETATM    4  C   UNL     1      -9.174   4.650  65.824  1.00  0.00    -0.147 C  
HETATM    5  S   UNL     1      -9.096   3.660  64.276  1.00  0.00    -0.136 SA 
HETATM    6  H   UNL     1      -7.763   3.452  63.944  1.00  0.00     0.000 H  
BRANCH   4   7
HETATM    7  C   UNL     1      -8.429   5.990  65.703  1.00  0.00    -0.151 C  
HETATM    8  S   UNL     1      -8.000   6.764  67.299  1.00  0.00    -0.115 SA 
HETATM    9  H   UNL     1      -7.327   7.976  67.190  1.00  0.00     0.000 H  
ENDBRANCH   4   7
ENDBRANCH   2   4
TORSDOF 2
ENDMDL
MODEL      113
REMARK 921   NORMALIZED FREE ENERGY PREDICTED BY IDOCK:   -1.71 KCAL/MOL
REMARK 922        TOTAL FREE ENERGY PREDICTED BY IDOCK:   -1.92 KCAL/MOL
REMARK 923 INTER-LIGAND FREE ENERGY PREDICTED BY IDOCK:   -1.92 KCAL/MOL
REMARK 924 INTRA-LIGAND FREE ENERGY PREDICTED BY IDOCK:   -0.01 KCAL/MOL
REMARK 927      BINDING AFFINITY PREDICTED BY RF-SCORE:    0.00 PKD
ROOT
HETATM    1  O   UNL     1     -12.489  10.867  68.661  1.00  0.00    -0.772 OA 
HETATM    2  C   UNL     1     -11.324  10.830  69.479  1.00  0.00    -0.289 C  
HETATM    3  H   UNL     1     -13.175  11.387  69.061  1.00  0.00     0.000 HD 
ENDROOT
BRANCH   2   4
HETATM    4  C   UNL     1     -10.212   9.987  68.829  1.00  0.00    -0.186 C  
HETATM    5  S   UNL     1     -10.003   8.435  69.794  1.00  0.00    -0.195 SA 
HETATM    6  H   UNL     1      -9.000   7.674  69.207  1.00  0.00     0.000 H  
BRANCH   4   7
HETATM    7  C   UNL     1     -10.529   9.721  67.349  1.00  0.00    -0.259 C  
HETATM    8  S   UNL     1      -9.358   8.595  66.515  1.00  0.00    -0.218 SA 
HETATM    9  H   UNL     1      -9.644   8.354  65.176  1.00  0.00     0.000 H  
ENDBRANCH   4   7
ENDBRANCH   2   4
TORSDOF 2
ENDMDL
MODEL      114
REMARK 921   NORMALIZED FREE ENERGY PREDICTED BY IDOCK:   -1.71 KCAL/MOL
REMARK 922        TOTAL FREE ENERGY PREDICTED BY IDOCK:   -1.92 KCAL/MOL
REMARK 923 INTER-LIGAND FREE ENERGY PREDICTED BY IDOCK:   -1.90 KCAL/MOL
REMARK 924 INTRA-LIGAND FREE ENERGY PREDICTED BY IDOCK:   -0.02 KCAL/MOL
REMARK 927      BINDING AFFINITY PREDICTED BY RF-SCORE:    0.00 PKD
ROOT
HETATM    1  O   UNL     1     -11.746   6.648  69.025  1.00  0.00    -0.608 OA 
HETATM    2  C   UNL     1     -10.888   6.889  70.135  1.00  0.00    -0.263 C  
HETATM    3  H   UNL     1     -11.785   7.402  68.450  1.00  0.00     0.000 HD 
ENDROOT
BRANCH   2   4
HETATM    4  C   UNL     1     -10.824   5.666  71.067  1.00  0.00    -0.219 C  
HETATM    5  S   UNL     1      -9.143   4.926  70.960  1.00  0.00    -0.145 SA 
HETATM    6  H   UNL     1      -9.085   3.822  71.802  1.00  0.00     0.000 H  
BRANCH   4   7
HETATM    7  C   UNL     1     -11.202   6.059  72.504  1.00  0.00    -0.290 C  
HETATM    8  S   UNL     1     -10.995   7.832  72.883  1.00  0.00    -0.376 SA 
HETATM    9  H   UNL     1     -11.336   8.188  74.183  1.00  0.00     0.000 H  
ENDBRANCH   4   7
ENDBRANCH   2   4
TORSDOF 2
ENDMDL
MODEL      115
REMARK 921   NORMALIZED FREE ENERGY PREDICTED BY IDOCK:   -1.69 KCAL/MOL
REMARK 922        TOTAL FREE ENERGY PREDICTED BY IDOCK:   -1.90 KCAL/MOL
REMARK 923 INTER-LIGAND FREE ENERGY PREDICTED BY IDOCK:   -1.87 KCAL/MOL
REMARK 924 INTRA-LIGAND FREE ENERGY PREDICTED BY IDOCK:   -0.03 KCAL/MOL
REMARK 927      BINDING AFFINITY PREDICTED BY RF-SCORE:    0.00 PKD
ROOT
HETATM    1  O   UNL     1     -10.614   9.293  69.127  1.00  0.00    -0.218 OA 
HETATM    2  C   UNL     1     -10.909   9.895  70.384  1.00  0.00    -0.319 C  
HETATM    3  H   UNL     1      -9.757   8.885  69.133  1.00  0.00     0.000 HD 
ENDROOT
BRANCH   2   4
HETATM    4  C   UNL     1     -12.299  10.555  70.374  1.00  0.00    -0.324 C  
HETATM    5  S   UNL     1     -13.306   9.839  71.736  1.00  0.00    -0.404 SA 
HETATM    6  H   UNL     1     -14.561  10.435  71.727  1.00  0.00     0.000 H  
BRANCH   4   7
HETATM    7  C   UNL     1     -12.174  12.084  70.478  1.00  0.00    -0.325 C  
HETATM    8  S   UNL     1     -11.854  12.927  68.890  1.00  0.00    -0.280 SA 
HETATM    9  H   UNL     1     -11.740  14.309  68.984  1.00  0.00     0.000 H  
ENDBRANCH   4   7
ENDBRANCH   2   4
TORSDOF 2
ENDMDL
MODEL      116
REMARK 921   NORMALIZED FREE ENERGY PREDICTED BY IDOCK:   -1.68 KCAL/MOL
REMARK 922        TOTAL FREE ENERGY PREDICTED BY IDOCK:   -1.89 KCAL/MOL
REMARK 923 INTER-LIGAND FREE ENERGY PREDICTED BY IDOCK:   -1.89 KCAL/MOL
REMARK 924 INTRA-LIGAND FREE ENERGY PREDICTED BY IDOCK:   -0.00 KCAL/MOL
REMARK 927      BINDING AFFINITY PREDICTED BY RF-SCORE:    0.00 PKD
ROOT
HETATM    1  O   UNL     1     -12.183  12.289  66.031  1.00  0.00    -0.646 OA 
HETATM    2  C   UNL     1     -10.920  11.776  65.621  1.00  0.00    -0.295 C  
HETATM    3  H   UNL     1     -12.584  12.807  65.344  1.00  0.00     0.000 HD 
ENDROOT
BRANCH   2   4
HETATM    4  C   UNL     1     -10.270  10.936  66.735  1.00  0.00    -0.231 C  
HETATM    5  S   UNL     1     -11.343  10.999  68.227  1.00  0.00    -0.306 SA 
HETATM    6  H   UNL     1     -10.757  10.241  69.233  1.00  0.00     0.000 H  
BRANCH   4   7
HETATM    7  C   UNL     1     -10.019   9.498  66.253  1.00  0.00    -0.274 C  
HETATM    8  S   UNL     1      -8.315   9.178  65.680  1.00  0.00    -0.133 SA 
HETATM    9  H   UNL     1      -8.089   7.878  65.244  1.00  0.00     0.000 H  
ENDBRANCH   4   7
ENDBRANCH   2   4
TORSDOF 2
ENDMDL
MODEL      117
REMARK 921   NORMALIZED FREE ENERGY PREDICTED BY IDOCK:   -1.68 KCAL/MOL
REMARK 922        TOTAL FREE ENERGY PREDICTED BY IDOCK:   -1.89 KCAL/MOL
REMARK 923 INTER-LIGAND FREE ENERGY PREDICTED BY IDOCK:   -1.88 KCAL/MOL
REMARK 924 INTRA-LIGAND FREE ENERGY PREDICTED BY IDOCK:   -0.00 KCAL/MOL
REMARK 927      BINDING AFFINITY PREDICTED BY RF-SCORE:    0.00 PKD
ROOT
HETATM    1  O   UNL     1     -11.702   7.229  69.796  1.00  0.00    -0.509 OA 
HETATM    2  C   UNL     1     -11.535   8.151  70.868  1.00  0.00    -0.271 C  
HETATM    3  H   UNL     1     -12.094   6.418  70.097  1.00  0.00     0.000 HD 
ENDROOT
BRANCH   2   4
HETATM    4  C   UNL     1     -10.900   9.465  70.379  1.00  0.00    -0.269 C  
HETATM    5  S   UNL     1      -9.963   9.131  68.831  1.00  0.00    -0.186 SA 
HETATM    6  H   UNL     1      -9.390  10.318  68.390  1.00  0.00     0.000 H  
BRANCH   4   7
HETATM    7  C   UNL     1     -11.973  10.550  70.193  1.00  0.00    -0.316 C  
HETATM    8  S   UNL     1     -11.746  11.593  68.712  1.00  0.00    -0.332 SA 
HETATM    9  H   UNL     1     -12.716  12.575  68.545  1.00  0.00     0.000 H  
ENDBRANCH   4   7
ENDBRANCH   2   4
TORSDOF 2
ENDMDL
MODEL      118
REMARK 921   NORMALIZED FREE ENERGY PREDICTED BY IDOCK:   -1.66 KCAL/MOL
REMARK 922        TOTAL FREE ENERGY PREDICTED BY IDOCK:   -1.87 KCAL/MOL
REMARK 923 INTER-LIGAND FREE ENERGY PREDICTED BY IDOCK:   -1.83 KCAL/MOL
REMARK 924 INTRA-LIGAND FREE ENERGY PREDICTED BY IDOCK:   -0.04 KCAL/MOL
REMARK 927      BINDING AFFINITY PREDICTED BY RF-SCORE:    0.00 PKD
ROOT
HETATM    1  O   UNL     1      -8.421  12.873  68.843  1.00  0.00    -0.355 OA 
HETATM    2  C   UNL     1      -9.496  12.505  67.983  1.00  0.00    -0.209 C  
HETATM    3  H   UNL     1      -7.708  12.249  68.788  1.00  0.00     0.000 HD 
ENDROOT
BRANCH   2   4
HETATM    4  C   UNL     1     -10.652  13.516  68.071  1.00  0.00    -0.239 C  
HETATM    5  S   UNL     1     -11.638  13.428  66.521  1.00  0.00    -0.376 SA 
HETATM    6  H   UNL     1     -12.682  14.341  66.601  1.00  0.00     0.000 H  
BRANCH   4   7
HETATM    7  C   UNL     1     -11.504  13.257  69.324  1.00  0.00    -0.288 C  
HETATM    8  S   UNL     1     -11.710  11.494  69.749  1.00  0.00    -0.366 SA 
HETATM    9  H   UNL     1     -12.481  11.259  70.881  1.00  0.00     0.000 H  
ENDBRANCH   4   7
ENDBRANCH   2   4
TORSDOF 2
ENDMDL
MODEL      119
REMARK 921   NORMALIZED FREE ENERGY PREDICTED BY IDOCK:   -1.65 KCAL/MOL
REMARK 922        TOTAL FREE ENERGY PREDICTED BY IDOCK:   -1.86 KCAL/MOL
REMARK 923 INTER-LIGAND FREE ENERGY PREDICTED BY IDOCK:   -1.84 KCAL/MOL
REMARK 924 INTRA-LIGAND FREE ENERGY PREDICTED BY IDOCK:   -0.02 KCAL/MOL
REMARK 927      BINDING AFFINITY PREDICTED BY RF-SCORE:    0.00 PKD
ROOT
HETATM    1  O   UNL     1     -11.925  10.725  67.870  1.00  0.00    -0.753 OA 
HETATM    2  C   UNL     1     -11.463  10.588  69.210  1.00  0.00    -0.256 C  
HETATM    3  H   UNL     1     -12.396  11.540  67.749  1.00  0.00     0.000 HD 
ENDROOT
BRANCH   2   4
HETATM    4  C   UNL     1     -10.700   9.266  69.405  1.00  0.00    -0.208 C  
HETATM    5  S   UNL     1     -10.383   8.515  67.756  1.00  0.00    -0.226 SA 
HETATM    6  H   UNL     1      -9.693   7.322  67.932  1.00  0.00     0.000 H  
BRANCH   4   7
HETATM    7  C   UNL     1      -9.406   9.500  70.202  1.00  0.00    -0.247 C  
HETATM    8  S   UNL     1      -8.132  10.459  69.313  1.00  0.00    -0.147 SA 
HETATM    9  H   UNL     1      -6.962  10.670  70.033  1.00  0.00     0.000 H  
ENDBRANCH   4   7
ENDBRANCH   2   4
TORSDOF 2
ENDMDL
MODEL      120
REMARK 921   NORMALIZED FREE ENERGY PREDICTED BY IDOCK:   -1.65 KCAL/MOL
REMARK 922        TOTAL FREE ENERGY PREDICTED BY IDOCK:   -1.86 KCAL/MOL
REMARK 923 INTER-LIGAND FREE ENERGY PREDICTED BY IDOCK:   -1.85 KCAL/MOL
REMARK 924 INTRA-LIGAND FREE ENERGY PREDICTED BY IDOCK:   -0.01 KCAL/MOL
REMARK 927      BINDING AFFINITY PREDICTED BY RF-SCORE:    0.00 PKD
ROOT
HETATM    1  O   UNL     1     -12.611  14.224  67.835  1.00  0.00    -0.485 OA 
HETATM    2  C   UNL     1     -11.248  14.636  67.787  1.00  0.00    -0.308 C  
HETATM    3  H   UNL     1     -12.991  14.391  68.689  1.00  0.00     0.000 HD 
ENDROOT
BRANCH   2   4
HETATM    4  C   UNL     1     -10.632  14.365  66.402  1.00  0.00    -0.297 C  
HETATM    5  S   UNL     1     -10.108  15.966  65.663  1.00  0.00    -0.334 SA 
HETATM    6  H   UNL     1      -9.552  15.722  64.414  1.00  0.00     0.000 H  
BRANCH   4   7
HETATM    7  C   UNL     1      -9.473  13.361  66.511  1.00  0.00    -0.245 C  
HETATM    8  S   UNL     1      -8.274  13.731  67.837  1.00  0.00    -0.182 SA 
HETATM    9  H   UNL     1      -7.226  12.824  67.936  1.00  0.00     0.000 H  
ENDBRANCH   4   7
ENDBRANCH   2   4
TORSDOF 2
ENDMDL
MODEL      121
REMARK 921   NORMALIZED FREE ENERGY PREDICTED BY IDOCK:   -1.65 KCAL/MOL
REMARK 922        TOTAL FREE ENERGY PREDICTED BY IDOCK:   -1.85 KCAL/MOL
REMARK 923 INTER-LIGAND FREE ENERGY PREDICTED BY IDOCK:   -1.82 KCAL/MOL
REMARK 924 INTRA-LIGAND FREE ENERGY PREDICTED BY IDOCK:   -0.04 KCAL/MOL
REMARK 927      BINDING AFFINITY PREDICTED BY RF-SCORE:    0.00 PKD
ROOT
HETATM    1  O   UNL     1      -8.677  15.110  69.780  1.00  0.00    -0.433 OA 
HETATM    2  C   UNL     1      -8.811  14.726  68.416  1.00  0.00    -0.181 C  
HETATM    3  H   UNL     1      -7.927  14.691  70.184  1.00  0.00     0.000 HD 
ENDROOT
BRANCH   2   4
HETATM    4  C   UNL     1     -10.026  15.407  67.761  1.00  0.00    -0.225 C  
HETATM    5  S   UNL     1     -10.265  14.704  66.078  1.00  0.00    -0.328 SA 
HETATM    6  H   UNL     1     -11.362  15.319  65.487  1.00  0.00     0.000 H  
BRANCH   4   7
HETATM    7  C   UNL     1     -11.275  15.252  68.644  1.00  0.00    -0.296 C  
HETATM    8  S   UNL     1     -11.881  13.537  68.805  1.00  0.00    -0.352 SA 
HETATM    9  H   UNL     1     -13.010  13.398  69.604  1.00  0.00     0.000 H  
ENDBRANCH   4   7
ENDBRANCH   2   4
TORSDOF 2
ENDMDL
MODEL      122
REMARK 921   NORMALIZED FREE ENERGY PREDICTED BY IDOCK:   -1.64 KCAL/MOL
REMARK 922        TOTAL FREE ENERGY PREDICTED BY IDOCK:   -1.85 KCAL/MOL
REMARK 923 INTER-LIGAND FREE ENERGY PREDICTED BY IDOCK:   -1.82 KCAL/MOL
REMARK 924 INTRA-LIGAND FREE ENERGY PREDICTED BY IDOCK:   -0.02 KCAL/MOL
REMARK 927      BINDING AFFINITY PREDICTED BY RF-SCORE:    0.00 PKD
ROOT
HETATM    1  O   UNL     1     -10.020  13.421  67.170  1.00  0.00    -0.235 OA 
HETATM    2  C   UNL     1     -11.070  14.276  66.729  1.00  0.00    -0.314 C  
HETATM    3  H   UNL     1     -10.232  13.017  68.003  1.00  0.00     0.000 HD 
ENDROOT
BRANCH   2   4
HETATM    4  C   UNL     1     -10.725  14.931  65.379  1.00  0.00    -0.377 C  
HETATM    5  S   UNL     1     -12.006  14.458  64.146  1.00  0.00    -0.252 SA 
HETATM    6  H   UNL     1     -11.695  15.049  62.928  1.00  0.00     0.000 H  
BRANCH   4   7
HETATM    7  C   UNL     1     -10.593  16.455  65.533  1.00  0.00    -0.330 C  
HETATM    8  S   UNL     1     -10.174  17.011  67.221  1.00  0.00    -0.315 SA 
HETATM    9  H   UNL     1     -10.056  18.389  67.361  1.00  0.00     0.000 H  
ENDBRANCH   4   7
ENDBRANCH   2   4
TORSDOF 2
ENDMDL
MODEL      123
REMARK 921   NORMALIZED FREE ENERGY PREDICTED BY IDOCK:   -1.64 KCAL/MOL
REMARK 922        TOTAL FREE ENERGY PREDICTED BY IDOCK:   -1.85 KCAL/MOL
REMARK 923 INTER-LIGAND FREE ENERGY PREDICTED BY IDOCK:   -1.81 KCAL/MOL
REMARK 924 INTRA-LIGAND FREE ENERGY PREDICTED BY IDOCK:   -0.04 KCAL/MOL
REMARK 927      BINDING AFFINITY PREDICTED BY RF-SCORE:    0.00 PKD
ROOT
HETATM    1  O   UNL     1      -6.923  18.067  68.826  1.00  0.00    -0.246 OA 
HETATM    2  C   UNL     1      -7.975  17.211  68.393  1.00  0.00    -0.250 C  
HETATM    3  H   UNL     1      -6.808  18.022  69.767  1.00  0.00     0.000 HD 
ENDROOT
BRANCH   2   4
HETATM    4  C   UNL     1      -8.162  17.285  66.866  1.00  0.00    -0.227 C  
HETATM    5  S   UNL     1      -9.044  15.772  66.303  1.00  0.00    -0.348 SA 
HETATM    6  H   UNL     1      -9.212  15.839  64.925  1.00  0.00     0.000 H  
BRANCH   4   7
HETATM    7  C   UNL     1      -8.898  18.575  66.472  1.00  0.00    -0.293 C  
HETATM    8  S   UNL     1     -10.306  19.003  67.553  1.00  0.00    -0.447 SA 
HETATM    9  H   UNL     1     -10.973  20.170  67.196  1.00  0.00     0.000 H  
ENDBRANCH   4   7
ENDBRANCH   2   4
TORSDOF 2
ENDMDL
MODEL      124
REMARK 921   NORMALIZED FREE ENERGY PREDICTED BY IDOCK:   -1.64 KCAL/MOL
REMARK 922        TOTAL FREE ENERGY PREDICTED BY IDOCK:   -1.84 KCAL/MOL
REMARK 923 INTER-LIGAND FREE ENERGY PREDICTED BY IDOCK:   -1.81 KCAL/MOL
REMARK 924 INTRA-LIGAND FREE ENERGY PREDICTED BY IDOCK:   -0.03 KCAL/MOL
REMARK 927      BINDING AFFINITY PREDICTED BY RF-SCORE:    0.00 PKD
ROOT
HETATM    1  O   UNL     1     -12.119   6.607  69.501  1.00  0.00    -0.573 OA 
HETATM    2  C   UNL     1     -11.877   7.073  70.825  1.00  0.00    -0.355 C  
HETATM    3  H   UNL     1     -12.897   7.007  69.133  1.00  0.00     0.000 HD 
ENDROOT
BRANCH   2   4
HETATM    4  C   UNL     1     -10.615   6.425  71.423  1.00  0.00    -0.230 C  
HETATM    5  S   UNL     1     -11.085   5.497  72.940  1.00  0.00    -0.304 SA 
HETATM    6  H   UNL     1      -9.946   4.912  73.478  1.00  0.00     0.000 H  
BRANCH   4   7
HETATM    7  C   UNL     1      -9.919   5.533  70.381  1.00  0.00    -0.214 C  
HETATM    8  S   UNL     1      -9.780   3.777  70.860  1.00  0.00    -0.135 SA 
HETATM    9  H   UNL     1      -9.151   2.970  69.919  1.00  0.00     0.000 H  
ENDBRANCH   4   7
ENDBRANCH   2   4
TORSDOF 2
ENDMDL
MODEL      125
REMARK 921   NORMALIZED FREE ENERGY PREDICTED BY IDOCK:   -1.62 KCAL/MOL
REMARK 922        TOTAL FREE ENERGY PREDICTED BY IDOCK:   -1.82 KCAL/MOL
REMARK 923 INTER-LIGAND FREE ENERGY PREDICTED BY IDOCK:   -1.81 KCAL/MOL
REMARK 924 INTRA-LIGAND FREE ENERGY PREDICTED BY IDOCK:   -0.01 KCAL/MOL
REMARK 927      BINDING AFFINITY PREDICTED BY RF-SCORE:    0.00 PKD
ROOT
HETATM    1  O   UNL     1     -11.580   4.477  65.073  1.00  0.00    -1.101 OA 
HETATM    2  C   UNL     1     -10.620   3.839  64.235  1.00  0.00    -0.228 C  
HETATM    3  H   UNL     1     -12.436   4.494  64.664  1.00  0.00     0.000 HD 
ENDROOT
BRANCH   2   4
HETATM    4  C   UNL     1      -9.232   3.812  64.899  1.00  0.00    -0.148 C  
HETATM    5  S   UNL     1      -8.264   2.415  64.193  1.00  0.00    -0.082 SA 
HETATM    6  H   UNL     1      -7.011   2.391  64.791  1.00  0.00     0.000 H  
BRANCH   4   7
HETATM    7  C   UNL     1      -8.522   5.164  64.726  1.00  0.00    -0.150 C  
HETATM    8  S   UNL     1      -8.109   5.587  62.999  1.00  0.00    -0.099 SA 
HETATM    9  H   UNL     1      -7.466   6.810  62.843  1.00  0.00     0.000 H  
ENDBRANCH   4   7
ENDBRANCH   2   4
TORSDOF 2
ENDMDL
MODEL      126
REMARK 921   NORMALIZED FREE ENERGY PREDICTED BY IDOCK:   -1.61 KCAL/MOL
REMARK 922        TOTAL FREE ENERGY PREDICTED BY IDOCK:   -1.81 KCAL/MOL
REMARK 923 INTER-LIGAND FREE ENERGY PREDICTED BY IDOCK:   -1.81 KCAL/MOL
REMARK 924 INTRA-LIGAND FREE ENERGY PREDICTED BY IDOCK:   -0.00 KCAL/MOL
REMARK 927      BINDING AFFINITY PREDICTED BY RF-SCORE:    0.00 PKD
ROOT
HETATM    1  O   UNL     1     -11.580   4.477  65.073  1.00  0.00    -1.101 OA 
HETATM    2  C   UNL     1     -10.620   3.839  64.235  1.00  0.00    -0.228 C  
HETATM    3  H   UNL     1     -12.436   4.494  64.664  1.00  0.00     0.000 HD 
ENDROOT
BRANCH   2   4
HETATM    4  C   UNL     1      -9.232   3.812  64.899  1.00  0.00    -0.148 C  
HETATM    5  S   UNL     1      -9.366   4.529  66.587  1.00  0.00    -0.163 SA 
HETATM    6  H   UNL     1      -8.113   4.503  67.186  1.00  0.00     0.000 H  
BRANCH   4   7
HETATM    7  C   UNL     1      -8.665   2.382  64.911  1.00  0.00    -0.111 C  
HETATM    8  S   UNL     1      -7.125   2.187  65.872  1.00  0.00    -0.057 SA 
HETATM    9  H   UNL     1      -6.612   0.895  65.883  1.00  0.00     0.000 H  
ENDBRANCH   4   7
ENDBRANCH   2   4
TORSDOF 2
ENDMDL
MODEL      127
REMARK 921   NORMALIZED FREE ENERGY PREDICTED BY IDOCK:   -1.61 KCAL/MOL
REMARK 922        TOTAL FREE ENERGY PREDICTED BY IDOCK:   -1.81 KCAL/MOL
REMARK 923 INTER-LIGAND FREE ENERGY PREDICTED BY IDOCK:   -1.81 KCAL/MOL
REMARK 924 INTRA-LIGAND FREE ENERGY PREDICTED BY IDOCK:   -0.00 KCAL/MOL
REMARK 927      BINDING AFFINITY PREDICTED BY RF-SCORE:    0.00 PKD
ROOT
HETATM    1  O   UNL     1     -11.277  11.995  70.088  1.00  0.00    -0.481 OA 
HETATM    2  C   UNL     1     -11.660  10.677  69.705  1.00  0.00    -0.309 C  
HETATM    3  H   UNL     1     -11.555  12.190  70.975  1.00  0.00     0.000 HD 
ENDROOT
BRANCH   2   4
HETATM    4  C   UNL     1     -11.210  10.361  68.267  1.00  0.00    -0.267 C  
HETATM    5  S   UNL     1     -10.760  11.934  67.427  1.00  0.00    -0.243 SA 
HETATM    6  H   UNL     1     -10.353  11.649  66.130  1.00  0.00     0.000 H  
BRANCH   4   7
HETATM    7  C   UNL     1     -10.055   9.347  68.272  1.00  0.00    -0.183 C  
HETATM    8  S   UNL     1     -10.205   8.023  67.024  1.00  0.00    -0.323 SA 
HETATM    9  H   UNL     1      -9.160   7.105  67.029  1.00  0.00     0.000 H  
ENDBRANCH   4   7
ENDBRANCH   2   4
TORSDOF 2
ENDMDL
MODEL      128
REMARK 921   NORMALIZED FREE ENERGY PREDICTED BY IDOCK:   -1.61 KCAL/MOL
REMARK 922        TOTAL FREE ENERGY PREDICTED BY IDOCK:   -1.81 KCAL/MOL
REMARK 923 INTER-LIGAND FREE ENERGY PREDICTED BY IDOCK:   -1.81 KCAL/MOL
REMARK 924 INTRA-LIGAND FREE ENERGY PREDICTED BY IDOCK:   -0.00 KCAL/MOL
REMARK 927      BINDING AFFINITY PREDICTED BY RF-SCORE:    0.00 PKD
ROOT
HETATM    1  O   UNL     1      -8.133  16.139  67.810  1.00  0.00    -0.142 OA 
HETATM    2  C   UNL     1      -8.521  15.719  66.506  1.00  0.00    -0.300 C  
HETATM    3  H   UNL     1      -7.294  16.584  67.793  1.00  0.00     0.000 HD 
ENDROOT
BRANCH   2   4
HETATM    4  C   UNL     1      -9.881  14.999  66.533  1.00  0.00    -0.260 C  
HETATM    5  S   UNL     1     -10.970  15.835  67.757  1.00  0.00    -0.295 SA 
HETATM    6  H   UNL     1     -12.198  15.185  67.782  1.00  0.00     0.000 H  
BRANCH   4   7
HETATM    7  C   UNL     1     -10.501  14.959  65.127  1.00  0.00    -0.417 C  
HETATM    8  S   UNL     1     -10.730  13.279  64.448  1.00  0.00    -0.391 SA 
HETATM    9  H   UNL     1     -11.290  13.243  63.176  1.00  0.00     0.000 H  
ENDBRANCH   4   7
ENDBRANCH   2   4
TORSDOF 2
ENDMDL
MODEL      129
REMARK 921   NORMALIZED FREE ENERGY PREDICTED BY IDOCK:   -1.59 KCAL/MOL
REMARK 922        TOTAL FREE ENERGY PREDICTED BY IDOCK:   -1.79 KCAL/MOL
REMARK 923 INTER-LIGAND FREE ENERGY PREDICTED BY IDOCK:   -1.77 KCAL/MOL
REMARK 924 INTRA-LIGAND FREE ENERGY PREDICTED BY IDOCK:   -0.02 KCAL/MOL
REMARK 927      BINDING AFFINITY PREDICTED BY RF-SCORE:    0.00 PKD
ROOT
HETATM    1  O   UNL     1     -12.011   6.767  69.765  1.00  0.00    -0.654 OA 
HETATM    2  C   UNL     1     -10.677   7.241  69.610  1.00  0.00    -0.236 C  
HETATM    3  H   UNL     1     -12.271   6.223  69.032  1.00  0.00     0.000 HD 
ENDROOT
BRANCH   2   4
HETATM    4  C   UNL     1     -10.255   8.122  70.800  1.00  0.00    -0.194 C  
HETATM    5  S   UNL     1     -11.515   9.441  71.036  1.00  0.00    -0.363 SA 
HETATM    6  H   UNL     1     -11.134  10.236  72.111  1.00  0.00     0.000 H  
BRANCH   4   7
HETATM    7  C   UNL     1     -10.055   7.268  72.062  1.00  0.00    -0.184 C  
HETATM    8  S   UNL     1      -8.712   6.038  71.939  1.00  0.00    -0.137 SA 
HETATM    9  H   UNL     1      -8.531   5.265  73.080  1.00  0.00     0.000 H  
ENDBRANCH   4   7
ENDBRANCH   2   4
TORSDOF 2
ENDMDL
MODEL      130
REMARK 921   NORMALIZED FREE ENERGY PREDICTED BY IDOCK:   -1.55 KCAL/MOL
REMARK 922        TOTAL FREE ENERGY PREDICTED BY IDOCK:   -1.75 KCAL/MOL
REMARK 923 INTER-LIGAND FREE ENERGY PREDICTED BY IDOCK:   -1.74 KCAL/MOL
REMARK 924 INTRA-LIGAND FREE ENERGY PREDICTED BY IDOCK:   -0.00 KCAL/MOL
REMARK 927      BINDING AFFINITY PREDICTED BY RF-SCORE:    0.00 PKD
ROOT
HETATM    1  O   UNL     1      -7.938  17.153  68.823  1.00  0.00    -0.260 OA 
HETATM    2  C   UNL     1      -7.731  18.457  68.290  1.00  0.00    -0.293 C  
HETATM    3  H   UNL     1      -7.690  17.113  69.739  1.00  0.00     0.000 HD 
ENDROOT
BRANCH   2   4
HETATM    4  C   UNL     1      -8.134  18.523  66.806  1.00  0.00    -0.254 C  
HETATM    5  S   UNL     1      -9.814  19.261  66.679  1.00  0.00    -0.398 SA 
HETATM    6  H   UNL     1     -10.178  19.320  65.339  1.00  0.00     0.000 H  
BRANCH   4   7
HETATM    7  C   UNL     1      -7.088  19.304  65.994  1.00  0.00    -0.269 C  
HETATM    8  S   UNL     1      -6.649  20.932  66.693  1.00  0.00    -0.271 SA 
HETATM    9  H   UNL     1      -5.703  21.638  65.958  1.00  0.00     0.000 H  
ENDBRANCH   4   7
ENDBRANCH   2   4
TORSDOF 2
ENDMDL
MODEL      131
REMARK 921   NORMALIZED FREE ENERGY PREDICTED BY IDOCK:   -1.53 KCAL/MOL
REMARK 922        TOTAL FREE ENERGY PREDICTED BY IDOCK:   -1.73 KCAL/MOL
REMARK 923 INTER-LIGAND FREE ENERGY PREDICTED BY IDOCK:   -1.69 KCAL/MOL
REMARK 924 INTRA-LIGAND FREE ENERGY PREDICTED BY IDOCK:   -0.04 KCAL/MOL
REMARK 927      BINDING AFFINITY PREDICTED BY RF-SCORE:    0.00 PKD
ROOT
HETATM    1  O   UNL     1     -11.382   5.543  66.096  1.00  0.00    -0.751 OA 
HETATM    2  C   UNL     1     -11.032   6.544  67.047  1.00  0.00    -0.396 C  
HETATM    3  H   UNL     1     -12.263   5.221  66.243  1.00  0.00     0.000 HD 
ENDROOT
BRANCH   2   4
HETATM    4  C   UNL     1      -9.604   7.065  66.808  1.00  0.00    -0.171 C  
HETATM    5  S   UNL     1      -8.827   7.432  68.434  1.00  0.00    -0.120 SA 
HETATM    6  H   UNL     1      -7.537   7.902  68.219  1.00  0.00     0.000 H  
BRANCH   4   7
HETATM    7  C   UNL     1      -8.789   6.055  65.983  1.00  0.00    -0.153 C  
HETATM    8  S   UNL     1      -7.865   4.835  66.978  1.00  0.00    -0.099 SA 
HETATM    9  H   UNL     1      -7.128   3.922  66.232  1.00  0.00     0.000 H  
ENDBRANCH   4   7
ENDBRANCH   2   4
TORSDOF 2
ENDMDL
MODEL      132
REMARK 921   NORMALIZED FREE ENERGY PREDICTED BY IDOCK:   -1.52 KCAL/MOL
REMARK 922        TOTAL FREE ENERGY PREDICTED BY IDOCK:   -1.71 KCAL/MOL
REMARK 923 INTER-LIGAND FREE ENERGY PREDICTED BY IDOCK:   -1.68 KCAL/MOL
REMARK 924 INTRA-LIGAND FREE ENERGY PREDICTED BY IDOCK:   -0.03 KCAL/MOL
REMARK 927      BINDING AFFINITY PREDICTED BY RF-SCORE:    0.00 PKD
ROOT
HETATM    1  O   UNL     1     -11.637   6.709  67.294  1.00  0.00    -0.747 OA 
HETATM    2  C   UNL     1     -10.488   5.873  67.208  1.00  0.00    -0.262 C  
HETATM    3  H   UNL     1     -11.751   7.220  66.501  1.00  0.00     0.000 HD 
ENDROOT
BRANCH   2   4
HETATM    4  C   UNL     1     -10.304   5.045  68.492  1.00  0.00    -0.024 C  
HETATM    5  S   UNL     1      -9.092   3.701  68.162  1.00  0.00    -0.165 SA 
HETATM    6  H   UNL     1      -8.926   2.953  69.321  1.00  0.00     0.000 H  
BRANCH   4   7
HETATM    7  C   UNL     1      -9.876   5.946  69.661  1.00  0.00    -0.167 C  
HETATM    8  S   UNL     1     -11.206   6.318  70.856  1.00  0.00    -0.317 SA 
HETATM    9  H   UNL     1     -10.820   7.134  71.913  1.00  0.00     0.000 H  
ENDBRANCH   4   7
ENDBRANCH   2   4
TORSDOF 2
ENDMDL
MODEL      133
REMARK 921   NORMALIZED FREE ENERGY PREDICTED BY IDOCK:   -1.48 KCAL/MOL
REMARK 922        TOTAL FREE ENERGY PREDICTED BY IDOCK:   -1.66 KCAL/MOL
REMARK 923 INTER-LIGAND FREE ENERGY PREDICTED BY IDOCK:   -1.63 KCAL/MOL
REMARK 924 INTRA-LIGAND FREE ENERGY PREDICTED BY IDOCK:   -0.03 KCAL/MOL
REMARK 927      BINDING AFFINITY PREDICTED BY RF-SCORE:    0.00 PKD
ROOT
HETATM    1  O   UNL     1      -9.157   6.200  70.494  1.00  0.00    -0.151 OA 
HETATM    2  C   UNL     1     -10.491   6.397  70.950  1.00  0.00    -0.228 C  
HETATM    3  H   UNL     1      -9.128   5.589  69.767  1.00  0.00     0.000 HD 
ENDROOT
BRANCH   2   4
HETATM    4  C   UNL     1     -10.538   7.386  72.128  1.00  0.00    -0.220 C  
HETATM    5  S   UNL     1     -11.968   8.519  71.895  1.00  0.00    -0.373 SA 
HETATM    6  H   UNL     1     -12.011   9.412  72.958  1.00  0.00     0.000 H  
BRANCH   4   7
HETATM    7  C   UNL     1     -10.598   6.633  73.467  1.00  0.00    -0.311 C  
HETATM    8  S   UNL     1     -11.042   4.868  73.323  1.00  0.00    -0.347 SA 
HETATM    9  H   UNL     1     -11.096   4.187  74.534  1.00  0.00     0.000 H  
ENDBRANCH   4   7
ENDBRANCH   2   4
TORSDOF 2
ENDMDL
MODEL      134
REMARK 921   NORMALIZED FREE ENERGY PREDICTED BY IDOCK:   -1.48 KCAL/MOL
REMARK 922        TOTAL FREE ENERGY PREDICTED BY IDOCK:   -1.66 KCAL/MOL
REMARK 923 INTER-LIGAND FREE ENERGY PREDICTED BY IDOCK:   -1.63 KCAL/MOL
REMARK 924 INTRA-LIGAND FREE ENERGY PREDICTED BY IDOCK:   -0.03 KCAL/MOL
REMARK 927      BINDING AFFINITY PREDICTED BY RF-SCORE:    0.00 PKD
ROOT
HETATM    1  O   UNL     1     -10.185   9.977  64.307  1.00  0.00    -0.436 OA 
HETATM    2  C   UNL     1      -9.324  10.880  64.993  1.00  0.00    -0.226 C  
HETATM    3  H   UNL     1     -10.177  10.137  63.371  1.00  0.00     0.000 HD 
ENDROOT
BRANCH   2   4
HETATM    4  C   UNL     1      -9.336  10.621  66.510  1.00  0.00    -0.167 C  
HETATM    5  S   UNL     1      -8.177  11.795  67.323  1.00  0.00    -0.170 SA 
HETATM    6  H   UNL     1      -8.189  11.560  68.692  1.00  0.00     0.000 H  
BRANCH   4   7
HETATM    7  C   UNL     1     -10.766  10.727  67.066  1.00  0.00    -0.265 C  
HETATM    8  S   UNL     1     -11.435  12.425  67.114  1.00  0.00    -0.369 SA 
HETATM    9  H   UNL     1     -12.727  12.521  67.617  1.00  0.00     0.000 H  
ENDBRANCH   4   7
ENDBRANCH   2   4
TORSDOF 2
ENDMDL
MODEL      135
REMARK 921   NORMALIZED FREE ENERGY PREDICTED BY IDOCK:   -1.48 KCAL/MOL
REMARK 922        TOTAL FREE ENERGY PREDICTED BY IDOCK:   -1.66 KCAL/MOL
REMARK 923 INTER-LIGAND FREE ENERGY PREDICTED BY IDOCK:   -1.63 KCAL/MOL
REMARK 924 INTRA-LIGAND FREE ENERGY PREDICTED BY IDOCK:   -0.04 KCAL/MOL
REMARK 927      BINDING AFFINITY PREDICTED BY RF-SCORE:    0.00 PKD
ROOT
HETATM    1  O   UNL     1     -11.034   8.322  67.488  1.00  0.00    -0.500 OA 
HETATM    2  C   UNL     1     -10.224   7.979  68.609  1.00  0.00    -0.206 C  
HETATM    3  H   UNL     1     -11.646   7.627  67.280  1.00  0.00     0.000 HD 
ENDROOT
BRANCH   2   4
HETATM    4  C   UNL     1      -9.232   9.106  68.947  1.00  0.00    -0.139 C  
HETATM    5  S   UNL     1      -9.474  10.486  67.755  1.00  0.00    -0.150 SA 
HETATM    6  H   UNL     1      -8.578  11.504  68.060  1.00  0.00     0.000 H  
BRANCH   4   7
HETATM    7  C   UNL     1      -9.400   9.556  70.407  1.00  0.00    -0.257 C  
HETATM    8  S   UNL     1     -11.063   9.266  71.102  1.00  0.00    -0.373 SA 
HETATM    9  H   UNL     1     -11.214   9.673  72.423  1.00  0.00     0.000 H  
ENDBRANCH   4   7
ENDBRANCH   2   4
TORSDOF 2
ENDMDL
MODEL      136
REMARK 921   NORMALIZED FREE ENERGY PREDICTED BY IDOCK:   -1.47 KCAL/MOL
REMARK 922        TOTAL FREE ENERGY PREDICTED BY IDOCK:   -1.66 KCAL/MOL
REMARK 923 INTER-LIGAND FREE ENERGY PREDICTED BY IDOCK:   -1.64 KCAL/MOL
REMARK 924 INTRA-LIGAND FREE ENERGY PREDICTED BY IDOCK:   -0.02 KCAL/MOL
REMARK 927      BINDING AFFINITY PREDICTED BY RF-SCORE:    0.00 PKD
ROOT
HETATM    1  O   UNL     1     -11.645   6.583  67.339  1.00  0.00    -0.719 OA 
HETATM    2  C   UNL     1     -10.566   7.364  67.844  1.00  0.00    -0.190 C  
HETATM    3  H   UNL     1     -12.089   7.029  66.628  1.00  0.00     0.000 HD 
ENDROOT
BRANCH   2   4
HETATM    4  C   UNL     1      -9.845   6.641  68.996  1.00  0.00    -0.144 C  
HETATM    5  S   UNL     1     -11.071   6.249  70.310  1.00  0.00    -0.383 SA 
HETATM    6  H   UNL     1     -10.420   5.596  71.349  1.00  0.00     0.000 H  
BRANCH   4   7
HETATM    7  C   UNL     1      -9.118   5.389  68.479  1.00  0.00    -0.108 C  
HETATM    8  S   UNL     1      -7.622   5.736  67.492  1.00  0.00    -0.093 SA 
HETATM    9  H   UNL     1      -6.964   4.604  67.024  1.00  0.00     0.000 H  
ENDBRANCH   4   7
ENDBRANCH   2   4
TORSDOF 2
ENDMDL
MODEL      137
REMARK 921   NORMALIZED FREE ENERGY PREDICTED BY IDOCK:   -1.47 KCAL/MOL
REMARK 922        TOTAL FREE ENERGY PREDICTED BY IDOCK:   -1.65 KCAL/MOL
REMARK 923 INTER-LIGAND FREE ENERGY PREDICTED BY IDOCK:   -1.64 KCAL/MOL
REMARK 924 INTRA-LIGAND FREE ENERGY PREDICTED BY IDOCK:   -0.01 KCAL/MOL
REMARK 927      BINDING AFFINITY PREDICTED BY RF-SCORE:    0.00 PKD
ROOT
HETATM    1  O   UNL     1     -12.817  13.107  70.330  1.00  0.00    -0.060 OA 
HETATM    2  C   UNL     1     -11.504  13.647  70.211  1.00  0.00     0.020 C  
HETATM    3  H   UNL     1     -12.802  12.158  70.310  1.00  0.00     0.000 HD 
ENDROOT
BRANCH   2   4
HETATM    4  C   UNL     1     -11.529  15.185  70.244  1.00  0.00    -0.282 C  
HETATM    5  S   UNL     1     -11.308  15.819  68.532  1.00  0.00    -0.377 SA 
HETATM    6  H   UNL     1     -11.330  17.208  68.562  1.00  0.00     0.000 H  
BRANCH   4   7
HETATM    7  C   UNL     1     -12.825  15.693  70.895  1.00  0.00    -0.442 C  
HETATM    8  S   UNL     1     -12.800  15.706  72.721  1.00  0.00    -0.503 SA 
HETATM    9  H   UNL     1     -13.973  16.164  73.310  1.00  0.00     0.000 H  
ENDBRANCH   4   7
ENDBRANCH   2   4
TORSDOF 2
ENDMDL
MODEL      138
REMARK 921   NORMALIZED FREE ENERGY PREDICTED BY IDOCK:   -1.45 KCAL/MOL
REMARK 922        TOTAL FREE ENERGY PREDICTED BY IDOCK:   -1.64 KCAL/MOL
REMARK 923 INTER-LIGAND FREE ENERGY PREDICTED BY IDOCK:   -1.63 KCAL/MOL
REMARK 924 INTRA-LIGAND FREE ENERGY PREDICTED BY IDOCK:   -0.01 KCAL/MOL
REMARK 927      BINDING AFFINITY PREDICTED BY RF-SCORE:    0.00 PKD
ROOT
HETATM    1  O   UNL     1     -12.155   6.760  69.819  1.00  0.00    -0.648 OA 
HETATM    2  C   UNL     1     -10.980   5.989  69.585  1.00  0.00    -0.400 C  
HETATM    3  H   UNL     1     -12.867   6.215  70.130  1.00  0.00     0.000 HD 
ENDROOT
BRANCH   2   4
HETATM    4  C   UNL     1      -9.825   6.873  69.081  1.00  0.00    -0.156 C  
HETATM    5  S   UNL     1      -9.225   7.915  70.472  1.00  0.00    -0.158 SA 
HETATM    6  H   UNL     1      -8.181   8.713  70.017  1.00  0.00     0.000 H  
BRANCH   4   7
HETATM    7  C   UNL     1      -8.709   6.010  68.470  1.00  0.00    -0.110 C  
HETATM    8  S   UNL     1      -9.300   4.668  67.383  1.00  0.00    -0.153 SA 
HETATM    9  H   UNL     1      -8.291   3.886  66.831  1.00  0.00     0.000 H  
ENDBRANCH   4   7
ENDBRANCH   2   4
TORSDOF 2
ENDMDL
MODEL      139
REMARK 921   NORMALIZED FREE ENERGY PREDICTED BY IDOCK:   -1.45 KCAL/MOL
REMARK 922        TOTAL FREE ENERGY PREDICTED BY IDOCK:   -1.63 KCAL/MOL
REMARK 923 INTER-LIGAND FREE ENERGY PREDICTED BY IDOCK:   -1.63 KCAL/MOL
REMARK 924 INTRA-LIGAND FREE ENERGY PREDICTED BY IDOCK:   -0.01 KCAL/MOL
REMARK 927      BINDING AFFINITY PREDICTED BY RF-SCORE:    0.00 PKD
ROOT
HETATM    1  O   UNL     1      -7.873  13.924  67.046  1.00  0.00    -0.365 OA 
HETATM    2  C   UNL     1      -9.120  14.360  67.580  1.00  0.00    -0.195 C  
HETATM    3  H   UNL     1      -7.286  14.656  66.903  1.00  0.00     0.000 HD 
ENDROOT
BRANCH   2   4
HETATM    4  C   UNL     1     -10.072  13.173  67.812  1.00  0.00    -0.226 C  
HETATM    5  S   UNL     1     -11.705  13.568  67.063  1.00  0.00    -0.401 SA 
HETATM    6  H   UNL     1     -12.565  12.496  67.272  1.00  0.00     0.000 H  
BRANCH   4   7
HETATM    7  C   UNL     1      -9.468  11.875  67.251  1.00  0.00    -0.175 C  
HETATM    8  S   UNL     1     -10.474  10.382  67.548  1.00  0.00    -0.265 SA 
HETATM    9  H   UNL     1      -9.927   9.208  67.042  1.00  0.00     0.000 H  
ENDBRANCH   4   7
ENDBRANCH   2   4
TORSDOF 2
ENDMDL
MODEL      140
REMARK 921   NORMALIZED FREE ENERGY PREDICTED BY IDOCK:   -1.45 KCAL/MOL
REMARK 922        TOTAL FREE ENERGY PREDICTED BY IDOCK:   -1.63 KCAL/MOL
REMARK 923 INTER-LIGAND FREE ENERGY PREDICTED BY IDOCK:   -1.60 KCAL/MOL
REMARK 924 INTRA-LIGAND FREE ENERGY PREDICTED BY IDOCK:   -0.03 KCAL/MOL
REMARK 927      BINDING AFFINITY PREDICTED BY RF-SCORE:    0.00 PKD
ROOT
HETATM    1  O   UNL     1     -10.364  10.713  67.417  1.00  0.00    -0.196 OA 
HETATM    2  C   UNL     1     -10.908  11.459  66.332  1.00  0.00    -0.271 C  
HETATM    3  H   UNL     1     -10.722  11.002  68.247  1.00  0.00     0.000 HD 
ENDROOT
BRANCH   2   4
HETATM    4  C   UNL     1     -10.328  10.989  64.986  1.00  0.00    -0.295 C  
HETATM    5  S   UNL     1     -10.647  12.284  63.719  1.00  0.00    -0.468 SA 
HETATM    6  H   UNL     1     -10.123  11.860  62.504  1.00  0.00     0.000 H  
BRANCH   4   7
HETATM    7  C   UNL     1      -8.833  10.660  65.126  1.00  0.00    -0.193 C  
HETATM    8  S   UNL     1      -8.375   8.977  64.585  1.00  0.00    -0.176 SA 
HETATM    9  H   UNL     1      -7.023   8.679  64.711  1.00  0.00     0.000 H  
ENDBRANCH   4   7
ENDBRANCH   2   4
TORSDOF 2
ENDMDL
MODEL      141
REMARK 921   NORMALIZED FREE ENERGY PREDICTED BY IDOCK:   -1.45 KCAL/MOL
REMARK 922        TOTAL FREE ENERGY PREDICTED BY IDOCK:   -1.63 KCAL/MOL
REMARK 923 INTER-LIGAND FREE ENERGY PREDICTED BY IDOCK:   -1.59 KCAL/MOL
REMARK 924 INTRA-LIGAND FREE ENERGY PREDICTED BY IDOCK:   -0.04 KCAL/MOL
REMARK 927      BINDING AFFINITY PREDICTED BY RF-SCORE:    0.00 PKD
ROOT
HETATM    1  O   UNL     1      -8.706   8.900  72.037  1.00  0.00    -0.365 OA 
HETATM    2  C   UNL     1     -10.036   8.855  71.530  1.00  0.00    -0.320 C  
HETATM    3  H   UNL     1      -8.640   9.487  72.780  1.00  0.00     0.000 HD 
ENDROOT
BRANCH   2   4
HETATM    4  C   UNL     1     -10.142   7.903  70.325  1.00  0.00    -0.196 C  
HETATM    5  S   UNL     1     -11.427   6.636  70.682  1.00  0.00    -0.383 SA 
HETATM    6  H   UNL     1     -11.523   5.777  69.594  1.00  0.00     0.000 H  
BRANCH   4   7
HETATM    7  C   UNL     1     -10.434   8.689  69.037  1.00  0.00    -0.199 C  
HETATM    8  S   UNL     1      -9.063   9.754  68.472  1.00  0.00    -0.130 SA 
HETATM    9  H   UNL     1      -9.327  10.465  67.307  1.00  0.00     0.000 H  
ENDBRANCH   4   7
ENDBRANCH   2   4
TORSDOF 2
ENDMDL
MODEL      142
REMARK 921   NORMALIZED FREE ENERGY PREDICTED BY IDOCK:   -1.45 KCAL/MOL
REMARK 922        TOTAL FREE ENERGY PREDICTED BY IDOCK:   -1.63 KCAL/MOL
REMARK 923 INTER-LIGAND FREE ENERGY PREDICTED BY IDOCK:   -1.59 KCAL/MOL
REMARK 924 INTRA-LIGAND FREE ENERGY PREDICTED BY IDOCK:   -0.04 KCAL/MOL
REMARK 927      BINDING AFFINITY PREDICTED BY RF-SCORE:    0.00 PKD
ROOT
HETATM    1  O   UNL     1      -6.966  16.522  69.221  1.00  0.00    -0.215 OA 
HETATM    2  C   UNL     1      -7.686  17.609  68.647  1.00  0.00    -0.281 C  
HETATM    3  H   UNL     1      -7.541  15.952  69.717  1.00  0.00     0.000 HD 
ENDROOT
BRANCH   2   4
HETATM    4  C   UNL     1      -6.754  18.533  67.843  1.00  0.00    -0.214 C  
HETATM    5  S   UNL     1      -7.285  18.524  66.082  1.00  0.00    -0.263 SA 
HETATM    6  H   UNL     1      -6.445  19.358  65.356  1.00  0.00     0.000 H  
BRANCH   4   7
HETATM    7  C   UNL     1      -6.742  19.947  68.445  1.00  0.00    -0.297 C  
HETATM    8  S   UNL     1      -6.210  20.022  70.190  1.00  0.00    -0.323 SA 
HETATM    9  H   UNL     1      -6.199  21.301  70.735  1.00  0.00     0.000 H  
ENDBRANCH   4   7
ENDBRANCH   2   4
TORSDOF 2
ENDMDL
MODEL      143
REMARK 921   NORMALIZED FREE ENERGY PREDICTED BY IDOCK:   -1.45 KCAL/MOL
REMARK 922        TOTAL FREE ENERGY PREDICTED BY IDOCK:   -1.63 KCAL/MOL
REMARK 923 INTER-LIGAND FREE ENERGY PREDICTED BY IDOCK:   -1.62 KCAL/MOL
REMARK 924 INTRA-LIGAND FREE ENERGY PREDICTED BY IDOCK:   -0.01 KCAL/MOL
REMARK 927      BINDING AFFINITY PREDICTED BY RF-SCORE:    0.00 PKD
ROOT
HETATM    1  O   UNL     1      -7.902  13.657  66.932  1.00  0.00    -0.372 OA 
HETATM    2  C   UNL     1      -9.259  13.658  67.366  1.00  0.00    -0.222 C  
HETATM    3  H   UNL     1      -7.471  14.475  67.149  1.00  0.00     0.000 HD 
ENDROOT
BRANCH   2   4
HETATM    4  C   UNL     1      -9.957  12.332  67.015  1.00  0.00    -0.211 C  
HETATM    5  S   UNL     1      -9.013  10.946  67.771  1.00  0.00    -0.141 SA 
HETATM    6  H   UNL     1      -9.643   9.749  67.454  1.00  0.00     0.000 H  
BRANCH   4   7
HETATM    7  C   UNL     1     -11.426  12.357  67.466  1.00  0.00    -0.346 C  
HETATM    8  S   UNL     1     -11.702  13.120  69.102  1.00  0.00    -0.330 SA 
HETATM    9  H   UNL     1     -13.031  13.142  69.511  1.00  0.00     0.000 H  
ENDBRANCH   4   7
ENDBRANCH   2   4
TORSDOF 2
ENDMDL
MODEL      144
REMARK 921   NORMALIZED FREE ENERGY PREDICTED BY IDOCK:   -1.44 KCAL/MOL
REMARK 922        TOTAL FREE ENERGY PREDICTED BY IDOCK:   -1.62 KCAL/MOL
REMARK 923 INTER-LIGAND FREE ENERGY PREDICTED BY IDOCK:   -1.59 KCAL/MOL
REMARK 924 INTRA-LIGAND FREE ENERGY PREDICTED BY IDOCK:   -0.03 KCAL/MOL
REMARK 927      BINDING AFFINITY PREDICTED BY RF-SCORE:    0.00 PKD
ROOT
HETATM    1  O   UNL     1      -8.757   9.240  70.279  1.00  0.00    -0.178 OA 
HETATM    2  C   UNL     1      -9.915   9.314  71.104  1.00  0.00    -0.286 C  
HETATM    3  H   UNL     1      -8.611  10.055  69.815  1.00  0.00     0.000 HD 
ENDROOT
BRANCH   2   4
HETATM    4  C   UNL     1     -10.151   7.992  71.855  1.00  0.00    -0.203 C  
HETATM    5  S   UNL     1     -11.879   7.967  72.485  1.00  0.00    -0.313 SA 
HETATM    6  H   UNL     1     -12.092   6.773  73.163  1.00  0.00     0.000 H  
BRANCH   4   7
HETATM    7  C   UNL     1      -9.839   6.790  70.949  1.00  0.00    -0.186 C  
HETATM    8  S   UNL     1     -11.226   6.266  69.883  1.00  0.00    -0.428 SA 
HETATM    9  H   UNL     1     -10.944   5.179  69.064  1.00  0.00     0.000 H  
ENDBRANCH   4   7
ENDBRANCH   2   4
TORSDOF 2
ENDMDL
MODEL      145
REMARK 921   NORMALIZED FREE ENERGY PREDICTED BY IDOCK:   -1.44 KCAL/MOL
REMARK 922        TOTAL FREE ENERGY PREDICTED BY IDOCK:   -1.62 KCAL/MOL
REMARK 923 INTER-LIGAND FREE ENERGY PREDICTED BY IDOCK:   -1.60 KCAL/MOL
REMARK 924 INTRA-LIGAND FREE ENERGY PREDICTED BY IDOCK:   -0.02 KCAL/MOL
REMARK 927      BINDING AFFINITY PREDICTED BY RF-SCORE:    0.00 PKD
ROOT
HETATM    1  O   UNL     1      -9.225  11.859  68.863  1.00  0.00    -0.395 OA 
HETATM    2  C   UNL     1      -9.354  10.571  68.269  1.00  0.00    -0.156 C  
HETATM    3  H   UNL     1      -8.453  12.310  68.543  1.00  0.00     0.000 HD 
ENDROOT
BRANCH   2   4
HETATM    4  C   UNL     1     -10.605   9.840  68.789  1.00  0.00    -0.219 C  
HETATM    5  S   UNL     1     -10.380   8.031  68.544  1.00  0.00    -0.173 SA 
HETATM    6  H   UNL     1     -11.509   7.372  69.014  1.00  0.00     0.000 H  
BRANCH   4   7
HETATM    7  C   UNL     1     -10.875  10.205  70.257  1.00  0.00    -0.310 C  
HETATM    8  S   UNL     1     -10.354   8.935  71.461  1.00  0.00    -0.347 SA 
HETATM    9  H   UNL     1     -10.598   9.264  72.789  1.00  0.00     0.000 H  
ENDBRANCH   4   7
ENDBRANCH   2   4
TORSDOF 2
ENDMDL
MODEL      146
REMARK 921   NORMALIZED FREE ENERGY PREDICTED BY IDOCK:   -1.44 KCAL/MOL
REMARK 922        TOTAL FREE ENERGY PREDICTED BY IDOCK:   -1.62 KCAL/MOL
REMARK 923 INTER-LIGAND FREE ENERGY PREDICTED BY IDOCK:   -1.59 KCAL/MOL
REMARK 924 INTRA-LIGAND FREE ENERGY PREDICTED BY IDOCK:   -0.03 KCAL/MOL
REMARK 927      BINDING AFFINITY PREDICTED BY RF-SCORE:    0.00 PKD
ROOT
HETATM    1  O   UNL     1      -8.732  14.854  69.350  1.00  0.00    -0.370 OA 
HETATM    2  C   UNL     1      -8.091  14.623  68.100  1.00  0.00    -0.137 C  
HETATM    3  H   UNL     1      -8.584  14.134  69.951  1.00  0.00     0.000 HD 
ENDROOT
BRANCH   2   4
HETATM    4  C   UNL     1      -8.330  15.791  67.126  1.00  0.00    -0.202 C  
HETATM    5  S   UNL     1      -9.847  15.444  66.146  1.00  0.00    -0.338 SA 
HETATM    6  H   UNL     1     -10.064  16.499  65.267  1.00  0.00     0.000 H  
BRANCH   4   7
HETATM    7  C   UNL     1      -8.415  17.123  67.888  1.00  0.00    -0.212 C  
HETATM    8  S   UNL     1      -9.892  18.124  67.501  1.00  0.00    -0.327 SA 
HETATM    9  H   UNL     1      -9.969  19.329  68.190  1.00  0.00     0.000 H  
ENDBRANCH   4   7
ENDBRANCH   2   4
TORSDOF 2
ENDMDL
MODEL      147
REMARK 921   NORMALIZED FREE ENERGY PREDICTED BY IDOCK:   -1.43 KCAL/MOL
REMARK 922        TOTAL FREE ENERGY PREDICTED BY IDOCK:   -1.61 KCAL/MOL
REMARK 923 INTER-LIGAND FREE ENERGY PREDICTED BY IDOCK:   -1.58 KCAL/MOL
REMARK 924 INTRA-LIGAND FREE ENERGY PREDICTED BY IDOCK:   -0.03 KCAL/MOL
REMARK 927      BINDING AFFINITY PREDICTED BY RF-SCORE:    0.00 PKD
ROOT
HETATM    1  O   UNL     1      -9.791   8.949  65.500  1.00  0.00    -0.458 OA 
HETATM    2  C   UNL     1     -10.050  10.263  65.017  1.00  0.00    -0.283 C  
HETATM    3  H   UNL     1      -9.803   8.314  64.795  1.00  0.00     0.000 HD 
ENDROOT
BRANCH   2   4
HETATM    4  C   UNL     1     -10.031  11.292  66.161  1.00  0.00    -0.228 C  
HETATM    5  S   UNL     1     -10.947  10.599  67.598  1.00  0.00    -0.313 SA 
HETATM    6  H   UNL     1     -10.929  11.529  68.631  1.00  0.00     0.000 H  
BRANCH   4   7
HETATM    7  C   UNL     1      -8.586  11.680  66.517  1.00  0.00    -0.164 C  
HETATM    8  S   UNL     1      -8.044  11.138  68.174  1.00  0.00    -0.135 SA 
HETATM    9  H   UNL     1      -6.738  11.489  68.497  1.00  0.00     0.000 H  
ENDBRANCH   4   7
ENDBRANCH   2   4
TORSDOF 2
ENDMDL
MODEL      148
REMARK 921   NORMALIZED FREE ENERGY PREDICTED BY IDOCK:   -1.42 KCAL/MOL
REMARK 922        TOTAL FREE ENERGY PREDICTED BY IDOCK:   -1.60 KCAL/MOL
REMARK 923 INTER-LIGAND FREE ENERGY PREDICTED BY IDOCK:   -1.56 KCAL/MOL
REMARK 924 INTRA-LIGAND FREE ENERGY PREDICTED BY IDOCK:   -0.03 KCAL/MOL
REMARK 927      BINDING AFFINITY PREDICTED BY RF-SCORE:    0.00 PKD
ROOT
HETATM    1  O   UNL     1     -12.555   6.740  71.443  1.00  0.00    -0.355 OA 
HETATM    2  C   UNL     1     -11.713   6.668  70.297  1.00  0.00    -0.371 C  
HETATM    3  H   UNL     1     -13.469   6.802  71.195  1.00  0.00     0.000 HD 
ENDROOT
BRANCH   2   4
HETATM    4  C   UNL     1     -10.231   6.567  70.699  1.00  0.00    -0.187 C  
HETATM    5  S   UNL     1      -9.608   4.895  70.255  1.00  0.00    -0.215 SA 
HETATM    6  H   UNL     1      -8.270   4.804  70.618  1.00  0.00     0.000 H  
BRANCH   4   7
HETATM    7  C   UNL     1      -9.413   7.692  70.043  1.00  0.00    -0.161 C  
HETATM    8  S   UNL     1      -9.877   9.375  70.577  1.00  0.00    -0.274 SA 
HETATM    9  H   UNL     1      -9.138  10.392  69.983  1.00  0.00     0.000 H  
ENDBRANCH   4   7
ENDBRANCH   2   4
TORSDOF 2
ENDMDL
MODEL      149
REMARK 921   NORMALIZED FREE ENERGY PREDICTED BY IDOCK:   -1.41 KCAL/MOL
REMARK 922        TOTAL FREE ENERGY PREDICTED BY IDOCK:   -1.59 KCAL/MOL
REMARK 923 INTER-LIGAND FREE ENERGY PREDICTED BY IDOCK:   -1.58 KCAL/MOL
REMARK 924 INTRA-LIGAND FREE ENERGY PREDICTED BY IDOCK:   -0.00 KCAL/MOL
REMARK 927      BINDING AFFINITY PREDICTED BY RF-SCORE:    0.00 PKD
ROOT
HETATM    1  O   UNL     1     -11.402   4.888  65.658  1.00  0.00    -0.897 OA 
HETATM    2  C   UNL     1     -10.120   4.288  65.496  1.00  0.00    -0.223 C  
HETATM    3  H   UNL     1     -12.018   4.560  65.015  1.00  0.00     0.000 HD 
ENDROOT
BRANCH   2   4
HETATM    4  C   UNL     1      -9.120   4.819  66.539  1.00  0.00    -0.121 C  
HETATM    5  S   UNL     1      -9.173   3.730  68.020  1.00  0.00    -0.178 SA 
HETATM    6  H   UNL     1      -8.271   4.210  68.962  1.00  0.00     0.000 H  
BRANCH   4   7
HETATM    7  C   UNL     1      -7.710   4.921  65.935  1.00  0.00    -0.091 C  
HETATM    8  S   UNL     1      -7.206   6.613  65.469  1.00  0.00    -0.072 SA 
HETATM    9  H   UNL     1      -5.932   6.705  64.922  1.00  0.00     0.000 H  
ENDBRANCH   4   7
ENDBRANCH   2   4
TORSDOF 2
ENDMDL
MODEL      150
REMARK 921   NORMALIZED FREE ENERGY PREDICTED BY IDOCK:   -1.40 KCAL/MOL
REMARK 922        TOTAL FREE ENERGY PREDICTED BY IDOCK:   -1.58 KCAL/MOL
REMARK 923 INTER-LIGAND FREE ENERGY PREDICTED BY IDOCK:   -1.56 KCAL/MOL
REMARK 924 INTRA-LIGAND FREE ENERGY PREDICTED BY IDOCK:   -0.02 KCAL/MOL
REMARK 927      BINDING AFFINITY PREDICTED BY RF-SCORE:    0.00 PKD
ROOT
HETATM    1  O   UNL     1      -9.804   3.064  67.324  1.00  0.00    -0.343 OA 
HETATM    2  C   UNL     1      -9.860   4.263  66.559  1.00  0.00    -0.219 C  
HETATM    3  H   UNL     1      -9.975   2.302  66.784  1.00  0.00     0.000 HD 
ENDROOT
BRANCH   2   4
HETATM    4  C   UNL     1      -9.582   5.498  67.435  1.00  0.00    -0.122 C  
HETATM    5  S   UNL     1      -8.480   6.645  66.512  1.00  0.00    -0.126 SA 
HETATM    6  H   UNL     1      -8.230   7.759  67.303  1.00  0.00     0.000 H  
BRANCH   4   7
HETATM    7  C   UNL     1     -10.899   6.166  67.863  1.00  0.00    -0.319 C  
HETATM    8  S   UNL     1     -11.161   6.235  69.668  1.00  0.00    -0.433 SA 
HETATM    9  H   UNL     1     -12.352   6.839  70.055  1.00  0.00     0.000 H  
ENDBRANCH   4   7
ENDBRANCH   2   4
TORSDOF 2
ENDMDL
MODEL      151
REMARK 921   NORMALIZED FREE ENERGY PREDICTED BY IDOCK:   -1.38 KCAL/MOL
REMARK 922        TOTAL FREE ENERGY PREDICTED BY IDOCK:   -1.56 KCAL/MOL
REMARK 923 INTER-LIGAND FREE ENERGY PREDICTED BY IDOCK:   -1.55 KCAL/MOL
REMARK 924 INTRA-LIGAND FREE ENERGY PREDICTED BY IDOCK:   -0.01 KCAL/MOL
REMARK 927      BINDING AFFINITY PREDICTED BY RF-SCORE:    0.00 PKD
ROOT
HETATM    1  O   UNL     1     -10.992  16.978  68.657  1.00  0.00    -0.312 OA 
HETATM    2  C   UNL     1     -10.555  16.695  67.331  1.00  0.00    -0.295 C  
HETATM    3  H   UNL     1     -11.427  16.228  69.043  1.00  0.00     0.000 HD 
ENDROOT
BRANCH   2   4
HETATM    4  C   UNL     1      -9.848  17.911  66.705  1.00  0.00    -0.333 C  
HETATM    5  S   UNL     1     -10.655  19.446  67.319  1.00  0.00    -0.490 SA 
HETATM    6  H   UNL     1     -10.017  20.544  66.754  1.00  0.00     0.000 H  
BRANCH   4   7
HETATM    7  C   UNL     1      -8.342  17.878  67.008  1.00  0.00    -0.234 C  
HETATM    8  S   UNL     1      -7.448  16.478  66.250  1.00  0.00     0.114 SA 
HETATM    9  H   UNL     1      -6.085  16.448  66.525  1.00  0.00     0.000 H  
ENDBRANCH   4   7
ENDBRANCH   2   4
TORSDOF 2
ENDMDL
MODEL      152
REMARK 921   NORMALIZED FREE ENERGY PREDICTED BY IDOCK:   -1.37 KCAL/MOL
REMARK 922        TOTAL FREE ENERGY PREDICTED BY IDOCK:   -1.54 KCAL/MOL
REMARK 923 INTER-LIGAND FREE ENERGY PREDICTED BY IDOCK:   -1.51 KCAL/MOL
REMARK 924 INTRA-LIGAND FREE ENERGY PREDICTED BY IDOCK:   -0.03 KCAL/MOL
REMARK 927      BINDING AFFINITY PREDICTED BY RF-SCORE:    0.00 PKD
ROOT
HETATM    1  O   UNL     1     -11.725  12.147  66.018  1.00  0.00    -0.434 OA 
HETATM    2  C   UNL     1     -10.607  11.390  65.565  1.00  0.00    -0.271 C  
HETATM    3  H   UNL     1     -12.132  12.621  65.303  1.00  0.00     0.000 HD 
ENDROOT
BRANCH   2   4
HETATM    4  C   UNL     1      -9.948  10.621  66.725  1.00  0.00    -0.209 C  
HETATM    5  S   UNL     1      -8.168  10.371  66.334  1.00  0.00    -0.147 SA 
HETATM    6  H   UNL     1      -7.573   9.678  67.381  1.00  0.00     0.000 H  
BRANCH   4   7
HETATM    7  C   UNL     1     -10.159  11.362  68.055  1.00  0.00    -0.180 C  
HETATM    8  S   UNL     1     -11.015  10.386  69.338  1.00  0.00    -0.268 SA 
HETATM    9  H   UNL     1     -11.206  11.056  70.541  1.00  0.00     0.000 H  
ENDBRANCH   4   7
ENDBRANCH   2   4
TORSDOF 2
ENDMDL
MODEL      153
REMARK 921   NORMALIZED FREE ENERGY PREDICTED BY IDOCK:   -1.35 KCAL/MOL
REMARK 922        TOTAL FREE ENERGY PREDICTED BY IDOCK:   -1.52 KCAL/MOL
REMARK 923 INTER-LIGAND FREE ENERGY PREDICTED BY IDOCK:   -1.49 KCAL/MOL
REMARK 924 INTRA-LIGAND FREE ENERGY PREDICTED BY IDOCK:   -0.04 KCAL/MOL
REMARK 927      BINDING AFFINITY PREDICTED BY RF-SCORE:    0.00 PKD
ROOT
HETATM    1  O   UNL     1      -9.527  11.895  64.069  1.00  0.00    -0.477 OA 
HETATM    2  C   UNL     1     -10.057  10.604  64.354  1.00  0.00    -0.349 C  
HETATM    3  H   UNL     1     -10.206  12.558  64.087  1.00  0.00     0.000 HD 
ENDROOT
BRANCH   2   4
HETATM    4  C   UNL     1      -8.955   9.530  64.325  1.00  0.00    -0.205 C  
HETATM    5  S   UNL     1      -8.582   9.109  62.574  1.00  0.00    -0.207 SA 
HETATM    6  H   UNL     1      -7.587   8.140  62.548  1.00  0.00     0.000 H  
BRANCH   4   7
HETATM    7  C   UNL     1      -7.712  10.008  65.093  1.00  0.00    -0.137 C  
HETATM    8  S   UNL     1      -6.211  10.184  64.067  1.00  0.00    -0.114 SA 
HETATM    9  H   UNL     1      -5.087  10.616  64.761  1.00  0.00     0.000 H  
ENDBRANCH   4   7
ENDBRANCH   2   4
TORSDOF 2
ENDMDL
MODEL      154
REMARK 921   NORMALIZED FREE ENERGY PREDICTED BY IDOCK:   -1.35 KCAL/MOL
REMARK 922        TOTAL FREE ENERGY PREDICTED BY IDOCK:   -1.52 KCAL/MOL
REMARK 923 INTER-LIGAND FREE ENERGY PREDICTED BY IDOCK:   -1.50 KCAL/MOL
REMARK 924 INTRA-LIGAND FREE ENERGY PREDICTED BY IDOCK:   -0.02 KCAL/MOL
REMARK 927      BINDING AFFINITY PREDICTED BY RF-SCORE:    0.00 PKD
ROOT
HETATM    1  O   UNL     1      -8.123   7.526  68.587  1.00  0.00    -0.121 OA 
HETATM    2  C   UNL     1      -9.126   7.741  69.574  1.00  0.00    -0.146 C  
HETATM    3  H   UNL     1      -7.258   7.720  68.928  1.00  0.00     0.000 HD 
ENDROOT
BRANCH   2   4
HETATM    4  C   UNL     1     -10.528   7.426  69.022  1.00  0.00    -0.210 C  
HETATM    5  S   UNL     1     -10.455   7.423  67.184  1.00  0.00    -0.346 SA 
HETATM    6  H   UNL     1     -11.721   7.137  66.686  1.00  0.00     0.000 H  
BRANCH   4   7
HETATM    7  C   UNL     1     -11.048   6.096  69.591  1.00  0.00    -0.419 C  
HETATM    8  S   UNL     1     -10.554   5.767  71.318  1.00  0.00    -0.258 SA 
HETATM    9  H   UNL     1     -11.024   4.564  71.833  1.00  0.00     0.000 H  
ENDBRANCH   4   7
ENDBRANCH   2   4
TORSDOF 2
ENDMDL
MODEL      155
REMARK 921   NORMALIZED FREE ENERGY PREDICTED BY IDOCK:   -1.35 KCAL/MOL
REMARK 922        TOTAL FREE ENERGY PREDICTED BY IDOCK:   -1.52 KCAL/MOL
REMARK 923 INTER-LIGAND FREE ENERGY PREDICTED BY IDOCK:   -1.50 KCAL/MOL
REMARK 924 INTRA-LIGAND FREE ENERGY PREDICTED BY IDOCK:   -0.02 KCAL/MOL
REMARK 927      BINDING AFFINITY PREDICTED BY RF-SCORE:    0.00 PKD
ROOT
HETATM    1  O   UNL     1      -9.577  14.855  65.332  1.00  0.00    -0.448 OA 
HETATM    2  C   UNL     1      -8.935  15.256  66.539  1.00  0.00    -0.305 C  
HETATM    3  H   UNL     1      -9.409  15.473  64.631  1.00  0.00     0.000 HD 
ENDROOT
BRANCH   2   4
HETATM    4  C   UNL     1      -9.206  14.253  67.675  1.00  0.00    -0.194 C  
HETATM    5  S   UNL     1      -9.875  12.701  66.948  1.00  0.00    -0.239 SA 
HETATM    6  H   UNL     1     -10.119  11.796  67.974  1.00  0.00     0.000 H  
BRANCH   4   7
HETATM    7  C   UNL     1      -7.933  14.013  68.502  1.00  0.00    -0.141 C  
HETATM    8  S   UNL     1      -6.460  14.910  67.901  1.00  0.00    -0.170 SA 
HETATM    9  H   UNL     1      -5.309  14.693  68.649  1.00  0.00     0.000 H  
ENDBRANCH   4   7
ENDBRANCH   2   4
TORSDOF 2
ENDMDL
MODEL      156
REMARK 921   NORMALIZED FREE ENERGY PREDICTED BY IDOCK:   -1.34 KCAL/MOL
REMARK 922        TOTAL FREE ENERGY PREDICTED BY IDOCK:   -1.51 KCAL/MOL
REMARK 923 INTER-LIGAND FREE ENERGY PREDICTED BY IDOCK:   -1.50 KCAL/MOL
REMARK 924 INTRA-LIGAND FREE ENERGY PREDICTED BY IDOCK:   -0.01 KCAL/MOL
REMARK 927      BINDING AFFINITY PREDICTED BY RF-SCORE:    0.00 PKD
ROOT
HETATM    1  O   UNL     1      -9.598   8.677  65.335  1.00  0.00    -0.435 OA 
HETATM    2  C   UNL     1      -9.887   8.644  66.729  1.00  0.00    -0.253 C  
HETATM    3  H   UNL     1      -9.258   9.525  65.074  1.00  0.00     0.000 HD 
ENDROOT
BRANCH   2   4
HETATM    4  C   UNL     1     -10.437   7.270  67.152  1.00  0.00    -0.324 C  
HETATM    5  S   UNL     1      -9.486   5.957  66.283  1.00  0.00    -0.104 SA 
HETATM    6  H   UNL     1      -9.982   4.717  66.665  1.00  0.00     0.000 H  
BRANCH   4   7
HETATM    7  C   UNL     1     -10.390   7.115  68.681  1.00  0.00    -0.187 C  
HETATM    8  S   UNL     1     -10.648   8.666  69.607  1.00  0.00    -0.196 SA 
HETATM    9  H   UNL     1     -10.605   8.526  70.990  1.00  0.00     0.000 H  
ENDBRANCH   4   7
ENDBRANCH   2   4
TORSDOF 2
ENDMDL
MODEL      157
REMARK 921   NORMALIZED FREE ENERGY PREDICTED BY IDOCK:   -1.33 KCAL/MOL
REMARK 922        TOTAL FREE ENERGY PREDICTED BY IDOCK:   -1.50 KCAL/MOL
REMARK 923 INTER-LIGAND FREE ENERGY PREDICTED BY IDOCK:   -1.50 KCAL/MOL
REMARK 924 INTRA-LIGAND FREE ENERGY PREDICTED BY IDOCK:   -0.00 KCAL/MOL
REMARK 927      BINDING AFFINITY PREDICTED BY RF-SCORE:    0.00 PKD
ROOT
HETATM    1  O   UNL     1      -9.610  12.652  67.139  1.00  0.00    -0.198 OA 
HETATM    2  C   UNL     1      -9.173  11.692  68.095  1.00  0.00    -0.184 C  
HETATM    3  H   UNL     1      -8.881  13.153  66.796  1.00  0.00     0.000 HD 
ENDROOT
BRANCH   2   4
HETATM    4  C   UNL     1     -10.356  10.879  68.651  1.00  0.00    -0.191 C  
HETATM    5  S   UNL     1      -9.726   9.707  69.921  1.00  0.00    -0.243 SA 
HETATM    6  H   UNL     1     -10.794   8.974  70.424  1.00  0.00     0.000 H  
BRANCH   4   7
HETATM    7  C   UNL     1     -11.444  11.814  69.204  1.00  0.00    -0.297 C  
HETATM    8  S   UNL     1     -12.397  11.125  70.600  1.00  0.00    -0.388 SA 
HETATM    9  H   UNL     1     -13.381  11.970  71.099  1.00  0.00     0.000 H  
ENDBRANCH   4   7
ENDBRANCH   2   4
TORSDOF 2
ENDMDL
MODEL      158
REMARK 921   NORMALIZED FREE ENERGY PREDICTED BY IDOCK:   -1.33 KCAL/MOL
REMARK 922        TOTAL FREE ENERGY PREDICTED BY IDOCK:   -1.50 KCAL/MOL
REMARK 923 INTER-LIGAND FREE ENERGY PREDICTED BY IDOCK:   -1.50 KCAL/MOL
REMARK 924 INTRA-LIGAND FREE ENERGY PREDICTED BY IDOCK:   -0.00 KCAL/MOL
REMARK 927      BINDING AFFINITY PREDICTED BY RF-SCORE:    0.00 PKD
ROOT
HETATM    1  O   UNL     1     -11.762   6.269  70.269  1.00  0.00    -0.384 OA 
HETATM    2  C   UNL     1     -10.673   6.553  69.396  1.00  0.00    -0.277 C  
HETATM    3  H   UNL     1     -12.000   5.350  70.235  1.00  0.00     0.000 HD 
ENDROOT
BRANCH   2   4
HETATM    4  C   UNL     1     -10.287   8.042  69.452  1.00  0.00    -0.217 C  
HETATM    5  S   UNL     1      -8.810   8.232  70.530  1.00  0.00    -0.150 SA 
HETATM    6  H   UNL     1      -8.461   9.576  70.580  1.00  0.00     0.000 H  
BRANCH   4   7
HETATM    7  C   UNL     1     -10.056   8.595  68.036  1.00  0.00    -0.196 C  
HETATM    8  S   UNL     1     -10.850  10.208  67.715  1.00  0.00    -0.274 SA 
HETATM    9  H   UNL     1     -10.642  10.708  66.434  1.00  0.00     0.000 H  
ENDBRANCH   4   7
ENDBRANCH   2   4
TORSDOF 2
ENDMDL
MODEL      159
REMARK 921   NORMALIZED FREE ENERGY PREDICTED BY IDOCK:   -1.32 KCAL/MOL
REMARK 922        TOTAL FREE ENERGY PREDICTED BY IDOCK:   -1.48 KCAL/MOL
REMARK 923 INTER-LIGAND FREE ENERGY PREDICTED BY IDOCK:   -1.46 KCAL/MOL
REMARK 924 INTRA-LIGAND FREE ENERGY PREDICTED BY IDOCK:   -0.02 KCAL/MOL
REMARK 927      BINDING AFFINITY PREDICTED BY RF-SCORE:    0.00 PKD
ROOT
HETATM    1  O   UNL     1     -11.046  16.121  67.624  1.00  0.00    -0.301 OA 
HETATM    2  C   UNL     1     -10.323  15.313  66.700  1.00  0.00    -0.280 C  
HETATM    3  H   UNL     1     -11.978  15.945  67.578  1.00  0.00     0.000 HD 
ENDROOT
BRANCH   2   4
HETATM    4  C   UNL     1      -8.812  15.598  66.774  1.00  0.00    -0.272 C  
HETATM    5  S   UNL     1      -8.546  17.416  66.681  1.00  0.00    -0.267 SA 
HETATM    6  H   UNL     1      -7.182  17.673  66.748  1.00  0.00     0.000 H  
BRANCH   4   7
HETATM    7  C   UNL     1      -8.206  14.980  68.044  1.00  0.00    -0.137 C  
HETATM    8  S   UNL     1      -7.198  16.132  69.039  1.00  0.00    -0.204 SA 
HETATM    9  H   UNL     1      -6.649  15.573  70.188  1.00  0.00     0.000 H  
ENDBRANCH   4   7
ENDBRANCH   2   4
TORSDOF 2
ENDMDL
MODEL      160
REMARK 921   NORMALIZED FREE ENERGY PREDICTED BY IDOCK:   -1.31 KCAL/MOL
REMARK 922        TOTAL FREE ENERGY PREDICTED BY IDOCK:   -1.48 KCAL/MOL
REMARK 923 INTER-LIGAND FREE ENERGY PREDICTED BY IDOCK:   -1.48 KCAL/MOL
REMARK 924 INTRA-LIGAND FREE ENERGY PREDICTED BY IDOCK:   -0.00 KCAL/MOL
REMARK 927      BINDING AFFINITY PREDICTED BY RF-SCORE:    0.00 PKD
ROOT
HETATM    1  O   UNL     1      -9.459  10.787  69.658  1.00  0.00    -0.421 OA 
HETATM    2  C   UNL     1      -9.296  11.483  68.427  1.00  0.00    -0.194 C  
HETATM    3  H   UNL     1      -9.602  11.389  70.378  1.00  0.00     0.000 HD 
ENDROOT
BRANCH   2   4
HETATM    4  C   UNL     1      -9.065  10.506  67.260  1.00  0.00    -0.143 C  
HETATM    5  S   UNL     1     -10.175   9.055  67.473  1.00  0.00    -0.258 SA 
HETATM    6  H   UNL     1      -9.967   8.173  66.419  1.00  0.00     0.000 H  
BRANCH   4   7
HETATM    7  C   UNL     1      -9.275  11.213  65.911  1.00  0.00    -0.206 C  
HETATM    8  S   UNL     1      -8.978  10.160  64.450  1.00  0.00    -0.254 SA 
HETATM    9  H   UNL     1      -9.168  10.799  63.230  1.00  0.00     0.000 H  
ENDBRANCH   4   7
ENDBRANCH   2   4
TORSDOF 2
ENDMDL
MODEL      161
REMARK 921   NORMALIZED FREE ENERGY PREDICTED BY IDOCK:   -1.29 KCAL/MOL
REMARK 922        TOTAL FREE ENERGY PREDICTED BY IDOCK:   -1.45 KCAL/MOL
REMARK 923 INTER-LIGAND FREE ENERGY PREDICTED BY IDOCK:   -1.45 KCAL/MOL
REMARK 924 INTRA-LIGAND FREE ENERGY PREDICTED BY IDOCK:   -0.00 KCAL/MOL
REMARK 927      BINDING AFFINITY PREDICTED BY RF-SCORE:    0.00 PKD
ROOT
HETATM    1  O   UNL     1     -11.540   9.856  70.847  1.00  0.00    -0.313 OA 
HETATM    2  C   UNL     1     -11.154   8.490  70.737  1.00  0.00    -0.254 C  
HETATM    3  H   UNL     1     -12.240   9.967  71.479  1.00  0.00     0.000 HD 
ENDROOT
BRANCH   2   4
HETATM    4  C   UNL     1     -10.020   8.311  69.712  1.00  0.00    -0.191 C  
HETATM    5  S   UNL     1      -8.840   9.711  69.883  1.00  0.00    -0.229 SA 
HETATM    6  H   UNL     1      -7.815   9.550  68.958  1.00  0.00     0.000 H  
BRANCH   4   7
HETATM    7  C   UNL     1      -9.339   6.944  69.891  1.00  0.00    -0.150 C  
HETATM    8  S   UNL     1     -10.459   5.513  69.719  1.00  0.00    -0.310 SA 
HETATM    9  H   UNL     1      -9.843   4.277  69.881  1.00  0.00     0.000 H  
ENDBRANCH   4   7
ENDBRANCH   2   4
TORSDOF 2
ENDMDL
MODEL      162
REMARK 921   NORMALIZED FREE ENERGY PREDICTED BY IDOCK:   -1.26 KCAL/MOL
REMARK 922        TOTAL FREE ENERGY PREDICTED BY IDOCK:   -1.42 KCAL/MOL
REMARK 923 INTER-LIGAND FREE ENERGY PREDICTED BY IDOCK:   -1.42 KCAL/MOL
REMARK 924 INTRA-LIGAND FREE ENERGY PREDICTED BY IDOCK:   -0.01 KCAL/MOL
REMARK 927      BINDING AFFINITY PREDICTED BY RF-SCORE:    0.00 PKD
ROOT
HETATM    1  O   UNL     1      -9.815   5.028  68.691  1.00  0.00    -0.151 OA 
HETATM    2  C   UNL     1     -10.811   6.018  68.931  1.00  0.00    -0.331 C  
HETATM    3  H   UNL     1     -10.189   4.156  68.691  1.00  0.00     0.000 HD 
ENDROOT
BRANCH   2   4
HETATM    4  C   UNL     1     -10.203   7.432  68.929  1.00  0.00    -0.196 C  
HETATM    5  S   UNL     1     -10.496   8.202  67.284  1.00  0.00    -0.280 SA 
HETATM    6  H   UNL     1      -9.949   9.479  67.283  1.00  0.00     0.000 H  
BRANCH   4   7
HETATM    7  C   UNL     1     -10.780   8.271  70.081  1.00  0.00    -0.239 C  
HETATM    8  S   UNL     1      -9.745   8.305  71.584  1.00  0.00    -0.220 SA 
HETATM    9  H   UNL     1     -10.267   9.063  72.626  1.00  0.00     0.000 H  
ENDBRANCH   4   7
ENDBRANCH   2   4
TORSDOF 2
ENDMDL
MODEL      163
REMARK 921   NORMALIZED FREE ENERGY PREDICTED BY IDOCK:   -1.23 KCAL/MOL
REMARK 922        TOTAL FREE ENERGY PREDICTED BY IDOCK:   -1.39 KCAL/MOL
REMARK 923 INTER-LIGAND FREE ENERGY PREDICTED BY IDOCK:   -1.39 KCAL/MOL
REMARK 924 INTRA-LIGAND FREE ENERGY PREDICTED BY IDOCK:   -0.00 KCAL/MOL
REMARK 927      BINDING AFFINITY PREDICTED BY RF-SCORE:    0.00 PKD
ROOT
HETATM    1  O   UNL     1      -8.142   9.055  72.159  1.00  0.00    -0.359 OA 
HETATM    2  C   UNL     1      -8.138   8.996  70.736  1.00  0.00    -0.166 C  
HETATM    3  H   UNL     1      -7.637   9.795  72.474  1.00  0.00     0.000 HD 
ENDROOT
BRANCH   2   4
HETATM    4  C   UNL     1      -8.957   7.796  70.226  1.00  0.00    -0.148 C  
HETATM    5  S   UNL     1      -8.075   6.244  70.670  1.00  0.00    -0.114 SA 
HETATM    6  H   UNL     1      -8.814   5.161  70.209  1.00  0.00     0.000 H  
BRANCH   4   7
HETATM    7  C   UNL     1     -10.388   7.839  70.786  1.00  0.00    -0.203 C  
HETATM    8  S   UNL     1     -11.466   6.481  70.213  1.00  0.00    -0.397 SA 
HETATM    9  H   UNL     1     -12.760   6.520  70.719  1.00  0.00     0.000 H  
ENDBRANCH   4   7
ENDBRANCH   2   4
TORSDOF 2
ENDMDL
MODEL      164
REMARK 921   NORMALIZED FREE ENERGY PREDICTED BY IDOCK:   -1.23 KCAL/MOL
REMARK 922        TOTAL FREE ENERGY PREDICTED BY IDOCK:   -1.38 KCAL/MOL
REMARK 923 INTER-LIGAND FREE ENERGY PREDICTED BY IDOCK:   -1.35 KCAL/MOL
REMARK 924 INTRA-LIGAND FREE ENERGY PREDICTED BY IDOCK:   -0.03 KCAL/MOL
REMARK 927      BINDING AFFINITY PREDICTED BY RF-SCORE:    0.00 PKD
ROOT
HETATM    1  O   UNL     1      -8.911   7.973  67.158  1.00  0.00    -0.131 OA 
HETATM    2  C   UNL     1      -9.874   8.779  66.486  1.00  0.00    -0.279 C  
HETATM    3  H   UNL     1      -8.448   7.410  66.549  1.00  0.00     0.000 HD 
ENDROOT
BRANCH   2   4
HETATM    4  C   UNL     1     -10.624   9.691  67.473  1.00  0.00    -0.277 C  
HETATM    5  S   UNL     1      -9.751   9.659  69.092  1.00  0.00    -0.188 SA 
HETATM    6  H   UNL     1     -10.428  10.483  69.983  1.00  0.00     0.000 H  
BRANCH   4   7
HETATM    7  C   UNL     1     -10.755  11.113  66.905  1.00  0.00    -0.274 C  
HETATM    8  S   UNL     1      -9.197  11.819  66.266  1.00  0.00    -0.205 SA 
HETATM    9  H   UNL     1      -9.315  13.105  65.752  1.00  0.00     0.000 H  
ENDBRANCH   4   7
ENDBRANCH   2   4
TORSDOF 2
ENDMDL
MODEL      165
REMARK 921   NORMALIZED FREE ENERGY PREDICTED BY IDOCK:   -1.21 KCAL/MOL
REMARK 922        TOTAL FREE ENERGY PREDICTED BY IDOCK:   -1.36 KCAL/MOL
REMARK 923 INTER-LIGAND FREE ENERGY PREDICTED BY IDOCK:   -1.35 KCAL/MOL
REMARK 924 INTRA-LIGAND FREE ENERGY PREDICTED BY IDOCK:   -0.01 KCAL/MOL
REMARK 927      BINDING AFFINITY PREDICTED BY RF-SCORE:    0.00 PKD
ROOT
HETATM    1  O   UNL     1     -11.116   7.812  66.814  1.00  0.00    -0.375 OA 
HETATM    2  C   UNL     1     -10.572   8.656  67.824  1.00  0.00    -0.183 C  
HETATM    3  H   UNL     1     -11.413   8.317  66.066  1.00  0.00     0.000 HD 
ENDROOT
BRANCH   2   4
HETATM    4  C   UNL     1     -10.092   7.838  69.036  1.00  0.00    -0.196 C  
HETATM    5  S   UNL     1     -10.897   6.185  68.992  1.00  0.00    -0.365 SA 
HETATM    6  H   UNL     1     -10.462   5.446  70.086  1.00  0.00     0.000 H  
BRANCH   4   7
HETATM    7  C   UNL     1      -8.557   7.744  69.052  1.00  0.00    -0.135 C  
HETATM    8  S   UNL     1      -7.740   8.460  67.585  1.00  0.00    -0.099 SA 
HETATM    9  H   UNL     1      -6.352   8.374  67.599  1.00  0.00     0.000 H  
ENDBRANCH   4   7
ENDBRANCH   2   4
TORSDOF 2
ENDMDL
MODEL      166
REMARK 921   NORMALIZED FREE ENERGY PREDICTED BY IDOCK:   -1.18 KCAL/MOL
REMARK 922        TOTAL FREE ENERGY PREDICTED BY IDOCK:   -1.33 KCAL/MOL
REMARK 923 INTER-LIGAND FREE ENERGY PREDICTED BY IDOCK:   -1.29 KCAL/MOL
REMARK 924 INTRA-LIGAND FREE ENERGY PREDICTED BY IDOCK:   -0.04 KCAL/MOL
REMARK 927      BINDING AFFINITY PREDICTED BY RF-SCORE:    0.00 PKD
ROOT
HETATM    1  O   UNL     1      -8.077   8.021  70.403  1.00  0.00    -0.107 OA 
HETATM    2  C   UNL     1      -9.046   8.631  71.250  1.00  0.00    -0.212 C  
HETATM    3  H   UNL     1      -7.245   7.919  70.850  1.00  0.00     0.000 HD 
ENDROOT
BRANCH   2   4
HETATM    4  C   UNL     1     -10.394   8.796  70.526  1.00  0.00    -0.203 C  
HETATM    5  S   UNL     1     -10.191   8.288  68.770  1.00  0.00    -0.208 SA 
HETATM    6  H   UNL     1     -11.408   8.436  68.117  1.00  0.00     0.000 H  
BRANCH   4   7
HETATM    7  C   UNL     1     -11.496   7.999  71.244  1.00  0.00    -0.269 C  
HETATM    8  S   UNL     1     -10.920   7.049  72.693  1.00  0.00    -0.293 SA 
HETATM    9  H   UNL     1     -11.916   6.328  73.342  1.00  0.00     0.000 H  
ENDBRANCH   4   7
ENDBRANCH   2   4
TORSDOF 2
ENDMDL
MODEL      167
REMARK 921   NORMALIZED FREE ENERGY PREDICTED BY IDOCK:   -1.17 KCAL/MOL
REMARK 922        TOTAL FREE ENERGY PREDICTED BY IDOCK:   -1.32 KCAL/MOL
REMARK 923 INTER-LIGAND FREE ENERGY PREDICTED BY IDOCK:   -1.29 KCAL/MOL
REMARK 924 INTRA-LIGAND FREE ENERGY PREDICTED BY IDOCK:   -0.03 KCAL/MOL
REMARK 927      BINDING AFFINITY PREDICTED BY RF-SCORE:    0.00 PKD
ROOT
HETATM    1  O   UNL     1     -11.034   8.322  67.488  1.00  0.00    -0.500 OA 
HETATM    2  C   UNL     1     -10.224   7.979  68.609  1.00  0.00    -0.206 C  
HETATM    3  H   UNL     1     -11.646   7.627  67.280  1.00  0.00     0.000 HD 
ENDROOT
BRANCH   2   4
HETATM    4  C   UNL     1      -9.232   9.106  68.947  1.00  0.00    -0.139 C  
HETATM    5  S   UNL     1      -8.920   9.098  70.759  1.00  0.00    -0.234 SA 
HETATM    6  H   UNL     1      -8.024  10.115  71.064  1.00  0.00     0.000 H  
BRANCH   4   7
HETATM    7  C   UNL     1      -7.940   8.954  68.127  1.00  0.00    -0.102 C  
HETATM    8  S   UNL     1      -7.574   7.245  67.601  1.00  0.00    -0.112 SA 
HETATM    9  H   UNL     1      -6.406   7.108  66.861  1.00  0.00     0.000 H  
ENDBRANCH   4   7
ENDBRANCH   2   4
TORSDOF 2
ENDMDL
MODEL      168
REMARK 921   NORMALIZED FREE ENERGY PREDICTED BY IDOCK:   -1.16 KCAL/MOL
REMARK 922        TOTAL FREE ENERGY PREDICTED BY IDOCK:   -1.31 KCAL/MOL
REMARK 923 INTER-LIGAND FREE ENERGY PREDICTED BY IDOCK:   -1.30 KCAL/MOL
REMARK 924 INTRA-LIGAND FREE ENERGY PREDICTED BY IDOCK:   -0.01 KCAL/MOL
REMARK 927      BINDING AFFINITY PREDICTED BY RF-SCORE:    0.00 PKD
ROOT
HETATM    1  O   UNL     1      -8.532  12.005  68.998  1.00  0.00    -0.362 OA 
HETATM    2  C   UNL     1      -8.390  10.846  68.182  1.00  0.00    -0.123 C  
HETATM    3  H   UNL     1      -8.320  12.794  68.515  1.00  0.00     0.000 HD 
ENDROOT
BRANCH   2   4
HETATM    4  C   UNL     1      -8.734   9.567  68.965  1.00  0.00    -0.142 C  
HETATM    5  S   UNL     1     -10.177   9.907  70.054  1.00  0.00    -0.267 SA 
HETATM    6  H   UNL     1     -10.487   8.752  70.761  1.00  0.00     0.000 H  
BRANCH   4   7
HETATM    7  C   UNL     1      -8.988   8.394  68.004  1.00  0.00    -0.138 C  
HETATM    8  S   UNL     1     -10.120   8.779  66.624  1.00  0.00    -0.270 SA 
HETATM    9  H   UNL     1     -10.351   7.719  65.755  1.00  0.00     0.000 H  
ENDBRANCH   4   7
ENDBRANCH   2   4
TORSDOF 2
ENDMDL
MODEL      169
REMARK 921   NORMALIZED FREE ENERGY PREDICTED BY IDOCK:   -1.16 KCAL/MOL
REMARK 922        TOTAL FREE ENERGY PREDICTED BY IDOCK:   -1.31 KCAL/MOL
REMARK 923 INTER-LIGAND FREE ENERGY PREDICTED BY IDOCK:   -1.31 KCAL/MOL
REMARK 924 INTRA-LIGAND FREE ENERGY PREDICTED BY IDOCK:   -0.00 KCAL/MOL
REMARK 927      BINDING AFFINITY PREDICTED BY RF-SCORE:    0.00 PKD
ROOT
HETATM    1  O   UNL     1      -9.316   9.106  70.874  1.00  0.00    -0.237 OA 
HETATM    2  C   UNL     1      -9.375   9.940  69.721  1.00  0.00    -0.221 C  
HETATM    3  H   UNL     1      -9.018   9.591  71.634  1.00  0.00     0.000 HD 
ENDROOT
BRANCH   2   4
HETATM    4  C   UNL     1      -9.858   9.154  68.488  1.00  0.00    -0.164 C  
HETATM    5  S   UNL     1     -10.493   7.518  69.039  1.00  0.00    -0.185 SA 
HETATM    6  H   UNL     1     -10.930   6.809  67.927  1.00  0.00     0.000 H  
BRANCH   4   7
HETATM    7  C   UNL     1     -10.910   9.960  67.710  1.00  0.00    -0.264 C  
HETATM    8  S   UNL     1     -10.218  11.219  66.583  1.00  0.00    -0.237 SA 
HETATM    9  H   UNL     1     -11.169  11.949  65.879  1.00  0.00     0.000 H  
ENDBRANCH   4   7
ENDBRANCH   2   4
TORSDOF 2
ENDMDL
MODEL      170
REMARK 921   NORMALIZED FREE ENERGY PREDICTED BY IDOCK:   -1.15 KCAL/MOL
REMARK 922        TOTAL FREE ENERGY PREDICTED BY IDOCK:   -1.30 KCAL/MOL
REMARK 923 INTER-LIGAND FREE ENERGY PREDICTED BY IDOCK:   -1.26 KCAL/MOL
REMARK 924 INTRA-LIGAND FREE ENERGY PREDICTED BY IDOCK:   -0.03 KCAL/MOL
REMARK 927      BINDING AFFINITY PREDICTED BY RF-SCORE:    0.00 PKD
ROOT
HETATM    1  O   UNL     1     -10.430   9.851  70.635  1.00  0.00    -0.292 OA 
HETATM    2  C   UNL     1     -10.225   9.401  69.300  1.00  0.00    -0.202 C  
HETATM    3  H   UNL     1     -10.326  10.792  70.701  1.00  0.00     0.000 HD 
ENDROOT
BRANCH   2   4
HETATM    4  C   UNL     1     -10.395   7.874  69.194  1.00  0.00    -0.219 C  
HETATM    5  S   UNL     1     -10.361   7.396  67.418  1.00  0.00    -0.300 SA 
HETATM    6  H   UNL     1     -10.514   6.018  67.322  1.00  0.00     0.000 H  
BRANCH   4   7
HETATM    7  C   UNL     1      -9.319   7.150  70.018  1.00  0.00    -0.154 C  
HETATM    8  S   UNL     1      -7.605   7.480  69.481  1.00  0.00    -0.096 SA 
HETATM    9  H   UNL     1      -6.632   6.825  70.226  1.00  0.00     0.000 H  
ENDBRANCH   4   7
ENDBRANCH   2   4
TORSDOF 2
ENDMDL
MODEL      171
REMARK 921   NORMALIZED FREE ENERGY PREDICTED BY IDOCK:   -1.14 KCAL/MOL
REMARK 922        TOTAL FREE ENERGY PREDICTED BY IDOCK:   -1.28 KCAL/MOL
REMARK 923 INTER-LIGAND FREE ENERGY PREDICTED BY IDOCK:   -1.27 KCAL/MOL
REMARK 924 INTRA-LIGAND FREE ENERGY PREDICTED BY IDOCK:   -0.02 KCAL/MOL
REMARK 927      BINDING AFFINITY PREDICTED BY RF-SCORE:    0.00 PKD
ROOT
HETATM    1  O   UNL     1      -7.370   5.730  72.326  1.00  0.00    -0.087 OA 
HETATM    2  C   UNL     1      -8.515   5.564  73.156  1.00  0.00    -0.118 C  
HETATM    3  H   UNL     1      -6.601   5.950  72.838  1.00  0.00     0.000 HD 
ENDROOT
BRANCH   2   4
HETATM    4  C   UNL     1      -9.760   5.208  72.325  1.00  0.00    -0.163 C  
HETATM    5  S   UNL     1     -11.039   4.503  73.444  1.00  0.00    -0.313 SA 
HETATM    6  H   UNL     1     -12.163   4.182  72.693  1.00  0.00     0.000 H  
BRANCH   4   7
HETATM    7  C   UNL     1     -10.267   6.438  71.555  1.00  0.00    -0.194 C  
HETATM    8  S   UNL     1     -11.001   7.738  72.605  1.00  0.00    -0.391 SA 
HETATM    9  H   UNL     1     -11.460   8.851  71.908  1.00  0.00     0.000 H  
ENDBRANCH   4   7
ENDBRANCH   2   4
TORSDOF 2
ENDMDL
MODEL      172
REMARK 921   NORMALIZED FREE ENERGY PREDICTED BY IDOCK:   -1.13 KCAL/MOL
REMARK 922        TOTAL FREE ENERGY PREDICTED BY IDOCK:   -1.27 KCAL/MOL
REMARK 923 INTER-LIGAND FREE ENERGY PREDICTED BY IDOCK:   -1.27 KCAL/MOL
REMARK 924 INTRA-LIGAND FREE ENERGY PREDICTED BY IDOCK:   -0.01 KCAL/MOL
REMARK 927      BINDING AFFINITY PREDICTED BY RF-SCORE:    0.00 PKD
ROOT
HETATM    1  O   UNL     1      -8.401   8.655  73.071  1.00  0.00    -0.404 OA 
HETATM    2  C   UNL     1      -9.687   8.329  72.554  1.00  0.00    -0.298 C  
HETATM    3  H   UNL     1      -8.460   9.322  73.744  1.00  0.00     0.000 HD 
ENDROOT
BRANCH   2   4
HETATM    4  C   UNL     1      -9.591   7.247  71.462  1.00  0.00    -0.156 C  
HETATM    5  S   UNL     1      -9.380   8.069  69.830  1.00  0.00    -0.155 SA 
HETATM    6  H   UNL     1      -9.293   7.092  68.845  1.00  0.00     0.000 H  
BRANCH   4   7
HETATM    7  C   UNL     1      -8.454   6.261  71.775  1.00  0.00    -0.129 C  
HETATM    8  S   UNL     1      -8.984   4.521  71.932  1.00  0.00    -0.123 SA 
HETATM    9  H   UNL     1      -7.956   3.629  72.215  1.00  0.00     0.000 H  
ENDBRANCH   4   7
ENDBRANCH   2   4
TORSDOF 2
ENDMDL
MODEL      173
REMARK 921   NORMALIZED FREE ENERGY PREDICTED BY IDOCK:   -1.13 KCAL/MOL
REMARK 922        TOTAL FREE ENERGY PREDICTED BY IDOCK:   -1.27 KCAL/MOL
REMARK 923 INTER-LIGAND FREE ENERGY PREDICTED BY IDOCK:   -1.27 KCAL/MOL
REMARK 924 INTRA-LIGAND FREE ENERGY PREDICTED BY IDOCK:   -0.00 KCAL/MOL
REMARK 927      BINDING AFFINITY PREDICTED BY RF-SCORE:    0.00 PKD
ROOT
HETATM    1  O   UNL     1      -8.674  12.655  68.465  1.00  0.00    -0.311 OA 
HETATM    2  C   UNL     1      -8.610  13.985  67.961  1.00  0.00    -0.179 C  
HETATM    3  H   UNL     1      -8.999  12.053  67.807  1.00  0.00     0.000 HD 
ENDROOT
BRANCH   2   4
HETATM    4  C   UNL     1      -8.082  14.961  69.028  1.00  0.00    -0.165 C  
HETATM    5  S   UNL     1      -6.337  15.386  68.633  1.00  0.00    -0.098 SA 
HETATM    6  H   UNL     1      -5.861  16.268  69.596  1.00  0.00     0.000 H  
BRANCH   4   7
HETATM    7  C   UNL     1      -8.983  16.203  69.119  1.00  0.00    -0.237 C  
HETATM    8  S   UNL     1      -8.356  17.661  68.216  1.00  0.00    -0.280 SA 
HETATM    9  H   UNL     1      -9.170  18.784  68.299  1.00  0.00     0.000 H  
ENDBRANCH   4   7
ENDBRANCH   2   4
TORSDOF 2
ENDMDL
MODEL      174
REMARK 921   NORMALIZED FREE ENERGY PREDICTED BY IDOCK:   -1.12 KCAL/MOL
REMARK 922        TOTAL FREE ENERGY PREDICTED BY IDOCK:   -1.26 KCAL/MOL
REMARK 923 INTER-LIGAND FREE ENERGY PREDICTED BY IDOCK:   -1.23 KCAL/MOL
REMARK 924 INTRA-LIGAND FREE ENERGY PREDICTED BY IDOCK:   -0.03 KCAL/MOL
REMARK 927      BINDING AFFINITY PREDICTED BY RF-SCORE:    0.00 PKD
ROOT
HETATM    1  O   UNL     1      -7.483   8.157  67.821  1.00  0.00    -0.091 OA 
HETATM    2  C   UNL     1      -8.681   8.429  68.542  1.00  0.00    -0.136 C  
HETATM    3  H   UNL     1      -6.783   7.894  68.405  1.00  0.00     0.000 HD 
ENDROOT
BRANCH   2   4
HETATM    4  C   UNL     1      -9.818   8.855  67.595  1.00  0.00    -0.182 C  
HETATM    5  S   UNL     1      -9.092   9.765  66.170  1.00  0.00    -0.171 SA 
HETATM    6  H   UNL     1     -10.118  10.149  65.315  1.00  0.00     0.000 H  
BRANCH   4   7
HETATM    7  C   UNL     1     -10.642   7.635  67.154  1.00  0.00    -0.340 C  
HETATM    8  S   UNL     1     -10.885   6.376  68.454  1.00  0.00    -0.313 SA 
HETATM    9  H   UNL     1     -11.630   5.272  68.055  1.00  0.00     0.000 H  
ENDBRANCH   4   7
ENDBRANCH   2   4
TORSDOF 2
ENDMDL
MODEL      175
REMARK 921   NORMALIZED FREE ENERGY PREDICTED BY IDOCK:   -1.12 KCAL/MOL
REMARK 922        TOTAL FREE ENERGY PREDICTED BY IDOCK:   -1.26 KCAL/MOL
REMARK 923 INTER-LIGAND FREE ENERGY PREDICTED BY IDOCK:   -1.22 KCAL/MOL
REMARK 924 INTRA-LIGAND FREE ENERGY PREDICTED BY IDOCK:   -0.04 KCAL/MOL
REMARK 927      BINDING AFFINITY PREDICTED BY RF-SCORE:    0.00 PKD
ROOT
HETATM    1  O   UNL     1      -8.425   5.591  71.138  1.00  0.00    -0.122 OA 
HETATM    2  C   UNL     1      -9.322   5.156  72.154  1.00  0.00    -0.139 C  
HETATM    3  H   UNL     1      -8.563   5.112  70.329  1.00  0.00     0.000 HD 
ENDROOT
BRANCH   2   4
HETATM    4  C   UNL     1      -9.099   5.933  73.465  1.00  0.00    -0.131 C  
HETATM    5  S   UNL     1      -7.645   7.040  73.257  1.00  0.00    -0.079 SA 
HETATM    6  H   UNL     1      -7.444   7.742  74.440  1.00  0.00     0.000 H  
BRANCH   4   7
HETATM    7  C   UNL     1     -10.370   6.701  73.863  1.00  0.00    -0.360 C  
HETATM    8  S   UNL     1     -10.955   7.897  72.613  1.00  0.00    -0.394 SA 
HETATM    9  H   UNL     1     -12.104   8.592  72.974  1.00  0.00     0.000 H  
ENDBRANCH   4   7
ENDBRANCH   2   4
TORSDOF 2
ENDMDL
MODEL      176
REMARK 921   NORMALIZED FREE ENERGY PREDICTED BY IDOCK:   -1.10 KCAL/MOL
REMARK 922        TOTAL FREE ENERGY PREDICTED BY IDOCK:   -1.24 KCAL/MOL
REMARK 923 INTER-LIGAND FREE ENERGY PREDICTED BY IDOCK:   -1.23 KCAL/MOL
REMARK 924 INTRA-LIGAND FREE ENERGY PREDICTED BY IDOCK:   -0.01 KCAL/MOL
REMARK 927      BINDING AFFINITY PREDICTED BY RF-SCORE:    0.00 PKD
ROOT
HETATM    1  O   UNL     1      -9.659  10.100  70.109  1.00  0.00    -0.391 OA 
HETATM    2  C   UNL     1      -8.370   9.916  69.534  1.00  0.00    -0.168 C  
HETATM    3  H   UNL     1      -9.729   9.658  70.947  1.00  0.00     0.000 HD 
ENDROOT
BRANCH   2   4
HETATM    4  C   UNL     1      -8.257  10.633  68.176  1.00  0.00    -0.116 C  
HETATM    5  S   UNL     1      -8.713   9.452  66.842  1.00  0.00    -0.128 SA 
HETATM    6  H   UNL     1      -8.612  10.100  65.616  1.00  0.00     0.000 H  
BRANCH   4   7
HETATM    7  C   UNL     1      -9.125  11.901  68.160  1.00  0.00    -0.190 C  
HETATM    8  S   UNL     1      -9.840  12.309  66.530  1.00  0.00    -0.233 SA 
HETATM    9  H   UNL     1     -10.624  13.456  66.515  1.00  0.00     0.000 H  
ENDBRANCH   4   7
ENDBRANCH   2   4
TORSDOF 2
ENDMDL
MODEL      177
REMARK 921   NORMALIZED FREE ENERGY PREDICTED BY IDOCK:   -1.08 KCAL/MOL
REMARK 922        TOTAL FREE ENERGY PREDICTED BY IDOCK:   -1.22 KCAL/MOL
REMARK 923 INTER-LIGAND FREE ENERGY PREDICTED BY IDOCK:   -1.22 KCAL/MOL
REMARK 924 INTRA-LIGAND FREE ENERGY PREDICTED BY IDOCK:   -0.00 KCAL/MOL
REMARK 927      BINDING AFFINITY PREDICTED BY RF-SCORE:    0.00 PKD
ROOT
HETATM    1  O   UNL     1     -11.143   8.188  67.978  1.00  0.00    -0.451 OA 
HETATM    2  C   UNL     1     -10.301   8.924  67.096  1.00  0.00    -0.281 C  
HETATM    3  H   UNL     1     -11.977   8.626  68.103  1.00  0.00     0.000 HD 
ENDROOT
BRANCH   2   4
HETATM    4  C   UNL     1      -8.950   8.214  66.893  1.00  0.00    -0.140 C  
HETATM    5  S   UNL     1      -9.193   6.404  67.109  1.00  0.00    -0.127 SA 
HETATM    6  H   UNL     1      -7.974   5.763  66.926  1.00  0.00     0.000 H  
BRANCH   4   7
HETATM    7  C   UNL     1      -8.353   8.567  65.522  1.00  0.00    -0.156 C  
HETATM    8  S   UNL     1      -7.112   7.377  64.908  1.00  0.00    -0.063 SA 
HETATM    9  H   UNL     1      -6.571   7.697  63.667  1.00  0.00     0.000 H  
ENDBRANCH   4   7
ENDBRANCH   2   4
TORSDOF 2
ENDMDL
MODEL      178
REMARK 921   NORMALIZED FREE ENERGY PREDICTED BY IDOCK:   -1.08 KCAL/MOL
REMARK 922        TOTAL FREE ENERGY PREDICTED BY IDOCK:   -1.22 KCAL/MOL
REMARK 923 INTER-LIGAND FREE ENERGY PREDICTED BY IDOCK:   -1.20 KCAL/MOL
REMARK 924 INTRA-LIGAND FREE ENERGY PREDICTED BY IDOCK:   -0.02 KCAL/MOL
REMARK 927      BINDING AFFINITY PREDICTED BY RF-SCORE:    0.00 PKD
ROOT
HETATM    1  O   UNL     1      -8.352   9.767  67.649  1.00  0.00    -0.114 OA 
HETATM    2  C   UNL     1      -9.109   9.034  68.607  1.00  0.00    -0.137 C  
HETATM    3  H   UNL     1      -8.075   9.211  66.931  1.00  0.00     0.000 HD 
ENDROOT
BRANCH   2   4
HETATM    4  C   UNL     1      -9.557   9.936  69.771  1.00  0.00    -0.231 C  
HETATM    5  S   UNL     1     -11.055  10.870  69.255  1.00  0.00    -0.269 SA 
HETATM    6  H   UNL     1     -11.460  11.684  70.306  1.00  0.00     0.000 H  
BRANCH   4   7
HETATM    7  C   UNL     1      -9.795   9.103  71.041  1.00  0.00    -0.296 C  
HETATM    8  S   UNL     1      -9.246   7.365  70.920  1.00  0.00    -0.154 SA 
HETATM    9  H   UNL     1      -9.461   6.612  72.069  1.00  0.00     0.000 H  
ENDBRANCH   4   7
ENDBRANCH   2   4
TORSDOF 2
ENDMDL
MODEL      179
REMARK 921   NORMALIZED FREE ENERGY PREDICTED BY IDOCK:   -1.06 KCAL/MOL
REMARK 922        TOTAL FREE ENERGY PREDICTED BY IDOCK:   -1.20 KCAL/MOL
REMARK 923 INTER-LIGAND FREE ENERGY PREDICTED BY IDOCK:   -1.20 KCAL/MOL
REMARK 924 INTRA-LIGAND FREE ENERGY PREDICTED BY IDOCK:   -0.00 KCAL/MOL
REMARK 927      BINDING AFFINITY PREDICTED BY RF-SCORE:    0.00 PKD
ROOT
HETATM    1  O   UNL     1      -7.806   9.255  67.127  1.00  0.00    -0.098 OA 
HETATM    2  C   UNL     1      -8.735  10.244  66.696  1.00  0.00    -0.127 C  
HETATM    3  H   UNL     1      -7.438   8.783  66.390  1.00  0.00     0.000 HD 
ENDROOT
BRANCH   2   4
HETATM    4  C   UNL     1      -9.330  11.009  67.892  1.00  0.00    -0.158 C  
HETATM    5  S   UNL     1      -8.678  12.728  67.881  1.00  0.00    -0.195 SA 
HETATM    6  H   UNL     1      -9.216  13.419  68.960  1.00  0.00     0.000 H  
BRANCH   4   7
HETATM    7  C   UNL     1     -10.866  10.963  67.854  1.00  0.00    -0.247 C  
HETATM    8  S   UNL     1     -11.680  11.556  69.377  1.00  0.00    -0.372 SA 
HETATM    9  H   UNL     1     -13.069  11.514  69.343  1.00  0.00     0.000 H  
ENDBRANCH   4   7
ENDBRANCH   2   4
TORSDOF 2
ENDMDL
MODEL      180
REMARK 921   NORMALIZED FREE ENERGY PREDICTED BY IDOCK:   -1.06 KCAL/MOL
REMARK 922        TOTAL FREE ENERGY PREDICTED BY IDOCK:   -1.19 KCAL/MOL
REMARK 923 INTER-LIGAND FREE ENERGY PREDICTED BY IDOCK:   -1.19 KCAL/MOL
REMARK 924 INTRA-LIGAND FREE ENERGY PREDICTED BY IDOCK:   -0.01 KCAL/MOL
REMARK 927      BINDING AFFINITY PREDICTED BY RF-SCORE:    0.00 PKD
ROOT
HETATM    1  O   UNL     1     -11.139   8.186  67.979  1.00  0.00    -0.451 OA 
HETATM    2  C   UNL     1     -10.326   8.938  67.083  1.00  0.00    -0.281 C  
HETATM    3  H   UNL     1     -11.974   8.613  68.127  1.00  0.00     0.000 HD 
ENDROOT
BRANCH   2   4
HETATM    4  C   UNL     1      -8.973   8.246  66.843  1.00  0.00    -0.146 C  
HETATM    5  S   UNL     1      -7.671   9.533  66.669  1.00  0.00    -0.098 SA 
HETATM    6  H   UNL     1      -6.448   8.908  66.453  1.00  0.00     0.000 H  
BRANCH   4   7
HETATM    7  C   UNL     1      -8.666   7.249  67.973  1.00  0.00    -0.127 C  
HETATM    8  S   UNL     1      -7.137   6.280  67.733  1.00  0.00    -0.083 SA 
HETATM    9  H   UNL     1      -6.860   5.379  68.754  1.00  0.00     0.000 H  
ENDBRANCH   4   7
ENDBRANCH   2   4
TORSDOF 2
ENDMDL
MODEL      181
REMARK 921   NORMALIZED FREE ENERGY PREDICTED BY IDOCK:   -1.05 KCAL/MOL
REMARK 922        TOTAL FREE ENERGY PREDICTED BY IDOCK:   -1.19 KCAL/MOL
REMARK 923 INTER-LIGAND FREE ENERGY PREDICTED BY IDOCK:   -1.18 KCAL/MOL
REMARK 924 INTRA-LIGAND FREE ENERGY PREDICTED BY IDOCK:   -0.00 KCAL/MOL
REMARK 927      BINDING AFFINITY PREDICTED BY RF-SCORE:    0.00 PKD
ROOT
HETATM    1  O   UNL     1      -9.082  10.288  67.723  1.00  0.00    -0.134 OA 
HETATM    2  C   UNL     1      -8.795  11.050  66.555  1.00  0.00    -0.169 C  
HETATM    3  H   UNL     1      -9.301  10.851  68.456  1.00  0.00     0.000 HD 
ENDROOT
BRANCH   2   4
HETATM    4  C   UNL     1      -8.441  10.137  65.367  1.00  0.00    -0.156 C  
HETATM    5  S   UNL     1      -7.914   8.498  66.015  1.00  0.00    -0.111 SA 
HETATM    6  H   UNL     1      -7.595   7.674  64.942  1.00  0.00     0.000 H  
BRANCH   4   7
HETATM    7  C   UNL     1      -9.626  10.030  64.394  1.00  0.00    -0.258 C  
HETATM    8  S   UNL     1      -9.621  11.273  63.056  1.00  0.00    -0.356 SA 
HETATM    9  H   UNL     1     -10.693  11.177  62.176  1.00  0.00     0.000 H  
ENDBRANCH   4   7
ENDBRANCH   2   4
TORSDOF 2
ENDMDL
MODEL      182
REMARK 921   NORMALIZED FREE ENERGY PREDICTED BY IDOCK:   -1.03 KCAL/MOL
REMARK 922        TOTAL FREE ENERGY PREDICTED BY IDOCK:   -1.16 KCAL/MOL
REMARK 923 INTER-LIGAND FREE ENERGY PREDICTED BY IDOCK:   -1.16 KCAL/MOL
REMARK 924 INTRA-LIGAND FREE ENERGY PREDICTED BY IDOCK:   -0.00 KCAL/MOL
REMARK 927      BINDING AFFINITY PREDICTED BY RF-SCORE:    0.00 PKD
ROOT
HETATM    1  O   UNL     1      -8.475  11.387  65.424  1.00  0.00    -0.387 OA 
HETATM    2  C   UNL     1      -8.052  10.079  65.793  1.00  0.00    -0.128 C  
HETATM    3  H   UNL     1      -7.772  11.871  65.007  1.00  0.00     0.000 HD 
ENDROOT
BRANCH   2   4
HETATM    4  C   UNL     1      -9.191   9.294  66.468  1.00  0.00    -0.161 C  
HETATM    5  S   UNL     1      -8.869   7.494  66.272  1.00  0.00    -0.159 SA 
HETATM    6  H   UNL     1      -9.897   6.786  66.882  1.00  0.00     0.000 H  
BRANCH   4   7
HETATM    7  C   UNL     1      -9.334   9.708  67.942  1.00  0.00    -0.128 C  
HETATM    8  S   UNL     1     -10.395   8.605  68.938  1.00  0.00    -0.194 SA 
HETATM    9  H   UNL     1     -10.526   8.980  70.270  1.00  0.00     0.000 H  
ENDBRANCH   4   7
ENDBRANCH   2   4
TORSDOF 2
ENDMDL
MODEL      183
REMARK 921   NORMALIZED FREE ENERGY PREDICTED BY IDOCK:   -1.02 KCAL/MOL
REMARK 922        TOTAL FREE ENERGY PREDICTED BY IDOCK:   -1.15 KCAL/MOL
REMARK 923 INTER-LIGAND FREE ENERGY PREDICTED BY IDOCK:   -1.12 KCAL/MOL
REMARK 924 INTRA-LIGAND FREE ENERGY PREDICTED BY IDOCK:   -0.03 KCAL/MOL
REMARK 927      BINDING AFFINITY PREDICTED BY RF-SCORE:    0.00 PKD
ROOT
HETATM    1  O   UNL     1      -9.232   4.922  63.237  1.00  0.00    -0.329 OA 
HETATM    2  C   UNL     1      -8.126   5.678  63.720  1.00  0.00    -0.120 C  
HETATM    3  H   UNL     1      -9.266   4.928  62.288  1.00  0.00     0.000 HD 
ENDROOT
BRANCH   2   4
HETATM    4  C   UNL     1      -8.072   5.667  65.258  1.00  0.00    -0.125 C  
HETATM    5  S   UNL     1      -8.469   7.352  65.878  1.00  0.00    -0.150 SA 
HETATM    6  H   UNL     1      -8.421   7.342  67.266  1.00  0.00     0.000 H  
BRANCH   4   7
HETATM    7  C   UNL     1      -9.016   4.595  65.826  1.00  0.00    -0.134 C  
HETATM    8  S   UNL     1     -10.511   5.256  66.638  1.00  0.00    -0.262 SA 
HETATM    9  H   UNL     1     -11.365   4.286  67.152  1.00  0.00     0.000 H  
ENDBRANCH   4   7
ENDBRANCH   2   4
TORSDOF 2
ENDMDL
MODEL      184
REMARK 921   NORMALIZED FREE ENERGY PREDICTED BY IDOCK:   -1.02 KCAL/MOL
REMARK 922        TOTAL FREE ENERGY PREDICTED BY IDOCK:   -1.15 KCAL/MOL
REMARK 923 INTER-LIGAND FREE ENERGY PREDICTED BY IDOCK:   -1.15 KCAL/MOL
REMARK 924 INTRA-LIGAND FREE ENERGY PREDICTED BY IDOCK:   -0.00 KCAL/MOL
REMARK 927      BINDING AFFINITY PREDICTED BY RF-SCORE:    0.00 PKD
ROOT
HETATM    1  O   UNL     1      -8.667   9.605  70.132  1.00  0.00    -0.211 OA 
HETATM    2  C   UNL     1      -8.632   8.212  69.834  1.00  0.00    -0.130 C  
HETATM    3  H   UNL     1      -7.956   9.851  70.711  1.00  0.00     0.000 HD 
ENDROOT
BRANCH   2   4
HETATM    4  C   UNL     1      -9.785   7.813  68.896  1.00  0.00    -0.160 C  
HETATM    5  S   UNL     1     -10.333   9.300  67.964  1.00  0.00    -0.226 SA 
HETATM    6  H   UNL     1     -11.374   8.940  67.117  1.00  0.00     0.000 H  
BRANCH   4   7
HETATM    7  C   UNL     1      -9.356   6.664  67.969  1.00  0.00    -0.113 C  
HETATM    8  S   UNL     1     -10.684   6.025  66.892  1.00  0.00    -0.310 SA 
HETATM    9  H   UNL     1     -10.297   4.985  66.054  1.00  0.00     0.000 H  
ENDBRANCH   4   7
ENDBRANCH   2   4
TORSDOF 2
ENDMDL
MODEL      185
REMARK 921   NORMALIZED FREE ENERGY PREDICTED BY IDOCK:   -1.00 KCAL/MOL
REMARK 922        TOTAL FREE ENERGY PREDICTED BY IDOCK:   -1.13 KCAL/MOL
REMARK 923 INTER-LIGAND FREE ENERGY PREDICTED BY IDOCK:   -1.12 KCAL/MOL
REMARK 924 INTRA-LIGAND FREE ENERGY PREDICTED BY IDOCK:   -0.00 KCAL/MOL
REMARK 927      BINDING AFFINITY PREDICTED BY RF-SCORE:    0.00 PKD
ROOT
HETATM    1  O   UNL     1     -10.943   4.595  66.192  1.00  0.00    -0.558 OA 
HETATM    2  C   UNL     1     -10.085   5.717  66.373  1.00  0.00    -0.156 C  
HETATM    3  H   UNL     1     -11.545   4.734  65.471  1.00  0.00     0.000 HD 
ENDROOT
BRANCH   2   4
HETATM    4  C   UNL     1      -9.109   5.491  67.542  1.00  0.00    -0.107 C  
HETATM    5  S   UNL     1      -7.621   4.614  66.910  1.00  0.00    -0.087 SA 
HETATM    6  H   UNL     1      -6.740   4.411  67.966  1.00  0.00     0.000 H  
BRANCH   4   7
HETATM    7  C   UNL     1      -8.761   6.824  68.223  1.00  0.00    -0.123 C  
HETATM    8  S   UNL     1      -7.394   6.724  69.429  1.00  0.00    -0.094 SA 
HETATM    9  H   UNL     1      -7.079   7.930  70.045  1.00  0.00     0.000 H  
ENDBRANCH   4   7
ENDBRANCH   2   4
TORSDOF 2
ENDMDL
MODEL      186
REMARK 921   NORMALIZED FREE ENERGY PREDICTED BY IDOCK:   -0.99 KCAL/MOL
REMARK 922        TOTAL FREE ENERGY PREDICTED BY IDOCK:   -1.12 KCAL/MOL
REMARK 923 INTER-LIGAND FREE ENERGY PREDICTED BY IDOCK:   -1.11 KCAL/MOL
REMARK 924 INTRA-LIGAND FREE ENERGY PREDICTED BY IDOCK:   -0.01 KCAL/MOL
REMARK 927      BINDING AFFINITY PREDICTED BY RF-SCORE:    0.00 PKD
ROOT
HETATM    1  O   UNL     1      -8.874   6.114  62.880  1.00  0.00    -0.329 OA 
HETATM    2  C   UNL     1      -8.315   5.435  64.001  1.00  0.00    -0.116 C  
HETATM    3  H   UNL     1      -8.465   6.961  62.753  1.00  0.00     0.000 HD 
ENDROOT
BRANCH   2   4
HETATM    4  C   UNL     1      -8.977   4.061  64.207  1.00  0.00    -0.138 C  
HETATM    5  S   UNL     1      -9.374   3.855  65.991  1.00  0.00    -0.180 SA 
HETATM    6  H   UNL     1      -9.972   2.614  66.177  1.00  0.00     0.000 H  
BRANCH   4   7
HETATM    7  C   UNL     1     -10.217   3.916  63.310  1.00  0.00    -0.173 C  
HETATM    8  S   UNL     1     -10.580   2.204  62.789  1.00  0.00    -0.169 SA 
HETATM    9  H   UNL     1     -11.701   2.074  61.977  1.00  0.00     0.000 H  
ENDBRANCH   4   7
ENDBRANCH   2   4
TORSDOF 2
ENDMDL
MODEL      187
REMARK 921   NORMALIZED FREE ENERGY PREDICTED BY IDOCK:   -0.97 KCAL/MOL
REMARK 922        TOTAL FREE ENERGY PREDICTED BY IDOCK:   -1.10 KCAL/MOL
REMARK 923 INTER-LIGAND FREE ENERGY PREDICTED BY IDOCK:   -1.09 KCAL/MOL
REMARK 924 INTRA-LIGAND FREE ENERGY PREDICTED BY IDOCK:   -0.01 KCAL/MOL
REMARK 927      BINDING AFFINITY PREDICTED BY RF-SCORE:    0.00 PKD
ROOT
HETATM    1  O   UNL     1     -10.658  10.659  68.653  1.00  0.00    -0.179 OA 
HETATM    2  C   UNL     1     -10.755  10.363  67.263  1.00  0.00    -0.273 C  
HETATM    3  H   UNL     1     -11.475  10.476  69.101  1.00  0.00     0.000 HD 
ENDROOT
BRANCH   2   4
HETATM    4  C   UNL     1      -9.430  10.658  66.537  1.00  0.00    -0.169 C  
HETATM    5  S   UNL     1      -8.934  12.393  66.890  1.00  0.00    -0.205 SA 
HETATM    6  H   UNL     1      -7.738  12.660  66.234  1.00  0.00     0.000 H  
BRANCH   4   7
HETATM    7  C   UNL     1      -8.350   9.644  66.946  1.00  0.00    -0.117 C  
HETATM    8  S   UNL     1      -8.433   8.050  66.059  1.00  0.00    -0.142 SA 
HETATM    9  H   UNL     1      -7.457   7.132  66.429  1.00  0.00     0.000 H  
ENDBRANCH   4   7
ENDBRANCH   2   4
TORSDOF 2
ENDMDL
MODEL      188
REMARK 921   NORMALIZED FREE ENERGY PREDICTED BY IDOCK:   -0.97 KCAL/MOL
REMARK 922        TOTAL FREE ENERGY PREDICTED BY IDOCK:   -1.09 KCAL/MOL
REMARK 923 INTER-LIGAND FREE ENERGY PREDICTED BY IDOCK:   -1.09 KCAL/MOL
REMARK 924 INTRA-LIGAND FREE ENERGY PREDICTED BY IDOCK:   -0.00 KCAL/MOL
REMARK 927      BINDING AFFINITY PREDICTED BY RF-SCORE:    0.00 PKD
ROOT
HETATM    1  O   UNL     1      -9.198   8.388  69.822  1.00  0.00    -0.155 OA 
HETATM    2  C   UNL     1     -10.003   7.221  69.685  1.00  0.00    -0.176 C  
HETATM    3  H   UNL     1      -9.460   8.899  70.578  1.00  0.00     0.000 HD 
ENDROOT
BRANCH   2   4
HETATM    4  C   UNL     1      -9.578   6.391  68.460  1.00  0.00    -0.122 C  
HETATM    5  S   UNL     1      -9.034   4.729  69.029  1.00  0.00    -0.110 SA 
HETATM    6  H   UNL     1      -8.650   3.980  67.923  1.00  0.00     0.000 H  
BRANCH   4   7
HETATM    7  C   UNL     1     -10.720   6.315  67.434  1.00  0.00    -0.331 C  
HETATM    8  S   UNL     1     -10.448   5.115  66.085  1.00  0.00    -0.198 SA 
HETATM    9  H   UNL     1     -11.480   5.047  65.157  1.00  0.00     0.000 H  
ENDBRANCH   4   7
ENDBRANCH   2   4
TORSDOF 2
ENDMDL
MODEL      189
REMARK 921   NORMALIZED FREE ENERGY PREDICTED BY IDOCK:   -0.96 KCAL/MOL
REMARK 922        TOTAL FREE ENERGY PREDICTED BY IDOCK:   -1.09 KCAL/MOL
REMARK 923 INTER-LIGAND FREE ENERGY PREDICTED BY IDOCK:   -1.07 KCAL/MOL
REMARK 924 INTRA-LIGAND FREE ENERGY PREDICTED BY IDOCK:   -0.02 KCAL/MOL
REMARK 927      BINDING AFFINITY PREDICTED BY RF-SCORE:    0.00 PKD
ROOT
HETATM    1  O   UNL     1      -7.995   8.166  68.544  1.00  0.00    -0.121 OA 
HETATM    2  C   UNL     1      -8.472   6.861  68.230  1.00  0.00    -0.125 C  
HETATM    3  H   UNL     1      -7.492   8.164  69.350  1.00  0.00     0.000 HD 
ENDROOT
BRANCH   2   4
HETATM    4  C   UNL     1      -9.286   6.864  66.924  1.00  0.00    -0.148 C  
HETATM    5  S   UNL     1     -11.025   6.401  67.308  1.00  0.00    -0.347 SA 
HETATM    6  H   UNL     1     -11.760   6.404  66.129  1.00  0.00     0.000 H  
BRANCH   4   7
HETATM    7  C   UNL     1      -9.183   8.229  66.224  1.00  0.00    -0.203 C  
HETATM    8  S   UNL     1      -7.843   8.347  64.990  1.00  0.00    -0.125 SA 
HETATM    9  H   UNL     1      -7.750   9.581  64.357  1.00  0.00     0.000 H  
ENDBRANCH   4   7
ENDBRANCH   2   4
TORSDOF 2
ENDMDL
MODEL      190
REMARK 921   NORMALIZED FREE ENERGY PREDICTED BY IDOCK:   -0.93 KCAL/MOL
REMARK 922        TOTAL FREE ENERGY PREDICTED BY IDOCK:   -1.05 KCAL/MOL
REMARK 923 INTER-LIGAND FREE ENERGY PREDICTED BY IDOCK:   -1.02 KCAL/MOL
REMARK 924 INTRA-LIGAND FREE ENERGY PREDICTED BY IDOCK:   -0.03 KCAL/MOL
REMARK 927      BINDING AFFINITY PREDICTED BY RF-SCORE:    0.00 PKD
ROOT
HETATM    1  O   UNL     1      -9.209  10.064  70.419  1.00  0.00    -0.364 OA 
HETATM    2  C   UNL     1      -8.040   9.254  70.348  1.00  0.00    -0.160 C  
HETATM    3  H   UNL     1      -9.149  10.694  71.127  1.00  0.00     0.000 HD 
ENDROOT
BRANCH   2   4
HETATM    4  C   UNL     1      -8.137   8.235  69.199  1.00  0.00    -0.120 C  
HETATM    5  S   UNL     1      -6.683   8.448  68.092  1.00  0.00    -0.066 SA 
HETATM    6  H   UNL     1      -6.770   7.528  67.055  1.00  0.00     0.000 H  
BRANCH   4   7
HETATM    7  C   UNL     1      -8.249   6.804  69.751  1.00  0.00    -0.127 C  
HETATM    8  S   UNL     1      -9.961   6.214  69.980  1.00  0.00    -0.181 SA 
HETATM    9  H   UNL     1     -10.063   4.921  70.481  1.00  0.00     0.000 H  
ENDBRANCH   4   7
ENDBRANCH   2   4
TORSDOF 2
ENDMDL
MODEL      191
REMARK 921   NORMALIZED FREE ENERGY PREDICTED BY IDOCK:   -0.92 KCAL/MOL
REMARK 922        TOTAL FREE ENERGY PREDICTED BY IDOCK:   -1.04 KCAL/MOL
REMARK 923 INTER-LIGAND FREE ENERGY PREDICTED BY IDOCK:   -1.03 KCAL/MOL
REMARK 924 INTRA-LIGAND FREE ENERGY PREDICTED BY IDOCK:   -0.00 KCAL/MOL
REMARK 927      BINDING AFFINITY PREDICTED BY RF-SCORE:    0.00 PKD
ROOT
HETATM    1  O   UNL     1      -8.932   5.696  63.316  1.00  0.00    -0.331 OA 
HETATM    2  C   UNL     1      -8.263   5.673  64.573  1.00  0.00    -0.125 C  
HETATM    3  H   UNL     1      -8.393   6.099  62.646  1.00  0.00     0.000 HD 
ENDROOT
BRANCH   2   4
HETATM    4  C   UNL     1      -9.137   5.020  65.659  1.00  0.00    -0.156 C  
HETATM    5  S   UNL     1      -9.146   3.199  65.397  1.00  0.00    -0.149 SA 
HETATM    6  H   UNL     1      -9.935   2.609  66.377  1.00  0.00     0.000 H  
BRANCH   4   7
HETATM    7  C   UNL     1      -8.641   5.409  67.061  1.00  0.00    -0.109 C  
HETATM    8  S   UNL     1      -9.956   5.528  68.322  1.00  0.00    -0.164 SA 
HETATM    9  H   UNL     1      -9.507   5.881  69.590  1.00  0.00     0.000 H  
ENDBRANCH   4   7
ENDBRANCH   2   4
TORSDOF 2
ENDMDL
MODEL      192
REMARK 921   NORMALIZED FREE ENERGY PREDICTED BY IDOCK:   -0.92 KCAL/MOL
REMARK 922        TOTAL FREE ENERGY PREDICTED BY IDOCK:   -1.04 KCAL/MOL
REMARK 923 INTER-LIGAND FREE ENERGY PREDICTED BY IDOCK:   -1.03 KCAL/MOL
REMARK 924 INTRA-LIGAND FREE ENERGY PREDICTED BY IDOCK:   -0.01 KCAL/MOL
REMARK 927      BINDING AFFINITY PREDICTED BY RF-SCORE:    0.00 PKD
ROOT
HETATM    1  O   UNL     1      -9.081   9.549  71.265  1.00  0.00    -0.315 OA 
HETATM    2  C   UNL     1      -8.171   8.502  70.946  1.00  0.00    -0.133 C  
HETATM    3  H   UNL     1      -8.763  10.073  71.990  1.00  0.00     0.000 HD 
ENDROOT
BRANCH   2   4
HETATM    4  C   UNL     1      -8.686   7.654  69.769  1.00  0.00    -0.140 C  
HETATM    5  S   UNL     1     -10.339   8.283  69.263  1.00  0.00    -0.212 SA 
HETATM    6  H   UNL     1     -10.804   7.518  68.200  1.00  0.00     0.000 H  
BRANCH   4   7
HETATM    7  C   UNL     1      -7.675   7.662  68.611  1.00  0.00    -0.119 C  
HETATM    8  S   UNL     1      -8.180   8.665  67.172  1.00  0.00    -0.107 SA 
HETATM    9  H   UNL     1      -7.266   8.672  66.125  1.00  0.00     0.000 H  
ENDBRANCH   4   7
ENDBRANCH   2   4
TORSDOF 2
ENDMDL
MODEL      193
REMARK 921   NORMALIZED FREE ENERGY PREDICTED BY IDOCK:   -0.91 KCAL/MOL
REMARK 922        TOTAL FREE ENERGY PREDICTED BY IDOCK:   -1.03 KCAL/MOL
REMARK 923 INTER-LIGAND FREE ENERGY PREDICTED BY IDOCK:   -1.03 KCAL/MOL
REMARK 924 INTRA-LIGAND FREE ENERGY PREDICTED BY IDOCK:   -0.00 KCAL/MOL
REMARK 927      BINDING AFFINITY PREDICTED BY RF-SCORE:    0.00 PKD
ROOT
HETATM    1  O   UNL     1      -7.897   5.307  69.969  1.00  0.00    -0.077 OA 
HETATM    2  C   UNL     1      -9.208   5.479  70.497  1.00  0.00    -0.148 C  
HETATM    3  H   UNL     1      -7.843   4.528  69.428  1.00  0.00     0.000 HD 
ENDROOT
BRANCH   2   4
HETATM    4  C   UNL     1      -9.295   6.742  71.373  1.00  0.00    -0.157 C  
HETATM    5  S   UNL     1      -7.598   7.217  71.899  1.00  0.00    -0.086 SA 
HETATM    6  H   UNL     1      -7.677   8.357  72.689  1.00  0.00     0.000 H  
BRANCH   4   7
HETATM    7  C   UNL     1     -10.016   7.873  70.622  1.00  0.00    -0.186 C  
HETATM    8  S   UNL     1     -11.122   8.887  71.663  1.00  0.00    -0.373 SA 
HETATM    9  H   UNL     1     -11.774   9.910  70.984  1.00  0.00     0.000 H  
ENDBRANCH   4   7
ENDBRANCH   2   4
TORSDOF 2
ENDMDL
MODEL      194
REMARK 921   NORMALIZED FREE ENERGY PREDICTED BY IDOCK:   -0.91 KCAL/MOL
REMARK 922        TOTAL FREE ENERGY PREDICTED BY IDOCK:   -1.03 KCAL/MOL
REMARK 923 INTER-LIGAND FREE ENERGY PREDICTED BY IDOCK:   -0.99 KCAL/MOL
REMARK 924 INTRA-LIGAND FREE ENERGY PREDICTED BY IDOCK:   -0.03 KCAL/MOL
REMARK 927      BINDING AFFINITY PREDICTED BY RF-SCORE:    0.00 PKD
ROOT
HETATM    1  O   UNL     1      -7.605   3.165  71.804  1.00  0.00    -0.050 OA 
HETATM    2  C   UNL     1      -8.996   3.247  71.511  1.00  0.00    -0.096 C  
HETATM    3  H   UNL     1      -7.340   2.267  71.964  1.00  0.00     0.000 HD 
ENDROOT
BRANCH   2   4
HETATM    4  C   UNL     1      -9.426   4.702  71.252  1.00  0.00    -0.158 C  
HETATM    5  S   UNL     1      -9.853   4.887  69.472  1.00  0.00    -0.224 SA 
HETATM    6  H   UNL     1     -10.242   6.201  69.239  1.00  0.00     0.000 H  
BRANCH   4   7
HETATM    7  C   UNL     1     -10.588   5.097  72.178  1.00  0.00    -0.211 C  
HETATM    8  S   UNL     1     -10.240   4.888  73.959  1.00  0.00    -0.252 SA 
HETATM    9  H   UNL     1     -11.291   5.244  74.797  1.00  0.00     0.000 H  
ENDBRANCH   4   7
ENDBRANCH   2   4
TORSDOF 2
ENDMDL
MODEL      195
REMARK 921   NORMALIZED FREE ENERGY PREDICTED BY IDOCK:   -0.90 KCAL/MOL
REMARK 922        TOTAL FREE ENERGY PREDICTED BY IDOCK:   -1.01 KCAL/MOL
REMARK 923 INTER-LIGAND FREE ENERGY PREDICTED BY IDOCK:   -0.98 KCAL/MOL
REMARK 924 INTRA-LIGAND FREE ENERGY PREDICTED BY IDOCK:   -0.03 KCAL/MOL
REMARK 927      BINDING AFFINITY PREDICTED BY RF-SCORE:    0.00 PKD
ROOT
HETATM    1  O   UNL     1      -7.726   5.946  71.061  1.00  0.00    -0.097 OA 
HETATM    2  C   UNL     1      -8.903   5.441  71.684  1.00  0.00    -0.135 C  
HETATM    3  H   UNL     1      -7.046   6.120  71.701  1.00  0.00     0.000 HD 
ENDROOT
BRANCH   2   4
HETATM    4  C   UNL     1     -10.005   5.158  70.647  1.00  0.00    -0.226 C  
HETATM    5  S   UNL     1     -10.479   6.740  69.838  1.00  0.00    -0.223 SA 
HETATM    6  H   UNL     1     -11.473   6.484  68.901  1.00  0.00     0.000 H  
BRANCH   4   7
HETATM    7  C   UNL     1      -9.537   4.099  69.635  1.00  0.00    -0.207 C  
HETATM    8  S   UNL     1      -8.879   2.572  70.389  1.00  0.00    -0.093 SA 
HETATM    9  H   UNL     1      -8.455   1.614  69.474  1.00  0.00     0.000 H  
ENDBRANCH   4   7
ENDBRANCH   2   4
TORSDOF 2
ENDMDL
MODEL      196
REMARK 921   NORMALIZED FREE ENERGY PREDICTED BY IDOCK:   -0.89 KCAL/MOL
REMARK 922        TOTAL FREE ENERGY PREDICTED BY IDOCK:   -1.01 KCAL/MOL
REMARK 923 INTER-LIGAND FREE ENERGY PREDICTED BY IDOCK:   -1.01 KCAL/MOL
REMARK 924 INTRA-LIGAND FREE ENERGY PREDICTED BY IDOCK:   -0.00 KCAL/MOL
REMARK 927      BINDING AFFINITY PREDICTED BY RF-SCORE:    0.00 PKD
ROOT
HETATM    1  O   UNL     1      -9.752   2.769  67.662  1.00  0.00    -0.350 OA 
HETATM    2  C   UNL     1      -9.573   3.850  66.753  1.00  0.00    -0.198 C  
HETATM    3  H   UNL     1     -10.010   1.976  67.208  1.00  0.00     0.000 HD 
ENDROOT
BRANCH   2   4
HETATM    4  C   UNL     1      -9.155   5.135  67.489  1.00  0.00    -0.114 C  
HETATM    5  S   UNL     1      -9.997   5.183  69.124  1.00  0.00    -0.200 SA 
HETATM    6  H   UNL     1      -9.618   6.343  69.789  1.00  0.00     0.000 H  
BRANCH   4   7
HETATM    7  C   UNL     1      -7.625   5.215  67.614  1.00  0.00    -0.087 C  
HETATM    8  S   UNL     1      -6.768   5.751  66.094  1.00  0.00    -0.058 SA 
HETATM    9  H   UNL     1      -5.384   5.822  66.207  1.00  0.00     0.000 H  
ENDBRANCH   4   7
ENDBRANCH   2   4
TORSDOF 2
ENDMDL
MODEL      197
REMARK 921   NORMALIZED FREE ENERGY PREDICTED BY IDOCK:   -0.89 KCAL/MOL
REMARK 922        TOTAL FREE ENERGY PREDICTED BY IDOCK:   -1.01 KCAL/MOL
REMARK 923 INTER-LIGAND FREE ENERGY PREDICTED BY IDOCK:   -1.01 KCAL/MOL
REMARK 924 INTRA-LIGAND FREE ENERGY PREDICTED BY IDOCK:   -0.00 KCAL/MOL
REMARK 927      BINDING AFFINITY PREDICTED BY RF-SCORE:    0.00 PKD
ROOT
HETATM    1  O   UNL     1      -7.841   5.212  66.851  1.00  0.00    -0.098 OA 
HETATM    2  C   UNL     1      -8.080   3.810  66.788  1.00  0.00    -0.096 C  
HETATM    3  H   UNL     1      -6.977   5.399  67.198  1.00  0.00     0.000 HD 
ENDROOT
BRANCH   2   4
HETATM    4  C   UNL     1      -9.481   3.508  66.225  1.00  0.00    -0.144 C  
HETATM    5  S   UNL     1     -10.464   5.062  66.215  1.00  0.00    -0.250 SA 
HETATM    6  H   UNL     1     -11.728   4.789  65.707  1.00  0.00     0.000 H  
BRANCH   4   7
HETATM    7  C   UNL     1      -9.377   2.870  64.830  1.00  0.00    -0.147 C  
HETATM    8  S   UNL     1     -10.518   3.572  63.590  1.00  0.00    -0.271 SA 
HETATM    9  H   UNL     1     -10.426   2.995  62.329  1.00  0.00     0.000 H  
ENDBRANCH   4   7
ENDBRANCH   2   4
TORSDOF 2
ENDMDL
MODEL      198
REMARK 921   NORMALIZED FREE ENERGY PREDICTED BY IDOCK:   -0.89 KCAL/MOL
REMARK 922        TOTAL FREE ENERGY PREDICTED BY IDOCK:   -1.00 KCAL/MOL
REMARK 923 INTER-LIGAND FREE ENERGY PREDICTED BY IDOCK:   -1.00 KCAL/MOL
REMARK 924 INTRA-LIGAND FREE ENERGY PREDICTED BY IDOCK:   -0.00 KCAL/MOL
REMARK 927      BINDING AFFINITY PREDICTED BY RF-SCORE:    0.00 PKD
ROOT
HETATM    1  O   UNL     1      -7.552  10.120  67.194  1.00  0.00    -0.091 OA 
HETATM    2  C   UNL     1      -7.554   9.507  65.909  1.00  0.00    -0.100 C  
HETATM    3  H   UNL     1      -6.749   9.932  67.664  1.00  0.00     0.000 HD 
ENDROOT
BRANCH   2   4
HETATM    4  C   UNL     1      -8.856   9.813  65.146  1.00  0.00    -0.181 C  
HETATM    5  S   UNL     1      -9.846  11.017  66.123  1.00  0.00    -0.236 SA 
HETATM    6  H   UNL     1     -11.021  11.293  65.434  1.00  0.00     0.000 H  
BRANCH   4   7
HETATM    7  C   UNL     1      -8.547  10.320  63.728  1.00  0.00    -0.187 C  
HETATM    8  S   UNL     1      -8.448   9.009  62.461  1.00  0.00    -0.206 SA 
HETATM    9  H   UNL     1      -8.168   9.468  61.179  1.00  0.00     0.000 H  
ENDBRANCH   4   7
ENDBRANCH   2   4
TORSDOF 2
ENDMDL
MODEL      199
REMARK 921   NORMALIZED FREE ENERGY PREDICTED BY IDOCK:   -0.87 KCAL/MOL
REMARK 922        TOTAL FREE ENERGY PREDICTED BY IDOCK:   -0.99 KCAL/MOL
REMARK 923 INTER-LIGAND FREE ENERGY PREDICTED BY IDOCK:   -0.98 KCAL/MOL
REMARK 924 INTRA-LIGAND FREE ENERGY PREDICTED BY IDOCK:   -0.00 KCAL/MOL
REMARK 927      BINDING AFFINITY PREDICTED BY RF-SCORE:    0.00 PKD
ROOT
HETATM    1  O   UNL     1      -8.278  10.786  64.191  1.00  0.00    -0.356 OA 
HETATM    2  C   UNL     1      -7.442   9.673  63.891  1.00  0.00    -0.123 C  
HETATM    3  H   UNL     1      -7.835  11.607  64.015  1.00  0.00     0.000 HD 
ENDROOT
BRANCH   2   4
HETATM    4  C   UNL     1      -8.161   8.343  64.177  1.00  0.00    -0.145 C  
HETATM    5  S   UNL     1      -7.893   7.207  62.755  1.00  0.00    -0.118 SA 
HETATM    6  H   UNL     1      -8.542   6.005  63.014  1.00  0.00     0.000 H  
BRANCH   4   7
HETATM    7  C   UNL     1      -7.679   7.742  65.507  1.00  0.00    -0.100 C  
HETATM    8  S   UNL     1      -8.174   6.005  65.777  1.00  0.00    -0.142 SA 
HETATM    9  H   UNL     1      -7.740   5.462  66.980  1.00  0.00     0.000 H  
ENDBRANCH   4   7
ENDBRANCH   2   4
TORSDOF 2
ENDMDL
MODEL      200
REMARK 921   NORMALIZED FREE ENERGY PREDICTED BY IDOCK:   -0.87 KCAL/MOL
REMARK 922        TOTAL FREE ENERGY PREDICTED BY IDOCK:   -0.98 KCAL/MOL
REMARK 923 INTER-LIGAND FREE ENERGY PREDICTED BY IDOCK:   -0.95 KCAL/MOL
REMARK 924 INTRA-LIGAND FREE ENERGY PREDICTED BY IDOCK:   -0.04 KCAL/MOL
REMARK 927      BINDING AFFINITY PREDICTED BY RF-SCORE:    0.00 PKD
ROOT
HETATM    1  O   UNL     1     -10.542   8.669  70.537  1.00  0.00    -0.205 OA 
HETATM    2  C   UNL     1      -9.270   8.493  71.154  1.00  0.00    -0.197 C  
HETATM    3  H   UNL     1     -10.943   9.487  70.802  1.00  0.00     0.000 HD 
ENDROOT
BRANCH   2   4
HETATM    4  C   UNL     1      -8.620   7.166  70.724  1.00  0.00    -0.146 C  
HETATM    5  S   UNL     1      -8.748   5.966  72.112  1.00  0.00    -0.136 SA 
HETATM    6  H   UNL     1      -8.162   4.767  71.724  1.00  0.00     0.000 H  
BRANCH   4   7
HETATM    7  C   UNL     1      -9.265   6.640  69.432  1.00  0.00    -0.142 C  
HETATM    8  S   UNL     1      -8.427   7.167  67.898  1.00  0.00    -0.121 SA 
HETATM    9  H   UNL     1      -9.010   6.692  66.729  1.00  0.00     0.000 H  
ENDBRANCH   4   7
ENDBRANCH   2   4
TORSDOF 2
ENDMDL
MODEL      201
REMARK 921   NORMALIZED FREE ENERGY PREDICTED BY IDOCK:   -0.87 KCAL/MOL
REMARK 922        TOTAL FREE ENERGY PREDICTED BY IDOCK:   -0.98 KCAL/MOL
REMARK 923 INTER-LIGAND FREE ENERGY PREDICTED BY IDOCK:   -0.94 KCAL/MOL
REMARK 924 INTRA-LIGAND FREE ENERGY PREDICTED BY IDOCK:   -0.04 KCAL/MOL
REMARK 927      BINDING AFFINITY PREDICTED BY RF-SCORE:    0.00 PKD
ROOT
HETATM    1  O   UNL     1      -8.441   5.015  64.786  1.00  0.00    -0.137 OA 
HETATM    2  C   UNL     1      -8.368   4.152  65.916  1.00  0.00    -0.109 C  
HETATM    3  H   UNL     1      -8.375   4.527  63.975  1.00  0.00     0.000 HD 
ENDROOT
BRANCH   2   4
HETATM    4  C   UNL     1      -8.476   4.944  67.231  1.00  0.00    -0.105 C  
HETATM    5  S   UNL     1      -6.823   4.983  68.037  1.00  0.00    -0.061 SA 
HETATM    6  H   UNL     1      -6.920   5.699  69.225  1.00  0.00     0.000 H  
BRANCH   4   7
HETATM    7  C   UNL     1      -9.036   6.352  66.972  1.00  0.00    -0.127 C  
HETATM    8  S   UNL     1     -10.844   6.498  67.181  1.00  0.00    -0.405 SA 
HETATM    9  H   UNL     1     -11.351   7.771  66.945  1.00  0.00     0.000 H  
ENDBRANCH   4   7
ENDBRANCH   2   4
TORSDOF 2
ENDMDL
MODEL      202
REMARK 921   NORMALIZED FREE ENERGY PREDICTED BY IDOCK:   -0.86 KCAL/MOL
REMARK 922        TOTAL FREE ENERGY PREDICTED BY IDOCK:   -0.97 KCAL/MOL
REMARK 923 INTER-LIGAND FREE ENERGY PREDICTED BY IDOCK:   -0.94 KCAL/MOL
REMARK 924 INTRA-LIGAND FREE ENERGY PREDICTED BY IDOCK:   -0.02 KCAL/MOL
REMARK 927      BINDING AFFINITY PREDICTED BY RF-SCORE:    0.00 PKD
ROOT
HETATM    1  O   UNL     1      -7.967   7.210  69.115  1.00  0.00    -0.115 OA 
HETATM    2  C   UNL     1      -9.088   6.408  69.473  1.00  0.00    -0.138 C  
HETATM    3  H   UNL     1      -7.669   7.731  69.850  1.00  0.00     0.000 HD 
ENDROOT
BRANCH   2   4
HETATM    4  C   UNL     1      -9.572   5.562  68.281  1.00  0.00    -0.120 C  
HETATM    5  S   UNL     1     -10.907   6.477  67.407  1.00  0.00    -0.388 SA 
HETATM    6  H   UNL     1     -11.344   5.714  66.331  1.00  0.00     0.000 H  
BRANCH   4   7
HETATM    7  C   UNL     1      -8.397   5.211  67.353  1.00  0.00    -0.106 C  
HETATM    8  S   UNL     1      -7.765   3.509  67.544  1.00  0.00    -0.078 SA 
HETATM    9  H   UNL     1      -6.702   3.192  66.706  1.00  0.00     0.000 H  
ENDBRANCH   4   7
ENDBRANCH   2   4
TORSDOF 2
ENDMDL
MODEL      203
REMARK 921   NORMALIZED FREE ENERGY PREDICTED BY IDOCK:   -0.84 KCAL/MOL
REMARK 922        TOTAL FREE ENERGY PREDICTED BY IDOCK:   -0.96 KCAL/MOL
REMARK 923 INTER-LIGAND FREE ENERGY PREDICTED BY IDOCK:   -0.95 KCAL/MOL
REMARK 924 INTRA-LIGAND FREE ENERGY PREDICTED BY IDOCK:   -0.00 KCAL/MOL
REMARK 927      BINDING AFFINITY PREDICTED BY RF-SCORE:    0.00 PKD
ROOT
HETATM    1  O   UNL     1      -9.557   3.380  69.915  1.00  0.00    -0.183 OA 
HETATM    2  C   UNL     1     -10.097   4.665  70.208  1.00  0.00    -0.206 C  
HETATM    3  H   UNL     1     -10.232   2.782  69.619  1.00  0.00     0.000 HD 
ENDROOT
BRANCH   2   4
HETATM    4  C   UNL     1      -9.002   5.635  70.688  1.00  0.00    -0.146 C  
HETATM    5  S   UNL     1      -7.374   5.044  70.068  1.00  0.00    -0.060 SA 
HETATM    6  H   UNL     1      -6.385   5.919  70.501  1.00  0.00     0.000 H  
BRANCH   4   7
HETATM    7  C   UNL     1      -9.315   7.071  70.238  1.00  0.00    -0.159 C  
HETATM    8  S   UNL     1      -9.805   8.197  71.589  1.00  0.00    -0.199 SA 
HETATM    9  H   UNL     1     -10.089   9.496  71.183  1.00  0.00     0.000 H  
ENDBRANCH   4   7
ENDBRANCH   2   4
TORSDOF 2
ENDMDL
MODEL      204
REMARK 921   NORMALIZED FREE ENERGY PREDICTED BY IDOCK:   -0.84 KCAL/MOL
REMARK 922        TOTAL FREE ENERGY PREDICTED BY IDOCK:   -0.95 KCAL/MOL
REMARK 923 INTER-LIGAND FREE ENERGY PREDICTED BY IDOCK:   -0.95 KCAL/MOL
REMARK 924 INTRA-LIGAND FREE ENERGY PREDICTED BY IDOCK:   -0.00 KCAL/MOL
REMARK 927      BINDING AFFINITY PREDICTED BY RF-SCORE:    0.00 PKD
ROOT
HETATM    1  O   UNL     1      -7.113   3.230  69.876  1.00  0.00    -0.040 OA 
HETATM    2  C   UNL     1      -8.398   3.791  69.627  1.00  0.00    -0.052 C  
HETATM    3  H   UNL     1      -6.898   2.562  69.236  1.00  0.00     0.000 HD 
ENDROOT
BRANCH   2   4
HETATM    4  C   UNL     1      -8.745   4.873  70.665  1.00  0.00    -0.116 C  
HETATM    5  S   UNL     1      -7.840   6.416  70.238  1.00  0.00    -0.105 SA 
HETATM    6  H   UNL     1      -8.154   7.393  71.175  1.00  0.00     0.000 H  
BRANCH   4   7
HETATM    7  C   UNL     1     -10.266   5.085  70.738  1.00  0.00    -0.229 C  
HETATM    8  S   UNL     1     -10.920   6.294  69.536  1.00  0.00    -0.409 SA 
HETATM    9  H   UNL     1     -12.295   6.487  69.602  1.00  0.00     0.000 H  
ENDBRANCH   4   7
ENDBRANCH   2   4
TORSDOF 2
ENDMDL
MODEL      205
REMARK 921   NORMALIZED FREE ENERGY PREDICTED BY IDOCK:   -0.81 KCAL/MOL
REMARK 922        TOTAL FREE ENERGY PREDICTED BY IDOCK:   -0.92 KCAL/MOL
REMARK 923 INTER-LIGAND FREE ENERGY PREDICTED BY IDOCK:   -0.91 KCAL/MOL
REMARK 924 INTRA-LIGAND FREE ENERGY PREDICTED BY IDOCK:   -0.00 KCAL/MOL
REMARK 927      BINDING AFFINITY PREDICTED BY RF-SCORE:    0.00 PKD
ROOT
HETATM    1  O   UNL     1      -6.546   5.106  71.880  1.00  0.00    -0.037 OA 
HETATM    2  C   UNL     1      -7.762   5.059  71.141  1.00  0.00    -0.091 C  
HETATM    3  H   UNL     1      -5.877   4.567  71.477  1.00  0.00     0.000 HD 
ENDROOT
BRANCH   2   4
HETATM    4  C   UNL     1      -8.847   5.934  71.796  1.00  0.00    -0.139 C  
HETATM    5  S   UNL     1      -8.667   7.659  71.184  1.00  0.00    -0.137 SA 
HETATM    6  H   UNL     1      -9.646   8.448  71.775  1.00  0.00     0.000 H  
BRANCH   4   7
HETATM    7  C   UNL     1     -10.246   5.357  71.523  1.00  0.00    -0.219 C  
HETATM    8  S   UNL     1     -11.253   5.076  73.019  1.00  0.00    -0.290 SA 
HETATM    9  H   UNL     1     -12.518   4.554  72.772  1.00  0.00     0.000 H  
ENDBRANCH   4   7
ENDBRANCH   2   4
TORSDOF 2
ENDMDL
MODEL      206
REMARK 921   NORMALIZED FREE ENERGY PREDICTED BY IDOCK:   -0.81 KCAL/MOL
REMARK 922        TOTAL FREE ENERGY PREDICTED BY IDOCK:   -0.91 KCAL/MOL
REMARK 923 INTER-LIGAND FREE ENERGY PREDICTED BY IDOCK:   -0.88 KCAL/MOL
REMARK 924 INTRA-LIGAND FREE ENERGY PREDICTED BY IDOCK:   -0.04 KCAL/MOL
REMARK 927      BINDING AFFINITY PREDICTED BY RF-SCORE:    0.00 PKD
ROOT
HETATM    1  O   UNL     1      -9.720   2.320  67.397  1.00  0.00    -0.405 OA 
HETATM    2  C   UNL     1      -8.954   2.594  66.229  1.00  0.00    -0.137 C  
HETATM    3  H   UNL     1     -10.588   2.007  67.174  1.00  0.00     0.000 HD 
ENDROOT
BRANCH   2   4
HETATM    4  C   UNL     1      -7.547   3.102  66.592  1.00  0.00    -0.076 C  
HETATM    5  S   UNL     1      -6.359   2.525  65.311  1.00  0.00    -0.024 SA 
HETATM    6  H   UNL     1      -5.089   2.984  65.638  1.00  0.00     0.000 H  
BRANCH   4   7
HETATM    7  C   UNL     1      -7.546   4.632  66.746  1.00  0.00    -0.087 C  
HETATM    8  S   UNL     1      -8.818   5.493  65.760  1.00  0.00    -0.149 SA 
HETATM    9  H   UNL     1      -8.817   6.876  65.899  1.00  0.00     0.000 H  
ENDBRANCH   4   7
ENDBRANCH   2   4
TORSDOF 2
ENDMDL
MODEL      207
REMARK 921   NORMALIZED FREE ENERGY PREDICTED BY IDOCK:   -0.78 KCAL/MOL
REMARK 922        TOTAL FREE ENERGY PREDICTED BY IDOCK:   -0.88 KCAL/MOL
REMARK 923 INTER-LIGAND FREE ENERGY PREDICTED BY IDOCK:   -0.88 KCAL/MOL
REMARK 924 INTRA-LIGAND FREE ENERGY PREDICTED BY IDOCK:   -0.00 KCAL/MOL
REMARK 927      BINDING AFFINITY PREDICTED BY RF-SCORE:    0.00 PKD
ROOT
HETATM    1  O   UNL     1      -5.917   7.121  73.397  1.00  0.00    -0.056 OA 
HETATM    2  C   UNL     1      -6.584   5.911  73.049  1.00  0.00    -0.069 C  
HETATM    3  H   UNL     1      -4.982   7.054  73.246  1.00  0.00     0.000 HD 
ENDROOT
BRANCH   2   4
HETATM    4  C   UNL     1      -8.100   6.020  73.292  1.00  0.00    -0.115 C  
HETATM    5  S   UNL     1      -8.466   7.664  74.030  1.00  0.00    -0.256 SA 
HETATM    6  H   UNL     1      -9.835   7.762  74.250  1.00  0.00     0.000 H  
BRANCH   4   7
HETATM    7  C   UNL     1      -8.877   5.775  71.989  1.00  0.00    -0.138 C  
HETATM    8  S   UNL     1     -10.664   6.132  72.095  1.00  0.00    -0.248 SA 
HETATM    9  H   UNL     1     -11.367   5.910  70.916  1.00  0.00     0.000 H  
ENDBRANCH   4   7
ENDBRANCH   2   4
TORSDOF 2
ENDMDL
MODEL      208
REMARK 921   NORMALIZED FREE ENERGY PREDICTED BY IDOCK:   -0.74 KCAL/MOL
REMARK 922        TOTAL FREE ENERGY PREDICTED BY IDOCK:   -0.83 KCAL/MOL
REMARK 923 INTER-LIGAND FREE ENERGY PREDICTED BY IDOCK:   -0.80 KCAL/MOL
REMARK 924 INTRA-LIGAND FREE ENERGY PREDICTED BY IDOCK:   -0.04 KCAL/MOL
REMARK 927      BINDING AFFINITY PREDICTED BY RF-SCORE:    0.00 PKD
ROOT
HETATM    1  O   UNL     1      -9.555   3.236  68.145  1.00  0.00    -0.177 OA 
HETATM    2  C   UNL     1      -9.264   3.396  66.760  1.00  0.00    -0.175 C  
HETATM    3  H   UNL     1     -10.146   2.507  68.290  1.00  0.00     0.000 HD 
ENDROOT
BRANCH   2   4
HETATM    4  C   UNL     1      -8.304   4.577  66.525  1.00  0.00    -0.106 C  
HETATM    5  S   UNL     1      -8.306   4.995  64.733  1.00  0.00    -0.145 SA 
HETATM    6  H   UNL     1      -7.441   6.061  64.521  1.00  0.00     0.000 H  
BRANCH   4   7
HETATM    7  C   UNL     1      -8.692   5.774  67.407  1.00  0.00    -0.107 C  
HETATM    8  S   UNL     1      -7.442   6.227  68.659  1.00  0.00    -0.089 SA 
HETATM    9  H   UNL     1      -7.793   7.310  69.458  1.00  0.00     0.000 H  
ENDBRANCH   4   7
ENDBRANCH   2   4
TORSDOF 2
ENDMDL
MODEL      209
REMARK 921   NORMALIZED FREE ENERGY PREDICTED BY IDOCK:   -0.73 KCAL/MOL
REMARK 922        TOTAL FREE ENERGY PREDICTED BY IDOCK:   -0.83 KCAL/MOL
REMARK 923 INTER-LIGAND FREE ENERGY PREDICTED BY IDOCK:   -0.80 KCAL/MOL
REMARK 924 INTRA-LIGAND FREE ENERGY PREDICTED BY IDOCK:   -0.03 KCAL/MOL
REMARK 927      BINDING AFFINITY PREDICTED BY RF-SCORE:    0.00 PKD
ROOT
HETATM    1  O   UNL     1      -9.737   2.378  67.426  1.00  0.00    -0.404 OA 
HETATM    2  C   UNL     1      -9.187   3.190  66.393  1.00  0.00    -0.134 C  
HETATM    3  H   UNL     1     -10.392   1.783  67.084  1.00  0.00     0.000 HD 
ENDROOT
BRANCH   2   4
HETATM    4  C   UNL     1      -8.124   4.155  66.949  1.00  0.00    -0.101 C  
HETATM    5  S   UNL     1      -8.490   4.485  68.721  1.00  0.00    -0.085 SA 
HETATM    6  H   UNL     1      -7.530   5.356  69.222  1.00  0.00     0.000 H  
BRANCH   4   7
HETATM    7  C   UNL     1      -6.712   3.586  66.737  1.00  0.00    -0.049 C  
HETATM    8  S   UNL     1      -5.978   2.811  68.218  1.00  0.00    -0.025 SA 
HETATM    9  H   UNL     1      -4.700   2.297  68.027  1.00  0.00     0.000 H  
ENDBRANCH   4   7
ENDBRANCH   2   4
TORSDOF 2
ENDMDL
MODEL      210
REMARK 921   NORMALIZED FREE ENERGY PREDICTED BY IDOCK:   -0.70 KCAL/MOL
REMARK 922        TOTAL FREE ENERGY PREDICTED BY IDOCK:   -0.79 KCAL/MOL
REMARK 923 INTER-LIGAND FREE ENERGY PREDICTED BY IDOCK:   -0.76 KCAL/MOL
REMARK 924 INTRA-LIGAND FREE ENERGY PREDICTED BY IDOCK:   -0.03 KCAL/MOL
REMARK 927      BINDING AFFINITY PREDICTED BY RF-SCORE:    0.00 PKD
ROOT
HETATM    1  O   UNL     1      -7.489   3.015  64.210  1.00  0.00    -0.067 OA 
HETATM    2  C   UNL     1      -7.565   3.425  65.571  1.00  0.00    -0.077 C  
HETATM    3  H   UNL     1      -6.627   3.180  63.848  1.00  0.00     0.000 HD 
ENDROOT
BRANCH   2   4
HETATM    4  C   UNL     1      -8.963   3.157  66.158  1.00  0.00    -0.148 C  
HETATM    5  S   UNL     1      -8.800   2.852  67.964  1.00  0.00    -0.147 SA 
HETATM    6  H   UNL     1     -10.062   2.611  68.493  1.00  0.00     0.000 H  
BRANCH   4   7
HETATM    7  C   UNL     1      -9.916   4.322  65.842  1.00  0.00    -0.219 C  
HETATM    8  S   UNL     1      -9.229   5.977  66.193  1.00  0.00    -0.103 SA 
HETATM    9  H   UNL     1     -10.091   7.030  65.909  1.00  0.00     0.000 H  
ENDBRANCH   4   7
ENDBRANCH   2   4
TORSDOF 2
ENDMDL
MODEL      211
REMARK 921   NORMALIZED FREE ENERGY PREDICTED BY IDOCK:   -0.69 KCAL/MOL
REMARK 922        TOTAL FREE ENERGY PREDICTED BY IDOCK:   -0.78 KCAL/MOL
REMARK 923 INTER-LIGAND FREE ENERGY PREDICTED BY IDOCK:   -0.74 KCAL/MOL
REMARK 924 INTRA-LIGAND FREE ENERGY PREDICTED BY IDOCK:   -0.04 KCAL/MOL
REMARK 927      BINDING AFFINITY PREDICTED BY RF-SCORE:    0.00 PKD
ROOT
HETATM    1  O   UNL     1      -8.115   5.035  65.807  1.00  0.00    -0.109 OA 
HETATM    2  C   UNL     1      -8.231   4.429  67.090  1.00  0.00    -0.101 C  
HETATM    3  H   UNL     1      -7.715   4.443  65.182  1.00  0.00     0.000 HD 
ENDROOT
BRANCH   2   4
HETATM    4  C   UNL     1      -8.879   5.389  68.104  1.00  0.00    -0.105 C  
HETATM    5  S   UNL     1      -9.651   4.400  69.449  1.00  0.00    -0.199 SA 
HETATM    6  H   UNL     1     -10.236   5.266  70.364  1.00  0.00     0.000 H  
BRANCH   4   7
HETATM    7  C   UNL     1      -7.845   6.395  68.635  1.00  0.00    -0.102 C  
HETATM    8  S   UNL     1      -7.996   8.075  67.936  1.00  0.00    -0.129 SA 
HETATM    9  H   UNL     1      -7.061   8.985  68.415  1.00  0.00     0.000 H  
ENDBRANCH   4   7
ENDBRANCH   2   4
TORSDOF 2
ENDMDL
MODEL      212
REMARK 921   NORMALIZED FREE ENERGY PREDICTED BY IDOCK:   -0.68 KCAL/MOL
REMARK 922        TOTAL FREE ENERGY PREDICTED BY IDOCK:   -0.78 KCAL/MOL
REMARK 923 INTER-LIGAND FREE ENERGY PREDICTED BY IDOCK:   -0.76 KCAL/MOL
REMARK 924 INTRA-LIGAND FREE ENERGY PREDICTED BY IDOCK:   -0.02 KCAL/MOL
REMARK 927      BINDING AFFINITY PREDICTED BY RF-SCORE:    0.00 PKD
ROOT
HETATM    1  O   UNL     1      -9.338   3.080  70.102  1.00  0.00    -0.142 OA 
HETATM    2  C   UNL     1      -9.450   3.153  68.684  1.00  0.00    -0.126 C  
HETATM    3  H   UNL     1     -10.021   2.535  70.473  1.00  0.00     0.000 HD 
ENDROOT
BRANCH   2   4
HETATM    4  C   UNL     1      -8.342   4.035  68.082  1.00  0.00    -0.092 C  
HETATM    5  S   UNL     1      -6.819   3.023  67.884  1.00  0.00    -0.049 SA 
HETATM    6  H   UNL     1      -5.818   3.819  67.340  1.00  0.00     0.000 H  
BRANCH   4   7
HETATM    7  C   UNL     1      -8.807   4.660  66.757  1.00  0.00    -0.111 C  
HETATM    8  S   UNL     1     -10.532   5.257  66.766  1.00  0.00    -0.240 SA 
HETATM    9  H   UNL     1     -10.953   5.822  65.568  1.00  0.00     0.000 H  
ENDBRANCH   4   7
ENDBRANCH   2   4
TORSDOF 2
ENDMDL
MODEL      213
REMARK 921   NORMALIZED FREE ENERGY PREDICTED BY IDOCK:   -0.68 KCAL/MOL
REMARK 922        TOTAL FREE ENERGY PREDICTED BY IDOCK:   -0.77 KCAL/MOL
REMARK 923 INTER-LIGAND FREE ENERGY PREDICTED BY IDOCK:   -0.74 KCAL/MOL
REMARK 924 INTRA-LIGAND FREE ENERGY PREDICTED BY IDOCK:   -0.02 KCAL/MOL
REMARK 927      BINDING AFFINITY PREDICTED BY RF-SCORE:    0.00 PKD
ROOT
HETATM    1  O   UNL     1      -8.572   5.967  63.105  1.00  0.00    -0.327 OA 
HETATM    2  C   UNL     1      -7.418   6.531  63.722  1.00  0.00    -0.086 C  
HETATM    3  H   UNL     1      -8.615   6.195  62.184  1.00  0.00     0.000 HD 
ENDROOT
BRANCH   2   4
HETATM    4  C   UNL     1      -7.348   6.160  65.214  1.00  0.00    -0.073 C  
HETATM    5  S   UNL     1      -5.604   6.308  65.780  1.00  0.00    -0.017 SA 
HETATM    6  H   UNL     1      -5.540   5.974  67.127  1.00  0.00     0.000 H  
BRANCH   4   7
HETATM    7  C   UNL     1      -8.308   7.036  66.036  1.00  0.00    -0.134 C  
HETATM    8  S   UNL     1      -8.001   8.830  65.899  1.00  0.00    -0.108 SA 
HETATM    9  H   UNL     1      -8.868   9.622  66.642  1.00  0.00     0.000 H  
ENDBRANCH   4   7
ENDBRANCH   2   4
TORSDOF 2
ENDMDL
MODEL      214
REMARK 921   NORMALIZED FREE ENERGY PREDICTED BY IDOCK:   -0.66 KCAL/MOL
REMARK 922        TOTAL FREE ENERGY PREDICTED BY IDOCK:   -0.75 KCAL/MOL
REMARK 923 INTER-LIGAND FREE ENERGY PREDICTED BY IDOCK:   -0.73 KCAL/MOL
REMARK 924 INTRA-LIGAND FREE ENERGY PREDICTED BY IDOCK:   -0.02 KCAL/MOL
REMARK 927      BINDING AFFINITY PREDICTED BY RF-SCORE:    0.00 PKD
ROOT
HETATM    1  O   UNL     1      -6.305   6.044  65.287  1.00  0.00    -0.036 OA 
HETATM    2  C   UNL     1      -7.538   5.342  65.162  1.00  0.00    -0.082 C  
HETATM    3  H   UNL     1      -5.616   5.621  64.789  1.00  0.00     0.000 HD 
ENDROOT
BRANCH   2   4
HETATM    4  C   UNL     1      -8.655   6.029  65.969  1.00  0.00    -0.147 C  
HETATM    5  S   UNL     1      -9.663   4.737  66.806  1.00  0.00    -0.210 SA 
HETATM    6  H   UNL     1     -10.670   5.357  67.534  1.00  0.00     0.000 H  
BRANCH   4   7
HETATM    7  C   UNL     1      -8.062   7.044  66.959  1.00  0.00    -0.117 C  
HETATM    8  S   UNL     1      -8.971   8.624  67.058  1.00  0.00    -0.136 SA 
HETATM    9  H   UNL     1      -8.435   9.543  67.953  1.00  0.00     0.000 H  
ENDBRANCH   4   7
ENDBRANCH   2   4
TORSDOF 2
ENDMDL
MODEL      215
REMARK 921   NORMALIZED FREE ENERGY PREDICTED BY IDOCK:   -0.62 KCAL/MOL
REMARK 922        TOTAL FREE ENERGY PREDICTED BY IDOCK:   -0.71 KCAL/MOL
REMARK 923 INTER-LIGAND FREE ENERGY PREDICTED BY IDOCK:   -0.67 KCAL/MOL
REMARK 924 INTRA-LIGAND FREE ENERGY PREDICTED BY IDOCK:   -0.03 KCAL/MOL
REMARK 927      BINDING AFFINITY PREDICTED BY RF-SCORE:    0.00 PKD
ROOT
HETATM    1  O   UNL     1      -8.572   5.967  63.105  1.00  0.00    -0.327 OA 
HETATM    2  C   UNL     1      -7.412   6.525  63.714  1.00  0.00    -0.086 C  
HETATM    3  H   UNL     1      -8.623   6.199  62.185  1.00  0.00     0.000 HD 
ENDROOT
BRANCH   2   4
HETATM    4  C   UNL     1      -7.329   6.150  65.204  1.00  0.00    -0.073 C  
HETATM    5  S   UNL     1      -8.780   5.105  65.634  1.00  0.00    -0.147 SA 
HETATM    6  H   UNL     1      -8.705   4.766  66.980  1.00  0.00     0.000 H  
BRANCH   4   7
HETATM    7  C   UNL     1      -5.993   5.456  65.515  1.00  0.00    -0.025 C  
HETATM    8  S   UNL     1      -5.685   3.939  64.547  1.00  0.00    -0.014 SA 
HETATM    9  H   UNL     1      -4.477   3.311  64.828  1.00  0.00     0.000 H  
ENDBRANCH   4   7
ENDBRANCH   2   4
TORSDOF 2
ENDMDL
MODEL      216
REMARK 921   NORMALIZED FREE ENERGY PREDICTED BY IDOCK:   -0.61 KCAL/MOL
REMARK 922        TOTAL FREE ENERGY PREDICTED BY IDOCK:   -0.70 KCAL/MOL
REMARK 923 INTER-LIGAND FREE ENERGY PREDICTED BY IDOCK:   -0.66 KCAL/MOL
REMARK 924 INTRA-LIGAND FREE ENERGY PREDICTED BY IDOCK:   -0.04 KCAL/MOL
REMARK 927      BINDING AFFINITY PREDICTED BY RF-SCORE:    0.00 PKD
ROOT
HETATM    1  O   UNL     1      -7.506   6.150  71.239  1.00  0.00    -0.088 OA 
HETATM    2  C   UNL     1      -8.173   5.481  72.304  1.00  0.00    -0.111 C  
HETATM    3  H   UNL     1      -6.972   6.865  71.563  1.00  0.00     0.000 HD 
ENDROOT
BRANCH   2   4
HETATM    4  C   UNL     1      -9.038   4.320  71.780  1.00  0.00    -0.123 C  
HETATM    5  S   UNL     1      -9.909   4.872  70.256  1.00  0.00    -0.253 SA 
HETATM    6  H   UNL     1     -10.689   3.824  69.782  1.00  0.00     0.000 H  
BRANCH   4   7
HETATM    7  C   UNL     1      -8.179   3.068  71.544  1.00  0.00    -0.060 C  
HETATM    8  S   UNL     1      -6.813   2.851  72.736  1.00  0.00    -0.027 SA 
HETATM    9  H   UNL     1      -6.036   1.719  72.523  1.00  0.00     0.000 H  
ENDBRANCH   4   7
ENDBRANCH   2   4
TORSDOF 2
ENDMDL
MODEL      217
REMARK 921   NORMALIZED FREE ENERGY PREDICTED BY IDOCK:   -0.61 KCAL/MOL
REMARK 922        TOTAL FREE ENERGY PREDICTED BY IDOCK:   -0.70 KCAL/MOL
REMARK 923 INTER-LIGAND FREE ENERGY PREDICTED BY IDOCK:   -0.69 KCAL/MOL
REMARK 924 INTRA-LIGAND FREE ENERGY PREDICTED BY IDOCK:   -0.00 KCAL/MOL
REMARK 927      BINDING AFFINITY PREDICTED BY RF-SCORE:    0.00 PKD
ROOT
HETATM    1  O   UNL     1     -10.376   5.717  69.614  1.00  0.00    -0.223 OA 
HETATM    2  C   UNL     1      -9.481   6.050  70.670  1.00  0.00    -0.168 C  
HETATM    3  H   UNL     1     -11.183   6.213  69.677  1.00  0.00     0.000 HD 
ENDROOT
BRANCH   2   4
HETATM    4  C   UNL     1      -8.173   5.246  70.566  1.00  0.00    -0.108 C  
HETATM    5  S   UNL     1      -7.202   5.874  69.136  1.00  0.00    -0.080 SA 
HETATM    6  H   UNL     1      -6.020   5.148  69.043  1.00  0.00     0.000 H  
BRANCH   4   7
HETATM    7  C   UNL     1      -7.387   5.318  71.886  1.00  0.00    -0.087 C  
HETATM    8  S   UNL     1      -5.693   5.979  71.724  1.00  0.00    -0.027 SA 
HETATM    9  H   UNL     1      -4.982   6.043  72.917  1.00  0.00     0.000 H  
ENDBRANCH   4   7
ENDBRANCH   2   4
TORSDOF 2
ENDMDL
MODEL      218
REMARK 921   NORMALIZED FREE ENERGY PREDICTED BY IDOCK:   -0.61 KCAL/MOL
REMARK 922        TOTAL FREE ENERGY PREDICTED BY IDOCK:   -0.69 KCAL/MOL
REMARK 923 INTER-LIGAND FREE ENERGY PREDICTED BY IDOCK:   -0.66 KCAL/MOL
REMARK 924 INTRA-LIGAND FREE ENERGY PREDICTED BY IDOCK:   -0.03 KCAL/MOL
REMARK 927      BINDING AFFINITY PREDICTED BY RF-SCORE:    0.00 PKD
ROOT
HETATM    1  O   UNL     1      -5.931   6.357  72.986  1.00  0.00    -0.047 OA 
HETATM    2  C   UNL     1      -7.105   6.046  72.242  1.00  0.00    -0.084 C  
HETATM    3  H   UNL     1      -5.321   5.629  72.987  1.00  0.00     0.000 HD 
ENDROOT
BRANCH   2   4
HETATM    4  C   UNL     1      -8.093   7.226  72.240  1.00  0.00    -0.100 C  
HETATM    5  S   UNL     1      -8.421   7.727  73.979  1.00  0.00    -0.262 SA 
HETATM    6  H   UNL     1      -9.313   8.793  73.978  1.00  0.00     0.000 H  
BRANCH   4   7
HETATM    7  C   UNL     1      -7.552   8.385  71.387  1.00  0.00    -0.097 C  
HETATM    8  S   UNL     1      -7.206   7.948  69.649  1.00  0.00    -0.071 SA 
HETATM    9  H   UNL     1      -6.716   8.995  68.877  1.00  0.00     0.000 H  
ENDBRANCH   4   7
ENDBRANCH   2   4
TORSDOF 2
ENDMDL
MODEL      219
REMARK 921   NORMALIZED FREE ENERGY PREDICTED BY IDOCK:   -0.38 KCAL/MOL
REMARK 922        TOTAL FREE ENERGY PREDICTED BY IDOCK:   -0.44 KCAL/MOL
REMARK 923 INTER-LIGAND FREE ENERGY PREDICTED BY IDOCK:   -0.41 KCAL/MOL
REMARK 924 INTRA-LIGAND FREE ENERGY PREDICTED BY IDOCK:   -0.03 KCAL/MOL
REMARK 927      BINDING AFFINITY PREDICTED BY RF-SCORE:    0.00 PKD
ROOT
HETATM    1  O   UNL     1      -6.281   1.747  63.944  1.00  0.00    -0.013 OA 
HETATM    2  C   UNL     1      -6.474   2.497  65.139  1.00  0.00    -0.024 C  
HETATM    3  H   UNL     1      -5.425   1.337  63.929  1.00  0.00     0.000 HD 
ENDROOT
BRANCH   2   4
HETATM    4  C   UNL     1      -7.862   3.162  65.162  1.00  0.00    -0.082 C  
HETATM    5  S   UNL     1      -7.797   4.632  66.266  1.00  0.00    -0.099 SA 
HETATM    6  H   UNL     1      -9.050   5.233  66.286  1.00  0.00     0.000 H  
BRANCH   4   7
HETATM    7  C   UNL     1      -8.317   3.518  63.737  1.00  0.00    -0.090 C  
HETATM    8  S   UNL     1      -7.925   5.225  63.221  1.00  0.00    -0.101 SA 
HETATM    9  H   UNL     1      -8.337   5.546  61.933  1.00  0.00     0.000 H  
ENDBRANCH   4   7
ENDBRANCH   2   4
TORSDOF 2
ENDMDL
MODEL      220
REMARK 921   NORMALIZED FREE ENERGY PREDICTED BY IDOCK:   -0.37 KCAL/MOL
REMARK 922        TOTAL FREE ENERGY PREDICTED BY IDOCK:   -0.43 KCAL/MOL
REMARK 923 INTER-LIGAND FREE ENERGY PREDICTED BY IDOCK:   -0.43 KCAL/MOL
REMARK 924 INTRA-LIGAND FREE ENERGY PREDICTED BY IDOCK:   -0.00 KCAL/MOL
REMARK 927      BINDING AFFINITY PREDICTED BY RF-SCORE:    0.00 PKD
ROOT
HETATM    1  O   UNL     1      -5.671   3.066  63.326  1.00  0.00    -0.009 OA 
HETATM    2  C   UNL     1      -6.328   3.454  64.529  1.00  0.00    -0.024 C  
HETATM    3  H   UNL     1      -4.745   3.272  63.358  1.00  0.00     0.000 HD 
ENDROOT
BRANCH   2   4
HETATM    4  C   UNL     1      -7.830   3.120  64.477  1.00  0.00    -0.078 C  
HETATM    5  S   UNL     1      -8.182   1.782  65.690  1.00  0.00    -0.088 SA 
HETATM    6  H   UNL     1      -9.538   1.481  65.643  1.00  0.00     0.000 H  
BRANCH   4   7
HETATM    7  C   UNL     1      -8.674   4.379  64.730  1.00  0.00    -0.140 C  
HETATM    8  S   UNL     1     -10.478   4.111  64.642  1.00  0.00    -0.089 SA 
HETATM    9  H   UNL     1     -11.241   5.251  64.870  1.00  0.00     0.000 H  
ENDBRANCH   4   7
ENDBRANCH   2   4
TORSDOF 2
ENDMDL
