MODEL        1
REMARK 921   NORMALIZED FREE ENERGY PREDICTED BY IDOCK:   -6.97 KCAL/MOL
REMARK 922        TOTAL FREE ENERGY PREDICTED BY IDOCK:   -8.49 KCAL/MOL
REMARK 923 INTER-LIGAND FREE ENERGY PREDICTED BY IDOCK:   -8.19 KCAL/MOL
REMARK 924 INTRA-LIGAND FREE ENERGY PREDICTED BY IDOCK:   -0.30 KCAL/MOL
REMARK 927      BINDING AFFINITY PREDICTED BY RF-SCORE:    0.00 PKD
ROOT
HETATM    1  C   UNL     1      -8.098  15.739  69.023  1.00  0.00    -0.224 C  
HETATM    2  C   UNL     1      -9.248  15.959  68.009  1.00  0.00    -0.192 C  
HETATM    3  C   UNL     1      -9.498  17.452  67.749  1.00  0.00    -0.261 A  
HETATM    4  C   UNL     1     -10.458  15.111  68.362  1.00  0.00    -0.233 C  
HETATM    5  C   UNL     1     -10.768  17.975  67.515  1.00  0.00    -0.352 A  
HETATM    6  C   UNL     1     -11.023  14.086  67.676  1.00  0.00    -0.281 C  
HETATM    7  C   UNL     1     -10.906  19.329  67.202  1.00  0.00    -0.543 A  
HETATM    8  C   UNL     1     -12.157  13.424  68.440  1.00  0.00    -0.270 C  
HETATM    9  C   UNL     1     -11.216  15.246  69.620  1.00  0.00    -0.289 A  
HETATM   10  C   UNL     1     -12.188  14.239  69.687  1.00  0.00    -0.371 A  
HETATM   11  C   UNL     1     -11.101  16.160  70.660  1.00  0.00    -0.318 A  
HETATM   12  C   UNL     1      -9.778  20.132  67.115  1.00  0.00    -0.576 A  
HETATM   13  C   UNL     1      -8.550  19.546  67.343  1.00  0.00    -0.304 A  
HETATM   14  C   UNL     1     -11.947  16.035  71.765  1.00  0.00    -0.592 A  
HETATM   15  C   UNL     1     -13.028  14.096  70.782  1.00  0.00    -0.337 A  
HETATM   16  N   UNL     1      -8.391  18.238  67.641  1.00  0.00    -0.245 NA 
HETATM   17  C   UNL     1     -12.900  15.004  71.830  1.00  0.00    -0.415 A  
ENDROOT
BRANCH   6  18
HETATM   18  C   UNL     1     -10.686  13.522  66.319  1.00  0.00    -0.288 C  
BRANCH  18  19
HETATM   19  C   UNL     1     -11.805  12.597  65.805  1.00  0.00    -0.444 C  
BRANCH  19  20
HETATM   20  N   UNL     1     -12.590  13.090  64.653  1.00  0.00    -0.659 NA 
HETATM   21  C   UNL     1     -12.217  14.443  64.243  1.00  0.00    -0.423 C  
HETATM   22  C   UNL     1     -12.401  12.169  63.525  1.00  0.00    -0.574 C  
ENDBRANCH  19  20
ENDBRANCH  18  19
ENDBRANCH   6  18
TORSDOF 3
ENDMDL
MODEL        2
REMARK 921   NORMALIZED FREE ENERGY PREDICTED BY IDOCK:   -6.83 KCAL/MOL
REMARK 922        TOTAL FREE ENERGY PREDICTED BY IDOCK:   -8.32 KCAL/MOL
REMARK 923 INTER-LIGAND FREE ENERGY PREDICTED BY IDOCK:   -8.11 KCAL/MOL
REMARK 924 INTRA-LIGAND FREE ENERGY PREDICTED BY IDOCK:   -0.22 KCAL/MOL
REMARK 927      BINDING AFFINITY PREDICTED BY RF-SCORE:    0.00 PKD
ROOT
HETATM    1  C   UNL     1      -9.230  13.749  68.663  1.00  0.00    -0.069 C  
HETATM    2  C   UNL     1     -10.403  12.879  68.146  1.00  0.00    -0.243 C  
HETATM    3  C   UNL     1     -11.045  13.481  66.888  1.00  0.00    -0.296 A  
HETATM    4  C   UNL     1     -11.340  12.495  69.280  1.00  0.00    -0.307 C  
HETATM    5  C   UNL     1     -12.410  13.395  66.622  1.00  0.00    -0.324 A  
HETATM    6  C   UNL     1     -11.614  11.271  69.796  1.00  0.00    -0.408 C  
HETATM    7  C   UNL     1     -12.908  13.893  65.416  1.00  0.00    -0.466 A  
HETATM    8  C   UNL     1     -12.524  11.336  71.010  1.00  0.00    -0.503 C  
HETATM    9  C   UNL     1     -12.098  13.472  70.083  1.00  0.00    -0.425 A  
HETATM   10  C   UNL     1     -12.765  12.803  71.118  1.00  0.00    -0.355 A  
HETATM   11  C   UNL     1     -12.227  14.850  69.961  1.00  0.00    -0.381 A  
HETATM   12  C   UNL     1     -12.037  14.452  64.493  1.00  0.00    -0.498 A  
HETATM   13  C   UNL     1     -10.696  14.491  64.813  1.00  0.00    -0.393 A  
HETATM   14  C   UNL     1     -13.002  15.541  70.896  1.00  0.00    -0.526 A  
HETATM   15  C   UNL     1     -13.529  13.477  72.060  1.00  0.00    -0.584 A  
HETATM   16  N   UNL     1     -10.190  14.012  65.970  1.00  0.00    -0.295 NA 
HETATM   17  C   UNL     1     -13.643  14.860  71.944  1.00  0.00    -0.505 A  
ENDROOT
BRANCH   6  18
HETATM   18  C   UNL     1     -11.146   9.905  69.359  1.00  0.00    -0.237 C  
BRANCH  18  19
HETATM   19  C   UNL     1     -10.731   9.044  70.566  1.00  0.00    -0.239 C  
BRANCH  19  20
HETATM   20  N   UNL     1     -11.691   8.003  70.993  1.00  0.00    -0.286 NA 
HETATM   21  C   UNL     1     -11.448   6.707  70.362  1.00  0.00    -0.386 C  
HETATM   22  C   UNL     1     -11.610   7.858  72.452  1.00  0.00    -0.380 C  
ENDBRANCH  19  20
ENDBRANCH  18  19
ENDBRANCH   6  18
TORSDOF 3
ENDMDL
MODEL        3
REMARK 921   NORMALIZED FREE ENERGY PREDICTED BY IDOCK:   -6.69 KCAL/MOL
REMARK 922        TOTAL FREE ENERGY PREDICTED BY IDOCK:   -8.16 KCAL/MOL
REMARK 923 INTER-LIGAND FREE ENERGY PREDICTED BY IDOCK:   -7.86 KCAL/MOL
REMARK 924 INTRA-LIGAND FREE ENERGY PREDICTED BY IDOCK:   -0.30 KCAL/MOL
REMARK 927      BINDING AFFINITY PREDICTED BY RF-SCORE:    0.00 PKD
ROOT
HETATM    1  C   UNL     1     -10.895  18.567  67.700  1.00  0.00    -0.319 C  
HETATM    2  C   UNL     1     -10.233  17.536  68.649  1.00  0.00    -0.373 C  
HETATM    3  C   UNL     1      -8.701  17.598  68.573  1.00  0.00    -0.285 A  
HETATM    4  C   UNL     1     -10.875  16.167  68.501  1.00  0.00    -0.313 C  
HETATM    5  C   UNL     1      -7.893  16.469  68.695  1.00  0.00    -0.226 A  
HETATM    6  C   UNL     1     -11.591  15.448  69.401  1.00  0.00    -0.354 C  
HETATM    7  C   UNL     1      -6.505  16.615  68.700  1.00  0.00    -0.155 A  
HETATM    8  C   UNL     1     -12.159  14.169  68.811  1.00  0.00    -0.326 C  
HETATM    9  C   UNL     1     -10.863  15.387  67.249  1.00  0.00    -0.316 A  
HETATM   10  C   UNL     1     -11.642  14.234  67.414  1.00  0.00    -0.394 A  
HETATM   11  C   UNL     1     -10.238  15.624  66.032  1.00  0.00    -0.354 A  
HETATM   12  C   UNL     1      -5.947  17.881  68.600  1.00  0.00    -0.187 A  
HETATM   13  C   UNL     1      -6.804  18.957  68.499  1.00  0.00    -0.260 A  
HETATM   14  C   UNL     1     -10.424  14.714  64.989  1.00  0.00    -0.447 A  
HETATM   15  C   UNL     1     -11.845  13.327  66.384  1.00  0.00    -0.446 A  
HETATM   16  N   UNL     1      -8.151  18.842  68.496  1.00  0.00    -0.337 NA 
HETATM   17  C   UNL     1     -11.229  13.577  65.160  1.00  0.00    -0.320 A  
ENDROOT
BRANCH   6  18
HETATM   18  C   UNL     1     -11.906  15.738  70.847  1.00  0.00    -0.451 C  
BRANCH  18  19
HETATM   19  C   UNL     1     -13.383  15.444  71.168  1.00  0.00    -0.508 C  
BRANCH  19  20
HETATM   20  N   UNL     1     -13.663  14.846  72.491  1.00  0.00    -0.447 NA 
HETATM   21  C   UNL     1     -13.398  13.408  72.537  1.00  0.00    -0.484 C  
HETATM   22  C   UNL     1     -12.839  15.526  73.499  1.00  0.00    -0.560 C  
ENDBRANCH  19  20
ENDBRANCH  18  19
ENDBRANCH   6  18
TORSDOF 3
ENDMDL
MODEL        4
REMARK 921   NORMALIZED FREE ENERGY PREDICTED BY IDOCK:   -6.60 KCAL/MOL
REMARK 922        TOTAL FREE ENERGY PREDICTED BY IDOCK:   -8.06 KCAL/MOL
REMARK 923 INTER-LIGAND FREE ENERGY PREDICTED BY IDOCK:   -7.62 KCAL/MOL
REMARK 924 INTRA-LIGAND FREE ENERGY PREDICTED BY IDOCK:   -0.44 KCAL/MOL
REMARK 927      BINDING AFFINITY PREDICTED BY RF-SCORE:    0.00 PKD
ROOT
HETATM    1  C   UNL     1      -9.243  14.362  68.664  1.00  0.00    -0.181 C  
HETATM    2  C   UNL     1     -10.206  13.299  68.080  1.00  0.00    -0.243 C  
HETATM    3  C   UNL     1     -10.954  13.827  66.848  1.00  0.00    -0.290 A  
HETATM    4  C   UNL     1     -11.046  12.662  69.174  1.00  0.00    -0.252 C  
HETATM    5  C   UNL     1     -12.271  13.474  66.555  1.00  0.00    -0.433 A  
HETATM    6  C   UNL     1     -11.060  11.379  69.615  1.00  0.00    -0.241 C  
HETATM    7  C   UNL     1     -12.856  13.927  65.371  1.00  0.00    -0.466 A  
HETATM    8  C   UNL     1     -11.969  11.182  70.816  1.00  0.00    -0.415 C  
HETATM    9  C   UNL     1     -11.995  13.410  70.019  1.00  0.00    -0.407 A  
HETATM   10  C   UNL     1     -12.512  12.557  71.004  1.00  0.00    -0.353 A  
HETATM   11  C   UNL     1     -12.409  14.735  69.974  1.00  0.00    -0.365 A  
HETATM   12  C   UNL     1     -12.117  14.709  64.495  1.00  0.00    -0.490 A  
HETATM   13  C   UNL     1     -10.815  15.008  64.839  1.00  0.00    -0.411 A  
HETATM   14  C   UNL     1     -13.315  15.193  70.934  1.00  0.00    -0.463 A  
HETATM   15  C   UNL     1     -13.404  13.000  71.969  1.00  0.00    -0.588 A  
HETATM   16  N   UNL     1     -10.225  14.578  65.976  1.00  0.00    -0.300 NA 
HETATM   17  C   UNL     1     -13.804  14.333  71.931  1.00  0.00    -0.545 A  
ENDROOT
BRANCH   6  18
HETATM   18  C   UNL     1     -10.315  10.169  69.109  1.00  0.00    -0.237 C  
BRANCH  18  19
HETATM   19  C   UNL     1     -10.779   9.779  67.694  1.00  0.00    -0.274 C  
BRANCH  19  20
HETATM   20  N   UNL     1      -9.745   9.786  66.637  1.00  0.00    -0.189 NA 
HETATM   21  C   UNL     1      -9.321   8.444  66.242  1.00  0.00    -0.219 C  
HETATM   22  C   UNL     1     -10.275  10.495  65.465  1.00  0.00    -0.256 C  
ENDBRANCH  19  20
ENDBRANCH  18  19
ENDBRANCH   6  18
TORSDOF 3
ENDMDL
MODEL        5
REMARK 921   NORMALIZED FREE ENERGY PREDICTED BY IDOCK:   -6.57 KCAL/MOL
REMARK 922        TOTAL FREE ENERGY PREDICTED BY IDOCK:   -8.02 KCAL/MOL
REMARK 923 INTER-LIGAND FREE ENERGY PREDICTED BY IDOCK:   -7.78 KCAL/MOL
REMARK 924 INTRA-LIGAND FREE ENERGY PREDICTED BY IDOCK:   -0.24 KCAL/MOL
REMARK 927      BINDING AFFINITY PREDICTED BY RF-SCORE:    0.00 PKD
ROOT
HETATM    1  C   UNL     1      -8.914  11.794  67.593  1.00  0.00    -0.169 C  
HETATM    2  C   UNL     1     -10.459  11.702  67.531  1.00  0.00    -0.228 C  
HETATM    3  C   UNL     1     -10.981  11.892  66.099  1.00  0.00    -0.308 A  
HETATM    4  C   UNL     1     -11.102  12.550  68.616  1.00  0.00    -0.305 C  
HETATM    5  C   UNL     1     -12.183  12.540  65.814  1.00  0.00    -0.361 A  
HETATM    6  C   UNL     1     -11.847  12.166  69.682  1.00  0.00    -0.391 C  
HETATM    7  C   UNL     1     -12.633  12.599  64.494  1.00  0.00    -0.491 A  
HETATM    8  C   UNL     1     -12.201  13.325  70.597  1.00  0.00    -0.417 C  
HETATM    9  C   UNL     1     -10.950  14.014  68.710  1.00  0.00    -0.282 A  
HETATM   10  C   UNL     1     -11.562  14.468  69.886  1.00  0.00    -0.340 A  
HETATM   11  C   UNL     1     -10.332  14.923  67.862  1.00  0.00    -0.237 A  
HETATM   12  C   UNL     1     -11.889  12.003  63.486  1.00  0.00    -0.587 A  
HETATM   13  C   UNL     1     -10.718  11.365  63.840  1.00  0.00    -0.397 A  
HETATM   14  C   UNL     1     -10.314  16.274  68.218  1.00  0.00    -0.272 A  
HETATM   15  C   UNL     1     -11.542  15.804  70.258  1.00  0.00    -0.377 A  
HETATM   16  N   UNL     1     -10.264  11.289  65.111  1.00  0.00    -0.274 NA 
HETATM   17  C   UNL     1     -10.908  16.711  69.413  1.00  0.00    -0.295 A  
ENDROOT
BRANCH   6  18
HETATM   18  C   UNL     1     -12.342  10.799  70.081  1.00  0.00    -0.401 C  
BRANCH  18  19
HETATM   19  C   UNL     1     -12.901  10.803  71.516  1.00  0.00    -0.462 C  
BRANCH  19  20
HETATM   20  N   UNL     1     -13.060   9.483  72.164  1.00  0.00    -0.426 NA 
HETATM   21  C   UNL     1     -14.164   8.702  71.609  1.00  0.00    -0.387 C  
HETATM   22  C   UNL     1     -11.807   8.731  72.015  1.00  0.00    -0.372 C  
ENDBRANCH  19  20
ENDBRANCH  18  19
ENDBRANCH   6  18
TORSDOF 3
ENDMDL
MODEL        6
REMARK 921   NORMALIZED FREE ENERGY PREDICTED BY IDOCK:   -6.44 KCAL/MOL
REMARK 922        TOTAL FREE ENERGY PREDICTED BY IDOCK:   -7.87 KCAL/MOL
REMARK 923 INTER-LIGAND FREE ENERGY PREDICTED BY IDOCK:   -7.59 KCAL/MOL
REMARK 924 INTRA-LIGAND FREE ENERGY PREDICTED BY IDOCK:   -0.28 KCAL/MOL
REMARK 927      BINDING AFFINITY PREDICTED BY RF-SCORE:    0.00 PKD
ROOT
HETATM    1  C   UNL     1      -9.000  12.757  67.569  1.00  0.00    -0.192 C  
HETATM    2  C   UNL     1     -10.467  13.248  67.477  1.00  0.00    -0.237 C  
HETATM    3  C   UNL     1     -11.025  13.104  66.054  1.00  0.00    -0.279 A  
HETATM    4  C   UNL     1     -10.634  14.600  68.149  1.00  0.00    -0.237 C  
HETATM    5  C   UNL     1     -11.922  14.015  65.500  1.00  0.00    -0.393 A  
HETATM    6  C   UNL     1     -11.355  14.934  69.248  1.00  0.00    -0.315 C  
HETATM    7  C   UNL     1     -12.451  13.773  64.231  1.00  0.00    -0.308 A  
HETATM    8  C   UNL     1     -11.159  16.383  69.661  1.00  0.00    -0.306 C  
HETATM    9  C   UNL     1      -9.941  15.825  67.709  1.00  0.00    -0.227 A  
HETATM   10  C   UNL     1     -10.217  16.863  68.610  1.00  0.00    -0.301 A  
HETATM   11  C   UNL     1      -9.121  16.066  66.615  1.00  0.00    -0.282 A  
HETATM   12  C   UNL     1     -12.089  12.623  63.544  1.00  0.00    -0.648 A  
HETATM   13  C   UNL     1     -11.209  11.756  64.157  1.00  0.00    -0.364 A  
HETATM   14  C   UNL     1      -8.566  17.338  66.454  1.00  0.00    -0.294 A  
HETATM   15  C   UNL     1      -9.665  18.127  68.469  1.00  0.00    -0.372 A  
HETATM   16  N   UNL     1     -10.688  11.966  65.386  1.00  0.00    -0.275 NA 
HETATM   17  C   UNL     1      -8.829  18.361  67.380  1.00  0.00    -0.262 A  
ENDROOT
BRANCH   6  18
HETATM   18  C   UNL     1     -12.278  14.097  70.097  1.00  0.00    -0.415 C  
BRANCH  18  19
HETATM   19  C   UNL     1     -13.215  14.979  70.943  1.00  0.00    -0.399 C  
BRANCH  19  20
HETATM   20  N   UNL     1     -13.642  14.425  72.246  1.00  0.00    -0.411 NA 
HETATM   21  C   UNL     1     -13.533  12.969  72.313  1.00  0.00    -0.547 C  
HETATM   22  C   UNL     1     -12.818  15.025  73.305  1.00  0.00    -0.531 C  
ENDBRANCH  19  20
ENDBRANCH  18  19
ENDBRANCH   6  18
TORSDOF 3
ENDMDL
MODEL        7
REMARK 921   NORMALIZED FREE ENERGY PREDICTED BY IDOCK:   -6.43 KCAL/MOL
REMARK 922        TOTAL FREE ENERGY PREDICTED BY IDOCK:   -7.86 KCAL/MOL
REMARK 923 INTER-LIGAND FREE ENERGY PREDICTED BY IDOCK:   -7.54 KCAL/MOL
REMARK 924 INTRA-LIGAND FREE ENERGY PREDICTED BY IDOCK:   -0.31 KCAL/MOL
REMARK 927      BINDING AFFINITY PREDICTED BY RF-SCORE:    0.00 PKD
ROOT
HETATM    1  C   UNL     1     -12.263  14.041  66.665  1.00  0.00    -0.463 C  
HETATM    2  C   UNL     1     -11.604  14.586  67.956  1.00  0.00    -0.364 C  
HETATM    3  C   UNL     1     -10.130  14.951  67.730  1.00  0.00    -0.234 A  
HETATM    4  C   UNL     1     -11.917  13.696  69.147  1.00  0.00    -0.394 C  
HETATM    5  C   UNL     1      -9.151  14.779  68.708  1.00  0.00    -0.191 A  
HETATM    6  C   UNL     1     -12.635  13.971  70.265  1.00  0.00    -0.354 C  
HETATM    7  C   UNL     1      -7.848  15.214  68.458  1.00  0.00    -0.135 A  
HETATM    8  C   UNL     1     -12.811  12.759  71.163  1.00  0.00    -0.315 C  
HETATM    9  C   UNL     1     -11.509  12.282  69.244  1.00  0.00    -0.352 A  
HETATM   10  C   UNL     1     -12.058  11.719  70.404  1.00  0.00    -0.440 A  
HETATM   11  C   UNL     1     -10.721  11.501  68.409  1.00  0.00    -0.241 A  
HETATM   12  C   UNL     1      -7.547  15.823  67.249  1.00  0.00    -0.244 A  
HETATM   13  C   UNL     1      -8.566  15.976  66.332  1.00  0.00    -0.334 A  
HETATM   14  C   UNL     1     -10.516  10.158  68.735  1.00  0.00    -0.223 A  
HETATM   15  C   UNL     1     -11.872  10.385  70.736  1.00  0.00    -0.466 A  
HETATM   16  N   UNL     1      -9.836  15.569  66.553  1.00  0.00    -0.251 NA 
HETATM   17  C   UNL     1     -11.095   9.601  69.887  1.00  0.00    -0.268 A  
ENDROOT
BRANCH   6  18
HETATM   18  C   UNL     1     -13.274  15.260  70.717  1.00  0.00    -0.442 C  
BRANCH  18  19
HETATM   19  C   UNL     1     -13.717  15.178  72.190  1.00  0.00    -0.477 C  
BRANCH  19  20
HETATM   20  N   UNL     1     -12.938  15.980  73.157  1.00  0.00    -0.520 NA 
HETATM   21  C   UNL     1     -12.466  15.200  74.300  1.00  0.00    -0.488 C  
HETATM   22  C   UNL     1     -11.788  16.570  72.460  1.00  0.00    -0.349 C  
ENDBRANCH  19  20
ENDBRANCH  18  19
ENDBRANCH   6  18
TORSDOF 3
ENDMDL
MODEL        8
REMARK 921   NORMALIZED FREE ENERGY PREDICTED BY IDOCK:   -6.39 KCAL/MOL
REMARK 922        TOTAL FREE ENERGY PREDICTED BY IDOCK:   -7.81 KCAL/MOL
REMARK 923 INTER-LIGAND FREE ENERGY PREDICTED BY IDOCK:   -7.44 KCAL/MOL
REMARK 924 INTRA-LIGAND FREE ENERGY PREDICTED BY IDOCK:   -0.37 KCAL/MOL
REMARK 927      BINDING AFFINITY PREDICTED BY RF-SCORE:    0.00 PKD
ROOT
HETATM    1  C   UNL     1     -12.775  14.065  65.617  1.00  0.00    -0.515 C  
HETATM    2  C   UNL     1     -11.261  14.281  65.863  1.00  0.00    -0.319 C  
HETATM    3  C   UNL     1     -10.481  12.961  65.795  1.00  0.00    -0.278 A  
HETATM    4  C   UNL     1     -11.025  15.158  67.081  1.00  0.00    -0.326 C  
HETATM    5  C   UNL     1      -9.376  12.694  66.602  1.00  0.00    -0.236 A  
HETATM    6  C   UNL     1     -10.474  16.395  67.160  1.00  0.00    -0.297 C  
HETATM    7  C   UNL     1      -8.667  11.505  66.424  1.00  0.00    -0.179 A  
HETATM    8  C   UNL     1     -10.532  16.974  68.563  1.00  0.00    -0.373 C  
HETATM    9  C   UNL     1     -11.443  14.793  68.447  1.00  0.00    -0.336 A  
HETATM   10  C   UNL     1     -11.189  15.866  69.312  1.00  0.00    -0.335 A  
HETATM   11  C   UNL     1     -12.008  13.627  68.947  1.00  0.00    -0.392 A  
HETATM   12  C   UNL     1      -9.061  10.611  65.439  1.00  0.00    -0.214 A  
HETATM   13  C   UNL     1     -10.153  10.944  64.665  1.00  0.00    -0.328 A  
HETATM   14  C   UNL     1     -12.335  13.564  70.304  1.00  0.00    -0.370 A  
HETATM   15  C   UNL     1     -11.518  15.821  70.659  1.00  0.00    -0.415 A  
HETATM   16  N   UNL     1     -10.852  12.091  64.814  1.00  0.00    -0.295 NA 
HETATM   17  C   UNL     1     -12.099  14.657  71.154  1.00  0.00    -0.403 A  
ENDROOT
BRANCH   6  18
HETATM   18  C   UNL     1      -9.851  17.252  66.087  1.00  0.00    -0.269 C  
BRANCH  18  19
HETATM   19  C   UNL     1     -10.528  18.633  66.011  1.00  0.00    -0.414 C  
BRANCH  19  20
HETATM   20  N   UNL     1      -9.644  19.809  66.165  1.00  0.00    -0.404 NA 
HETATM   21  C   UNL     1      -9.909  20.568  67.387  1.00  0.00    -0.434 C  
HETATM   22  C   UNL     1      -8.248  19.350  66.169  1.00  0.00    -0.311 C  
ENDBRANCH  19  20
ENDBRANCH  18  19
ENDBRANCH   6  18
TORSDOF 3
ENDMDL
MODEL        9
REMARK 921   NORMALIZED FREE ENERGY PREDICTED BY IDOCK:   -6.23 KCAL/MOL
REMARK 922        TOTAL FREE ENERGY PREDICTED BY IDOCK:   -7.63 KCAL/MOL
REMARK 923 INTER-LIGAND FREE ENERGY PREDICTED BY IDOCK:   -7.39 KCAL/MOL
REMARK 924 INTRA-LIGAND FREE ENERGY PREDICTED BY IDOCK:   -0.23 KCAL/MOL
REMARK 927      BINDING AFFINITY PREDICTED BY RF-SCORE:    0.00 PKD
ROOT
HETATM    1  C   UNL     1     -12.657  12.916  65.176  1.00  0.00    -0.536 C  
HETATM    2  C   UNL     1     -11.691  12.980  66.385  1.00  0.00    -0.444 C  
HETATM    3  C   UNL     1     -10.700  14.145  66.258  1.00  0.00    -0.293 A  
HETATM    4  C   UNL     1     -11.108  11.611  66.692  1.00  0.00    -0.364 C  
HETATM    5  C   UNL     1      -9.383  14.069  66.710  1.00  0.00    -0.289 A  
HETATM    6  C   UNL     1     -11.270  10.830  67.789  1.00  0.00    -0.385 C  
HETATM    7  C   UNL     1      -8.566  15.199  66.636  1.00  0.00    -0.279 A  
HETATM    8  C   UNL     1     -10.604   9.473  67.646  1.00  0.00    -0.329 C  
HETATM    9  C   UNL     1     -10.268  10.848  65.750  1.00  0.00    -0.318 A  
HETATM   10  C   UNL     1      -9.999   9.583  66.289  1.00  0.00    -0.344 A  
HETATM   11  C   UNL     1      -9.753  11.188  64.506  1.00  0.00    -0.310 A  
HETATM   12  C   UNL     1      -9.077  16.385  66.129  1.00  0.00    -0.362 A  
HETATM   13  C   UNL     1     -10.392  16.395  65.714  1.00  0.00    -0.369 A  
HETATM   14  C   UNL     1      -8.997  10.243  63.807  1.00  0.00    -0.260 A  
HETATM   15  C   UNL     1      -9.260   8.631  65.602  1.00  0.00    -0.204 A  
HETATM   16  N   UNL     1     -11.204  15.317  65.779  1.00  0.00    -0.294 NA 
HETATM   17  C   UNL     1      -8.758   8.969  64.348  1.00  0.00    -0.151 A  
ENDROOT
BRANCH   6  18
HETATM   18  C   UNL     1     -12.005  11.104  69.077  1.00  0.00    -0.389 C  
BRANCH  18  19
HETATM   19  C   UNL     1     -11.389  10.318  70.250  1.00  0.00    -0.323 C  
BRANCH  19  20
HETATM   20  N   UNL     1     -12.333   9.562  71.102  1.00  0.00    -0.319 NA 
HETATM   21  C   UNL     1     -11.666   8.606  71.985  1.00  0.00    -0.369 C  
HETATM   22  C   UNL     1     -13.104  10.516  71.910  1.00  0.00    -0.462 C  
ENDBRANCH  19  20
ENDBRANCH  18  19
ENDBRANCH   6  18
TORSDOF 3
ENDMDL
MODEL       10
REMARK 921   NORMALIZED FREE ENERGY PREDICTED BY IDOCK:   -6.21 KCAL/MOL
REMARK 922        TOTAL FREE ENERGY PREDICTED BY IDOCK:   -7.59 KCAL/MOL
REMARK 923 INTER-LIGAND FREE ENERGY PREDICTED BY IDOCK:   -7.43 KCAL/MOL
REMARK 924 INTRA-LIGAND FREE ENERGY PREDICTED BY IDOCK:   -0.17 KCAL/MOL
REMARK 927      BINDING AFFINITY PREDICTED BY RF-SCORE:    0.00 PKD
ROOT
HETATM    1  C   UNL     1     -12.839  13.852  65.955  1.00  0.00    -0.387 C  
HETATM    2  C   UNL     1     -11.849  14.009  67.136  1.00  0.00    -0.444 C  
HETATM    3  C   UNL     1     -10.623  14.846  66.741  1.00  0.00    -0.305 A  
HETATM    4  C   UNL     1     -11.582  12.673  67.808  1.00  0.00    -0.403 C  
HETATM    5  C   UNL     1      -9.346  14.595  67.240  1.00  0.00    -0.212 A  
HETATM    6  C   UNL     1     -11.886  12.264  69.065  1.00  0.00    -0.358 C  
HETATM    7  C   UNL     1      -8.297  15.452  66.901  1.00  0.00    -0.290 A  
HETATM    8  C   UNL     1     -11.549  10.802  69.303  1.00  0.00    -0.376 C  
HETATM    9  C   UNL     1     -10.964  11.521  67.125  1.00  0.00    -0.338 A  
HETATM   10  C   UNL     1     -10.974  10.414  67.984  1.00  0.00    -0.347 A  
HETATM   11  C   UNL     1     -10.421  11.399  65.853  1.00  0.00    -0.309 A  
HETATM   12  C   UNL     1      -8.540  16.547  66.086  1.00  0.00    -0.334 A  
HETATM   13  C   UNL     1      -9.830  16.745  65.640  1.00  0.00    -0.079 A  
HETATM   14  C   UNL     1      -9.919  10.159  65.450  1.00  0.00    -0.377 A  
HETATM   15  C   UNL     1     -10.489   9.174  67.594  1.00  0.00    -0.323 A  
HETATM   16  N   UNL     1     -10.863  15.934  65.958  1.00  0.00    -0.273 NA 
HETATM   17  C   UNL     1      -9.960   9.051  66.311  1.00  0.00    -0.352 A  
ENDROOT
BRANCH   6  18
HETATM   18  C   UNL     1     -12.502  13.023  70.212  1.00  0.00    -0.217 C  
BRANCH  18  19
HETATM   19  C   UNL     1     -11.756  14.345  70.473  1.00  0.00    -0.264 C  
BRANCH  19  20
HETATM   20  N   UNL     1     -12.570  15.473  70.975  1.00  0.00    -0.426 NA 
HETATM   21  C   UNL     1     -13.886  15.058  71.460  1.00  0.00    -0.484 C  
HETATM   22  C   UNL     1     -11.837  16.135  72.063  1.00  0.00    -0.530 C  
ENDBRANCH  19  20
ENDBRANCH  18  19
ENDBRANCH   6  18
TORSDOF 3
ENDMDL
MODEL       11
REMARK 921   NORMALIZED FREE ENERGY PREDICTED BY IDOCK:   -6.20 KCAL/MOL
REMARK 922        TOTAL FREE ENERGY PREDICTED BY IDOCK:   -7.58 KCAL/MOL
REMARK 923 INTER-LIGAND FREE ENERGY PREDICTED BY IDOCK:   -7.33 KCAL/MOL
REMARK 924 INTRA-LIGAND FREE ENERGY PREDICTED BY IDOCK:   -0.25 KCAL/MOL
REMARK 927      BINDING AFFINITY PREDICTED BY RF-SCORE:    0.00 PKD
ROOT
HETATM    1  C   UNL     1     -10.897  17.661  65.660  1.00  0.00     0.035 C  
HETATM    2  C   UNL     1     -10.155  17.034  66.867  1.00  0.00    -0.298 C  
HETATM    3  C   UNL     1      -8.633  17.044  66.665  1.00  0.00    -0.252 A  
HETATM    4  C   UNL     1     -10.786  15.712  67.270  1.00  0.00    -0.298 C  
HETATM    5  C   UNL     1      -7.803  16.025  67.128  1.00  0.00    -0.244 A  
HETATM    6  C   UNL     1     -11.426  15.376  68.418  1.00  0.00    -0.365 C  
HETATM    7  C   UNL     1      -6.420  16.146  66.981  1.00  0.00    -0.109 A  
HETATM    8  C   UNL     1     -12.017  13.978  68.372  1.00  0.00    -0.378 C  
HETATM    9  C   UNL     1     -10.853  14.532  66.388  1.00  0.00    -0.318 A  
HETATM   10  C   UNL     1     -11.602  13.527  67.014  1.00  0.00    -0.394 A  
HETATM   11  C   UNL     1     -10.320  14.306  65.126  1.00  0.00    -0.440 A  
HETATM   12  C   UNL     1      -5.888  17.283  66.390  1.00  0.00    -0.222 A  
HETATM   13  C   UNL     1      -6.765  18.260  65.969  1.00  0.00    -0.266 A  
HETATM   14  C   UNL     1     -10.567  13.083  64.498  1.00  0.00    -0.413 A  
HETATM   15  C   UNL     1     -11.865  12.312  66.398  1.00  0.00    -0.382 A  
HETATM   16  N   UNL     1      -8.107  18.169  66.104  1.00  0.00    -0.470 NA 
HETATM   17  C   UNL     1     -11.343  12.094  65.126  1.00  0.00    -0.379 A  
ENDROOT
BRANCH   6  18
HETATM   18  C   UNL     1     -11.641  16.173  69.680  1.00  0.00    -0.244 C  
BRANCH  18  19
HETATM   19  C   UNL     1     -12.096  15.269  70.841  1.00  0.00    -0.344 C  
BRANCH  19  20
HETATM   20  N   UNL     1     -13.139  15.819  71.733  1.00  0.00    -0.460 NA 
HETATM   21  C   UNL     1     -14.355  15.008  71.762  1.00  0.00    -0.580 C  
HETATM   22  C   UNL     1     -12.589  15.922  73.092  1.00  0.00    -0.513 C  
ENDBRANCH  19  20
ENDBRANCH  18  19
ENDBRANCH   6  18
TORSDOF 3
ENDMDL
MODEL       12
REMARK 921   NORMALIZED FREE ENERGY PREDICTED BY IDOCK:   -6.03 KCAL/MOL
REMARK 922        TOTAL FREE ENERGY PREDICTED BY IDOCK:   -7.39 KCAL/MOL
REMARK 923 INTER-LIGAND FREE ENERGY PREDICTED BY IDOCK:   -7.15 KCAL/MOL
REMARK 924 INTRA-LIGAND FREE ENERGY PREDICTED BY IDOCK:   -0.24 KCAL/MOL
REMARK 927      BINDING AFFINITY PREDICTED BY RF-SCORE:    0.00 PKD
ROOT
HETATM    1  C   UNL     1     -12.002  12.345  65.946  1.00  0.00    -0.434 C  
HETATM    2  C   UNL     1     -10.784  13.084  66.552  1.00  0.00    -0.290 C  
HETATM    3  C   UNL     1      -9.551  12.173  66.636  1.00  0.00    -0.220 A  
HETATM    4  C   UNL     1     -11.172  13.834  67.815  1.00  0.00    -0.312 C  
HETATM    5  C   UNL     1      -8.626  12.249  67.675  1.00  0.00    -0.169 A  
HETATM    6  C   UNL     1     -11.184  15.168  68.058  1.00  0.00    -0.329 C  
HETATM    7  C   UNL     1      -7.485  11.445  67.639  1.00  0.00    -0.103 A  
HETATM    8  C   UNL     1     -11.756  15.511  69.422  1.00  0.00    -0.382 C  
HETATM    9  C   UNL     1     -11.688  13.178  69.032  1.00  0.00    -0.367 A  
HETATM   10  C   UNL     1     -12.064  14.157  69.962  1.00  0.00    -0.409 A  
HETATM   11  C   UNL     1     -11.839  11.835  69.349  1.00  0.00    -0.398 A  
HETATM   12  C   UNL     1      -7.279  10.593  66.563  1.00  0.00    -0.134 A  
HETATM   13  C   UNL     1      -8.226  10.579  65.561  1.00  0.00    -0.162 A  
HETATM   14  C   UNL     1     -12.390  11.492  70.587  1.00  0.00    -0.457 A  
HETATM   15  C   UNL     1     -12.622  13.831  71.189  1.00  0.00    -0.452 A  
HETATM   16  N   UNL     1      -9.335  11.351  65.571  1.00  0.00    -0.222 NA 
HETATM   17  C   UNL     1     -12.787  12.483  71.498  1.00  0.00    -0.367 A  
ENDROOT
BRANCH   6  18
HETATM   18  C   UNL     1     -10.740  16.318  67.189  1.00  0.00    -0.247 C  
BRANCH  18  19
HETATM   19  C   UNL     1     -10.290  17.520  68.040  1.00  0.00    -0.368 C  
BRANCH  19  20
HETATM   20  N   UNL     1     -10.769  18.850  67.605  1.00  0.00    -0.425 NA 
HETATM   21  C   UNL     1     -10.167  19.950  68.357  1.00  0.00    -0.433 C  
HETATM   22  C   UNL     1     -10.469  19.014  66.176  1.00  0.00    -0.467 C  
ENDBRANCH  19  20
ENDBRANCH  18  19
ENDBRANCH   6  18
TORSDOF 3
ENDMDL
MODEL       13
REMARK 921   NORMALIZED FREE ENERGY PREDICTED BY IDOCK:   -5.94 KCAL/MOL
REMARK 922        TOTAL FREE ENERGY PREDICTED BY IDOCK:   -7.28 KCAL/MOL
REMARK 923 INTER-LIGAND FREE ENERGY PREDICTED BY IDOCK:   -6.97 KCAL/MOL
REMARK 924 INTRA-LIGAND FREE ENERGY PREDICTED BY IDOCK:   -0.31 KCAL/MOL
REMARK 927      BINDING AFFINITY PREDICTED BY RF-SCORE:    0.00 PKD
ROOT
HETATM    1  C   UNL     1     -12.388  12.898  65.579  1.00  0.00    -0.517 C  
HETATM    2  C   UNL     1     -11.001  13.495  65.922  1.00  0.00    -0.284 C  
HETATM    3  C   UNL     1      -9.918  12.410  65.993  1.00  0.00    -0.255 A  
HETATM    4  C   UNL     1     -11.094  14.453  67.098  1.00  0.00    -0.318 C  
HETATM    5  C   UNL     1      -8.855  12.462  66.894  1.00  0.00    -0.205 A  
HETATM    6  C   UNL     1     -10.873  15.791  67.141  1.00  0.00    -0.289 C  
HETATM    7  C   UNL     1      -7.863  11.481  66.842  1.00  0.00    -0.163 A  
HETATM    8  C   UNL     1     -11.193  16.394  68.497  1.00  0.00    -0.334 C  
HETATM    9  C   UNL     1     -11.526  14.052  68.450  1.00  0.00    -0.340 A  
HETATM   10  C   UNL     1     -11.619  15.189  69.263  1.00  0.00    -0.344 A  
HETATM   11  C   UNL     1     -11.829  12.803  68.977  1.00  0.00    -0.344 A  
HETATM   12  C   UNL     1      -7.938  10.478  65.887  1.00  0.00    -0.154 A  
HETATM   13  C   UNL     1      -9.007  10.495  65.016  1.00  0.00    -0.201 A  
HETATM   14  C   UNL     1     -12.246  12.716  70.308  1.00  0.00    -0.347 A  
HETATM   15  C   UNL     1     -12.042  15.119  70.582  1.00  0.00    -0.378 A  
HETATM   16  N   UNL     1      -9.977  11.435  65.043  1.00  0.00    -0.254 NA 
HETATM   17  C   UNL     1     -12.361  13.867  71.104  1.00  0.00    -0.440 A  
ENDROOT
BRANCH   6  18
HETATM   18  C   UNL     1     -10.389  16.731  66.066  1.00  0.00    -0.346 C  
BRANCH  18  19
HETATM   19  C   UNL     1      -9.001  17.303  66.407  1.00  0.00    -0.252 C  
BRANCH  19  20
HETATM   20  N   UNL     1      -8.811  18.752  66.180  1.00  0.00    -0.474 NA 
HETATM   21  C   UNL     1     -10.065  19.503  66.200  1.00  0.00    -0.469 C  
HETATM   22  C   UNL     1      -7.911  19.277  67.216  1.00  0.00    -0.260 C  
ENDBRANCH  19  20
ENDBRANCH  18  19
ENDBRANCH   6  18
TORSDOF 3
ENDMDL
MODEL       14
REMARK 921   NORMALIZED FREE ENERGY PREDICTED BY IDOCK:   -5.93 KCAL/MOL
REMARK 922        TOTAL FREE ENERGY PREDICTED BY IDOCK:   -7.27 KCAL/MOL
REMARK 923 INTER-LIGAND FREE ENERGY PREDICTED BY IDOCK:   -7.03 KCAL/MOL
REMARK 924 INTRA-LIGAND FREE ENERGY PREDICTED BY IDOCK:   -0.24 KCAL/MOL
REMARK 927      BINDING AFFINITY PREDICTED BY RF-SCORE:    0.00 PKD
ROOT
HETATM    1  C   UNL     1     -12.763  13.699  65.587  1.00  0.00    -0.505 C  
HETATM    2  C   UNL     1     -11.816  13.767  66.811  1.00  0.00    -0.454 C  
HETATM    3  C   UNL     1     -10.682  14.780  66.596  1.00  0.00    -0.309 A  
HETATM    4  C   UNL     1     -11.416  12.375  67.270  1.00  0.00    -0.421 C  
HETATM    5  C   UNL     1      -9.394  14.588  67.091  1.00  0.00    -0.225 A  
HETATM    6  C   UNL     1     -11.693  11.738  68.435  1.00  0.00    -0.389 C  
HETATM    7  C   UNL     1      -8.439  15.594  66.928  1.00  0.00    -0.286 A  
HETATM    8  C   UNL     1     -11.203  10.301  68.449  1.00  0.00    -0.284 C  
HETATM    9  C   UNL     1     -10.664  11.420  66.434  1.00  0.00    -0.325 A  
HETATM   10  C   UNL     1     -10.567  10.194  67.105  1.00  0.00    -0.308 A  
HETATM   11  C   UNL     1     -10.090  11.563  65.178  1.00  0.00    -0.313 A  
HETATM   12  C   UNL     1      -8.787  16.775  66.290  1.00  0.00    -0.334 A  
HETATM   13  C   UNL     1     -10.084  16.906  65.838  1.00  0.00    -0.283 A  
HETATM   14  C   UNL     1      -9.449  10.464  64.600  1.00  0.00    -0.336 A  
HETATM   15  C   UNL     1      -9.943   9.091  66.539  1.00  0.00    -0.355 A  
HETATM   16  N   UNL     1     -11.027  15.950  65.988  1.00  0.00    -0.207 NA 
HETATM   17  C   UNL     1      -9.383   9.233  65.272  1.00  0.00    -0.269 A  
ENDROOT
BRANCH   6  18
HETATM   18  C   UNL     1     -12.407  12.233  69.668  1.00  0.00    -0.050 C  
BRANCH  18  19
HETATM   19  C   UNL     1     -11.676  13.435  70.293  1.00  0.00    -0.159 C  
BRANCH  19  20
HETATM   20  N   UNL     1     -12.424  14.204  71.311  1.00  0.00    -0.352 NA 
HETATM   21  C   UNL     1     -13.096  15.380  70.761  1.00  0.00    -0.424 C  
HETATM   22  C   UNL     1     -13.419  13.318  71.931  1.00  0.00    -0.438 C  
ENDBRANCH  19  20
ENDBRANCH  18  19
ENDBRANCH   6  18
TORSDOF 3
ENDMDL
MODEL       15
REMARK 921   NORMALIZED FREE ENERGY PREDICTED BY IDOCK:   -5.92 KCAL/MOL
REMARK 922        TOTAL FREE ENERGY PREDICTED BY IDOCK:   -7.26 KCAL/MOL
REMARK 923 INTER-LIGAND FREE ENERGY PREDICTED BY IDOCK:   -6.97 KCAL/MOL
REMARK 924 INTRA-LIGAND FREE ENERGY PREDICTED BY IDOCK:   -0.29 KCAL/MOL
REMARK 927      BINDING AFFINITY PREDICTED BY RF-SCORE:    0.00 PKD
ROOT
HETATM    1  C   UNL     1      -7.950  12.575  67.730  1.00  0.00    -0.163 C  
HETATM    2  C   UNL     1      -9.282  12.173  68.411  1.00  0.00    -0.154 C  
HETATM    3  C   UNL     1      -9.288  10.693  68.819  1.00  0.00    -0.180 A  
HETATM    4  C   UNL     1     -10.476  12.672  67.614  1.00  0.00    -0.226 C  
HETATM    5  C   UNL     1     -10.434   9.902  68.773  1.00  0.00    -0.234 A  
HETATM    6  C   UNL     1     -11.419  13.586  67.953  1.00  0.00    -0.353 C  
HETATM    7  C   UNL     1     -10.380   8.587  69.240  1.00  0.00    -0.227 A  
HETATM    8  C   UNL     1     -12.379  13.887  66.815  1.00  0.00    -0.370 C  
HETATM    9  C   UNL     1     -10.773  12.249  66.232  1.00  0.00    -0.293 A  
HETATM   10  C   UNL     1     -11.865  12.982  65.748  1.00  0.00    -0.453 A  
HETATM   11  C   UNL     1     -10.165  11.303  65.417  1.00  0.00    -0.323 A  
HETATM   12  C   UNL     1      -9.192   8.090  69.756  1.00  0.00    -0.149 A  
HETATM   13  C   UNL     1      -8.100   8.932  69.786  1.00  0.00    -0.109 A  
HETATM   14  C   UNL     1     -10.645  11.125  64.117  1.00  0.00    -0.436 A  
HETATM   15  C   UNL     1     -12.345  12.823  64.456  1.00  0.00    -0.515 A  
HETATM   16  N   UNL     1      -8.129  10.209  69.346  1.00  0.00    -0.147 NA 
HETATM   17  C   UNL     1     -11.723  11.886  63.636  1.00  0.00    -0.572 A  
ENDROOT
BRANCH   6  18
HETATM   18  C   UNL     1     -11.631  14.330  69.247  1.00  0.00    -0.350 C  
BRANCH  18  19
HETATM   19  C   UNL     1     -12.092  13.381  70.369  1.00  0.00    -0.333 C  
BRANCH  19  20
HETATM   20  N   UNL     1     -12.672  14.016  71.571  1.00  0.00    -0.349 NA 
HETATM   21  C   UNL     1     -13.551  15.141  71.257  1.00  0.00    -0.484 C  
HETATM   22  C   UNL     1     -13.426  13.002  72.321  1.00  0.00    -0.547 C  
ENDBRANCH  19  20
ENDBRANCH  18  19
ENDBRANCH   6  18
TORSDOF 3
ENDMDL
MODEL       16
REMARK 921   NORMALIZED FREE ENERGY PREDICTED BY IDOCK:   -5.90 KCAL/MOL
REMARK 922        TOTAL FREE ENERGY PREDICTED BY IDOCK:   -7.23 KCAL/MOL
REMARK 923 INTER-LIGAND FREE ENERGY PREDICTED BY IDOCK:   -7.00 KCAL/MOL
REMARK 924 INTRA-LIGAND FREE ENERGY PREDICTED BY IDOCK:   -0.23 KCAL/MOL
REMARK 927      BINDING AFFINITY PREDICTED BY RF-SCORE:    0.00 PKD
ROOT
HETATM    1  C   UNL     1      -7.948  11.247  67.241  1.00  0.00    -0.141 C  
HETATM    2  C   UNL     1      -9.301  10.711  67.772  1.00  0.00    -0.154 C  
HETATM    3  C   UNL     1      -9.429   9.195  67.569  1.00  0.00    -0.139 A  
HETATM    4  C   UNL     1     -10.457  11.570  67.288  1.00  0.00    -0.246 C  
HETATM    5  C   UNL     1     -10.641   8.573  67.271  1.00  0.00    -0.315 A  
HETATM    6  C   UNL     1     -11.313  12.346  67.999  1.00  0.00    -0.340 C  
HETATM    7  C   UNL     1     -10.695   7.180  67.184  1.00  0.00    -0.422 A  
HETATM    8  C   UNL     1     -12.258  13.140  67.115  1.00  0.00    -0.250 C  
HETATM    9  C   UNL     1     -10.807  11.748  65.866  1.00  0.00    -0.339 A  
HETATM   10  C   UNL     1     -11.837  12.692  65.757  1.00  0.00    -0.497 A  
HETATM   11  C   UNL     1     -10.294  11.156  64.720  1.00  0.00    -0.387 A  
HETATM   12  C   UNL     1      -9.548   6.433  67.410  1.00  0.00    -0.133 A  
HETATM   13  C   UNL     1      -8.386   7.111  67.716  1.00  0.00    -0.118 A  
HETATM   14  C   UNL     1     -10.804  11.538  63.476  1.00  0.00    -0.473 A  
HETATM   15  C   UNL     1     -12.346  13.090  64.529  1.00  0.00    -0.461 A  
HETATM   16  N   UNL     1      -8.310   8.457  67.811  1.00  0.00    -0.129 NA 
HETATM   17  C   UNL     1     -11.818  12.506  63.380  1.00  0.00    -0.587 A  
ENDROOT
BRANCH   6  18
HETATM   18  C   UNL     1     -11.443  12.535  69.490  1.00  0.00    -0.299 C  
BRANCH  18  19
HETATM   19  C   UNL     1     -11.942  13.951  69.832  1.00  0.00    -0.341 C  
BRANCH  19  20
HETATM   20  N   UNL     1     -12.336  14.188  71.237  1.00  0.00    -0.360 NA 
HETATM   21  C   UNL     1     -13.193  15.361  71.401  1.00  0.00    -0.500 C  
HETATM   22  C   UNL     1     -13.038  12.998  71.736  1.00  0.00    -0.373 C  
ENDBRANCH  19  20
ENDBRANCH  18  19
ENDBRANCH   6  18
TORSDOF 3
ENDMDL
MODEL       17
REMARK 921   NORMALIZED FREE ENERGY PREDICTED BY IDOCK:   -5.90 KCAL/MOL
REMARK 922        TOTAL FREE ENERGY PREDICTED BY IDOCK:   -7.23 KCAL/MOL
REMARK 923 INTER-LIGAND FREE ENERGY PREDICTED BY IDOCK:   -6.89 KCAL/MOL
REMARK 924 INTRA-LIGAND FREE ENERGY PREDICTED BY IDOCK:   -0.34 KCAL/MOL
REMARK 927      BINDING AFFINITY PREDICTED BY RF-SCORE:    0.00 PKD
ROOT
HETATM    1  C   UNL     1      -8.193  11.951  67.061  1.00  0.00    -0.170 C  
HETATM    2  C   UNL     1      -9.276  12.684  67.892  1.00  0.00    -0.201 C  
HETATM    3  C   UNL     1     -10.113  11.703  68.725  1.00  0.00    -0.156 A  
HETATM    4  C   UNL     1     -10.036  13.685  67.038  1.00  0.00    -0.248 C  
HETATM    5  C   UNL     1     -11.472  11.891  68.971  1.00  0.00    -0.355 A  
HETATM    6  C   UNL     1     -10.084  15.037  67.130  1.00  0.00    -0.239 C  
HETATM    7  C   UNL     1     -12.147  10.999  69.808  1.00  0.00    -0.424 A  
HETATM    8  C   UNL     1     -10.874  15.674  66.001  1.00  0.00    -0.276 C  
HETATM    9  C   UNL     1     -10.844  13.312  65.862  1.00  0.00    -0.289 A  
HETATM   10  C   UNL     1     -11.308  14.474  65.231  1.00  0.00    -0.353 A  
HETATM   11  C   UNL     1     -11.176  12.068  65.341  1.00  0.00    -0.374 A  
HETATM   12  C   UNL     1     -11.456   9.949  70.394  1.00  0.00    -0.372 A  
HETATM   13  C   UNL     1     -10.109   9.831  70.120  1.00  0.00    -0.265 A  
HETATM   14  C   UNL     1     -11.948  12.008  64.178  1.00  0.00    -0.461 A  
HETATM   15  C   UNL     1     -12.066  14.429  64.070  1.00  0.00    -0.312 A  
HETATM   16  N   UNL     1      -9.433  10.683  69.318  1.00  0.00    -0.175 NA 
HETATM   17  C   UNL     1     -12.384  13.181  63.541  1.00  0.00    -0.478 A  
ENDROOT
BRANCH   6  18
HETATM   18  C   UNL     1      -9.473  15.964  68.151  1.00  0.00    -0.203 C  
BRANCH  18  19
HETATM   19  C   UNL     1     -10.454  17.083  68.548  1.00  0.00    -0.373 C  
BRANCH  19  20
HETATM   20  N   UNL     1      -9.926  18.464  68.514  1.00  0.00    -0.372 NA 
HETATM   21  C   UNL     1      -8.479  18.519  68.312  1.00  0.00    -0.318 C  
HETATM   22  C   UNL     1     -10.598  19.197  67.433  1.00  0.00    -0.481 C  
ENDBRANCH  19  20
ENDBRANCH  18  19
ENDBRANCH   6  18
TORSDOF 3
ENDMDL
MODEL       18
REMARK 921   NORMALIZED FREE ENERGY PREDICTED BY IDOCK:   -5.88 KCAL/MOL
REMARK 922        TOTAL FREE ENERGY PREDICTED BY IDOCK:   -7.20 KCAL/MOL
REMARK 923 INTER-LIGAND FREE ENERGY PREDICTED BY IDOCK:   -6.80 KCAL/MOL
REMARK 924 INTRA-LIGAND FREE ENERGY PREDICTED BY IDOCK:   -0.41 KCAL/MOL
REMARK 927      BINDING AFFINITY PREDICTED BY RF-SCORE:    0.00 PKD
ROOT
HETATM    1  C   UNL     1      -7.958  10.977  67.473  1.00  0.00    -0.116 C  
HETATM    2  C   UNL     1      -9.335  10.406  67.892  1.00  0.00    -0.147 C  
HETATM    3  C   UNL     1      -9.453   8.911  67.566  1.00  0.00    -0.141 A  
HETATM    4  C   UNL     1     -10.466  11.304  67.420  1.00  0.00    -0.247 C  
HETATM    5  C   UNL     1     -10.647   8.318  67.160  1.00  0.00    -0.340 A  
HETATM    6  C   UNL     1     -11.357  12.025  68.146  1.00  0.00    -0.349 C  
HETATM    7  C   UNL     1     -10.696   6.937  66.963  1.00  0.00    -0.432 A  
HETATM    8  C   UNL     1     -12.257  12.889  67.281  1.00  0.00    -0.119 C  
HETATM    9  C   UNL     1     -10.745  11.593  66.001  1.00  0.00    -0.328 A  
HETATM   10  C   UNL     1     -11.769  12.546  65.914  1.00  0.00    -0.480 A  
HETATM   11  C   UNL     1     -10.176  11.090  64.838  1.00  0.00    -0.373 A  
HETATM   12  C   UNL     1      -9.562   6.170  67.187  1.00  0.00    -0.139 A  
HETATM   13  C   UNL     1      -8.417   6.818  67.602  1.00  0.00    -0.122 A  
HETATM   14  C   UNL     1     -10.623  11.570  63.605  1.00  0.00    -0.491 A  
HETATM   15  C   UNL     1     -12.216  13.040  64.698  1.00  0.00    -0.477 A  
HETATM   16  N   UNL     1      -8.346   8.153  67.805  1.00  0.00    -0.127 NA 
HETATM   17  C   UNL     1     -11.631  12.545  63.534  1.00  0.00    -0.584 A  
ENDROOT
BRANCH   6  18
HETATM   18  C   UNL     1     -11.561  12.098  69.639  1.00  0.00    -0.361 C  
BRANCH  18  19
HETATM   19  C   UNL     1     -12.531  11.005  70.124  1.00  0.00    -0.269 C  
BRANCH  19  20
HETATM   20  N   UNL     1     -12.158  10.301  71.370  1.00  0.00    -0.377 NA 
HETATM   21  C   UNL     1     -13.304   9.710  72.059  1.00  0.00    -0.457 C  
HETATM   22  C   UNL     1     -11.189   9.246  71.041  1.00  0.00    -0.321 C  
ENDBRANCH  19  20
ENDBRANCH  18  19
ENDBRANCH   6  18
TORSDOF 3
ENDMDL
MODEL       19
REMARK 921   NORMALIZED FREE ENERGY PREDICTED BY IDOCK:   -5.86 KCAL/MOL
REMARK 922        TOTAL FREE ENERGY PREDICTED BY IDOCK:   -7.18 KCAL/MOL
REMARK 923 INTER-LIGAND FREE ENERGY PREDICTED BY IDOCK:   -6.81 KCAL/MOL
REMARK 924 INTRA-LIGAND FREE ENERGY PREDICTED BY IDOCK:   -0.38 KCAL/MOL
REMARK 927      BINDING AFFINITY PREDICTED BY RF-SCORE:    0.00 PKD
ROOT
HETATM    1  C   UNL     1     -12.448  14.315  69.925  1.00  0.00    -0.315 C  
HETATM    2  C   UNL     1     -11.919  13.414  68.781  1.00  0.00    -0.359 C  
HETATM    3  C   UNL     1     -11.299  12.117  69.320  1.00  0.00    -0.266 A  
HETATM    4  C   UNL     1     -11.088  14.216  67.794  1.00  0.00    -0.292 C  
HETATM    5  C   UNL     1     -10.197  11.504  68.726  1.00  0.00    -0.204 A  
HETATM    6  C   UNL     1     -11.327  14.492  66.488  1.00  0.00    -0.354 C  
HETATM    7  C   UNL     1      -9.741  10.281  69.223  1.00  0.00    -0.240 A  
HETATM    8  C   UNL     1     -10.297  15.433  65.888  1.00  0.00    -0.359 C  
HETATM    9  C   UNL     1      -9.838  14.913  68.151  1.00  0.00    -0.218 A  
HETATM   10  C   UNL     1      -9.390  15.655  67.050  1.00  0.00    -0.241 A  
HETATM   11  C   UNL     1      -9.110  14.931  69.334  1.00  0.00    -0.045 A  
HETATM   12  C   UNL     1     -10.399   9.685  70.289  1.00  0.00    -0.336 A  
HETATM   13  C   UNL     1     -11.492  10.338  70.820  1.00  0.00    -0.351 A  
HETATM   14  C   UNL     1      -7.955  15.715  69.403  1.00  0.00    -0.226 A  
HETATM   15  C   UNL     1      -8.252  16.445  67.108  1.00  0.00    -0.209 A  
HETATM   16  N   UNL     1     -11.955  11.519  70.353  1.00  0.00    -0.367 NA 
HETATM   17  C   UNL     1      -7.533  16.475  68.300  1.00  0.00    -0.171 A  
ENDROOT
BRANCH   6  18
HETATM   18  C   UNL     1     -12.441  14.025  65.584  1.00  0.00    -0.531 C  
BRANCH  18  19
HETATM   19  C   UNL     1     -12.056  14.171  64.101  1.00  0.00    -0.406 C  
BRANCH  19  20
HETATM   20  N   UNL     1     -11.787  12.918  63.364  1.00  0.00    -0.539 NA 
HETATM   21  C   UNL     1     -10.436  12.403  63.583  1.00  0.00    -0.426 C  
HETATM   22  C   UNL     1     -12.767  11.907  63.783  1.00  0.00    -0.350 C  
ENDBRANCH  19  20
ENDBRANCH  18  19
ENDBRANCH   6  18
TORSDOF 3
ENDMDL
MODEL       20
REMARK 921   NORMALIZED FREE ENERGY PREDICTED BY IDOCK:   -5.82 KCAL/MOL
REMARK 922        TOTAL FREE ENERGY PREDICTED BY IDOCK:   -7.14 KCAL/MOL
REMARK 923 INTER-LIGAND FREE ENERGY PREDICTED BY IDOCK:   -6.83 KCAL/MOL
REMARK 924 INTRA-LIGAND FREE ENERGY PREDICTED BY IDOCK:   -0.30 KCAL/MOL
REMARK 927      BINDING AFFINITY PREDICTED BY RF-SCORE:    0.00 PKD
ROOT
HETATM    1  C   UNL     1     -10.277  14.915  69.148  1.00  0.00    -0.243 C  
HETATM    2  C   UNL     1      -9.414  14.909  67.861  1.00  0.00    -0.200 C  
HETATM    3  C   UNL     1      -7.916  14.823  68.183  1.00  0.00    -0.129 A  
HETATM    4  C   UNL     1      -9.851  16.007  66.906  1.00  0.00    -0.252 C  
HETATM    5  C   UNL     1      -6.942  15.470  67.423  1.00  0.00    -0.232 A  
HETATM    6  C   UNL     1     -10.399  15.908  65.669  1.00  0.00    -0.413 C  
HETATM    7  C   UNL     1      -5.593  15.276  67.727  1.00  0.00    -0.114 A  
HETATM    8  C   UNL     1     -10.801  17.255  65.095  1.00  0.00     0.051 C  
HETATM    9  C   UNL     1      -9.795  17.445  67.229  1.00  0.00    -0.278 A  
HETATM   10  C   UNL     1     -10.382  18.177  66.188  1.00  0.00    -0.394 A  
HETATM   11  C   UNL     1      -9.284  18.112  68.334  1.00  0.00    -0.316 A  
HETATM   12  C   UNL     1      -5.238  14.432  68.770  1.00  0.00    -0.089 A  
HETATM   13  C   UNL     1      -6.252  13.812  69.471  1.00  0.00    -0.116 A  
HETATM   14  C   UNL     1      -9.392  19.504  68.392  1.00  0.00    -0.431 A  
HETATM   15  C   UNL     1     -10.506  19.558  66.237  1.00  0.00    -0.609 A  
HETATM   16  N   UNL     1      -7.563  13.979  69.192  1.00  0.00    -0.033 NA 
HETATM   17  C   UNL     1     -10.006  20.223  67.354  1.00  0.00    -0.567 A  
ENDROOT
BRANCH   6  18
HETATM   18  C   UNL     1     -10.668  14.690  64.821  1.00  0.00    -0.399 C  
BRANCH  18  19
HETATM   19  C   UNL     1     -12.180  14.472  64.621  1.00  0.00    -0.460 C  
BRANCH  19  20
HETATM   20  N   UNL     1     -12.668  13.083  64.758  1.00  0.00    -0.707 NA 
HETATM   21  C   UNL     1     -12.533  12.304  63.528  1.00  0.00    -0.534 C  
HETATM   22  C   UNL     1     -11.918  12.426  65.837  1.00  0.00    -0.367 C  
ENDBRANCH  19  20
ENDBRANCH  18  19
ENDBRANCH   6  18
TORSDOF 3
ENDMDL
MODEL       21
REMARK 921   NORMALIZED FREE ENERGY PREDICTED BY IDOCK:   -5.81 KCAL/MOL
REMARK 922        TOTAL FREE ENERGY PREDICTED BY IDOCK:   -7.13 KCAL/MOL
REMARK 923 INTER-LIGAND FREE ENERGY PREDICTED BY IDOCK:   -6.71 KCAL/MOL
REMARK 924 INTRA-LIGAND FREE ENERGY PREDICTED BY IDOCK:   -0.42 KCAL/MOL
REMARK 927      BINDING AFFINITY PREDICTED BY RF-SCORE:    0.00 PKD
ROOT
HETATM    1  C   UNL     1      -7.982  16.090  68.976  1.00  0.00    -0.224 C  
HETATM    2  C   UNL     1      -9.121  16.305  67.948  1.00  0.00    -0.196 C  
HETATM    3  C   UNL     1      -9.411  17.796  67.725  1.00  0.00    -0.257 A  
HETATM    4  C   UNL     1     -10.311  15.412  68.257  1.00  0.00    -0.238 C  
HETATM    5  C   UNL     1     -10.692  18.288  67.482  1.00  0.00    -0.381 A  
HETATM    6  C   UNL     1     -10.834  14.390  67.534  1.00  0.00    -0.285 C  
HETATM    7  C   UNL     1     -10.865  19.645  67.205  1.00  0.00    -0.526 A  
HETATM    8  C   UNL     1     -11.959  13.674  68.259  1.00  0.00    -0.385 C  
HETATM    9  C   UNL     1     -11.093  15.490  69.505  1.00  0.00    -0.286 A  
HETATM   10  C   UNL     1     -12.036  14.454  69.527  1.00  0.00    -0.376 A  
HETATM   11  C   UNL     1     -11.023  16.377  70.571  1.00  0.00    -0.164 A  
HETATM   12  C   UNL     1      -9.760  20.483  67.158  1.00  0.00    -0.581 A  
HETATM   13  C   UNL     1      -8.520  19.928  67.392  1.00  0.00    -0.327 A  
HETATM   14  C   UNL     1     -11.883  16.197  71.657  1.00  0.00    -0.557 A  
HETATM   15  C   UNL     1     -12.889  14.256  70.603  1.00  0.00    -0.378 A  
HETATM   16  N   UNL     1      -8.326  18.617  67.657  1.00  0.00    -0.264 NA 
HETATM   17  C   UNL     1     -12.805  15.138  71.677  1.00  0.00    -0.439 A  
ENDROOT
BRANCH   6  18
HETATM   18  C   UNL     1     -10.458  13.874  66.167  1.00  0.00    -0.297 C  
BRANCH  18  19
HETATM   19  C   UNL     1      -9.448  12.716  66.266  1.00  0.00    -0.207 C  
BRANCH  19  20
HETATM   20  N   UNL     1      -8.635  12.654  67.500  1.00  0.00    -0.174 NA 
HETATM   21  C   UNL     1      -8.816  11.408  68.243  1.00  0.00    -0.167 C  
HETATM   22  C   UNL     1      -7.219  12.806  67.139  1.00  0.00    -0.004 C  
ENDBRANCH  19  20
ENDBRANCH  18  19
ENDBRANCH   6  18
TORSDOF 3
ENDMDL
MODEL       22
REMARK 921   NORMALIZED FREE ENERGY PREDICTED BY IDOCK:   -5.80 KCAL/MOL
REMARK 922        TOTAL FREE ENERGY PREDICTED BY IDOCK:   -7.12 KCAL/MOL
REMARK 923 INTER-LIGAND FREE ENERGY PREDICTED BY IDOCK:   -6.77 KCAL/MOL
REMARK 924 INTRA-LIGAND FREE ENERGY PREDICTED BY IDOCK:   -0.35 KCAL/MOL
REMARK 927      BINDING AFFINITY PREDICTED BY RF-SCORE:    0.00 PKD
ROOT
HETATM    1  C   UNL     1      -8.894  15.192  69.632  1.00  0.00    -0.054 C  
HETATM    2  C   UNL     1     -10.207  15.959  69.338  1.00  0.00    -0.262 C  
HETATM    3  C   UNL     1     -11.314  15.592  70.336  1.00  0.00    -0.342 A  
HETATM    4  C   UNL     1     -10.561  15.892  67.862  1.00  0.00    -0.300 C  
HETATM    5  C   UNL     1     -12.659  15.517  69.977  1.00  0.00    -0.232 A  
HETATM    6  C   UNL     1     -10.625  16.889  66.944  1.00  0.00    -0.214 C  
HETATM    7  C   UNL     1     -13.619  15.259  70.958  1.00  0.00    -0.486 A  
HETATM    8  C   UNL     1     -10.902  16.378  65.541  1.00  0.00    -0.224 C  
HETATM    9  C   UNL     1     -10.848  14.637  67.144  1.00  0.00    -0.303 A  
HETATM   10  C   UNL     1     -11.014  14.910  65.780  1.00  0.00    -0.345 A  
HETATM   11  C   UNL     1     -10.964  13.331  67.601  1.00  0.00    -0.281 A  
HETATM   12  C   UNL     1     -13.224  15.096  72.278  1.00  0.00    -0.474 A  
HETATM   13  C   UNL     1     -11.879  15.198  72.566  1.00  0.00    -0.384 A  
HETATM   14  C   UNL     1     -11.219  12.313  66.679  1.00  0.00    -0.367 A  
HETATM   15  C   UNL     1     -11.258  13.909  64.851  1.00  0.00    -0.356 A  
HETATM   16  N   UNL     1     -10.933  15.452  71.636  1.00  0.00    -0.208 NA 
HETATM   17  C   UNL     1     -11.357  12.598  65.311  1.00  0.00    -0.350 A  
ENDROOT
BRANCH   6  18
HETATM   18  C   UNL     1     -10.451  18.378  67.112  1.00  0.00    -0.434 C  
BRANCH  18  19
HETATM   19  C   UNL     1      -9.137  18.863  66.472  1.00  0.00    -0.327 C  
BRANCH  19  20
HETATM   20  N   UNL     1      -8.174  19.531  67.373  1.00  0.00    -0.279 NA 
HETATM   21  C   UNL     1      -8.481  19.333  68.789  1.00  0.00    -0.347 C  
HETATM   22  C   UNL     1      -6.828  19.015  67.089  1.00  0.00    -0.198 C  
ENDBRANCH  19  20
ENDBRANCH  18  19
ENDBRANCH   6  18
TORSDOF 3
ENDMDL
MODEL       23
REMARK 921   NORMALIZED FREE ENERGY PREDICTED BY IDOCK:   -5.72 KCAL/MOL
REMARK 922        TOTAL FREE ENERGY PREDICTED BY IDOCK:   -7.03 KCAL/MOL
REMARK 923 INTER-LIGAND FREE ENERGY PREDICTED BY IDOCK:   -6.80 KCAL/MOL
REMARK 924 INTRA-LIGAND FREE ENERGY PREDICTED BY IDOCK:   -0.23 KCAL/MOL
REMARK 927      BINDING AFFINITY PREDICTED BY RF-SCORE:    0.00 PKD
ROOT
HETATM    1  C   UNL     1      -8.183  10.054  70.014  1.00  0.00    -0.139 C  
HETATM    2  C   UNL     1      -9.695   9.722  70.064  1.00  0.00    -0.292 C  
HETATM    3  C   UNL     1      -9.943   8.207  70.099  1.00  0.00    -0.187 A  
HETATM    4  C   UNL     1     -10.465  10.521  69.026  1.00  0.00    -0.238 C  
HETATM    5  C   UNL     1     -11.032   7.606  69.469  1.00  0.00    -0.108 A  
HETATM    6  C   UNL     1     -11.410  11.479  69.200  1.00  0.00    -0.351 C  
HETATM    7  C   UNL     1     -11.237   6.233  69.617  1.00  0.00    -0.506 A  
HETATM    8  C   UNL     1     -11.847  12.117  67.894  1.00  0.00    -0.338 C  
HETATM    9  C   UNL     1     -10.240  10.409  67.573  1.00  0.00    -0.251 A  
HETATM   10  C   UNL     1     -11.020  11.364  66.907  1.00  0.00    -0.355 A  
HETATM   11  C   UNL     1      -9.426   9.556  66.839  1.00  0.00    -0.204 A  
HETATM   12  C   UNL     1     -10.366   5.488  70.398  1.00  0.00    -0.346 A  
HETATM   13  C   UNL     1      -9.319   6.149  71.005  1.00  0.00    -0.164 A  
HETATM   14  C   UNL     1      -9.386   9.691  65.449  1.00  0.00    -0.320 A  
HETATM   15  C   UNL     1     -10.983  11.517  65.529  1.00  0.00    -0.290 A  
HETATM   16  N   UNL     1      -9.102   7.477  70.883  1.00  0.00    -0.152 NA 
HETATM   17  C   UNL     1     -10.154  10.670  64.798  1.00  0.00    -0.412 A  
ENDROOT
BRANCH   6  18
HETATM   18  C   UNL     1     -12.052  11.992  70.465  1.00  0.00    -0.402 C  
BRANCH  18  19
HETATM   19  C   UNL     1     -12.138  13.529  70.465  1.00  0.00    -0.335 C  
BRANCH  19  20
HETATM   20  N   UNL     1     -13.333  14.121  71.104  1.00  0.00    -0.304 NA 
HETATM   21  C   UNL     1     -13.702  13.458  72.354  1.00  0.00    -0.597 C  
HETATM   22  C   UNL     1     -13.070  15.543  71.365  1.00  0.00    -0.507 C  
ENDBRANCH  19  20
ENDBRANCH  18  19
ENDBRANCH   6  18
TORSDOF 3
ENDMDL
MODEL       24
REMARK 921   NORMALIZED FREE ENERGY PREDICTED BY IDOCK:   -5.71 KCAL/MOL
REMARK 922        TOTAL FREE ENERGY PREDICTED BY IDOCK:   -7.01 KCAL/MOL
REMARK 923 INTER-LIGAND FREE ENERGY PREDICTED BY IDOCK:   -6.67 KCAL/MOL
REMARK 924 INTRA-LIGAND FREE ENERGY PREDICTED BY IDOCK:   -0.34 KCAL/MOL
REMARK 927      BINDING AFFINITY PREDICTED BY RF-SCORE:    0.00 PKD
ROOT
HETATM    1  C   UNL     1     -11.095  11.305  68.883  1.00  0.00    -0.295 C  
HETATM    2  C   UNL     1     -10.747  12.752  69.309  1.00  0.00     0.040 C  
HETATM    3  C   UNL     1     -11.866  13.380  70.153  1.00  0.00    -0.272 A  
HETATM    4  C   UNL     1     -10.238  13.563  68.129  1.00  0.00    -0.249 C  
HETATM    5  C   UNL     1     -12.196  14.733  70.083  1.00  0.00    -0.391 A  
HETATM    6  C   UNL     1      -9.012  14.103  67.918  1.00  0.00    -0.185 C  
HETATM    7  C   UNL     1     -13.168  15.248  70.942  1.00  0.00    -0.506 A  
HETATM    8  C   UNL     1      -8.881  14.741  66.546  1.00  0.00    -0.223 C  
HETATM    9  C   UNL     1     -11.041  13.850  66.925  1.00  0.00    -0.309 A  
HETATM   10  C   UNL     1     -10.241  14.509  65.982  1.00  0.00    -0.329 A  
HETATM   11  C   UNL     1     -12.370  13.577  66.628  1.00  0.00    -0.351 A  
HETATM   12  C   UNL     1     -13.783  14.412  71.863  1.00  0.00    -0.518 A  
HETATM   13  C   UNL     1     -13.398  13.088  71.890  1.00  0.00    -0.446 A  
HETATM   14  C   UNL     1     -12.871  13.945  65.377  1.00  0.00    -0.466 A  
HETATM   15  C   UNL     1     -10.722  14.871  64.732  1.00  0.00    -0.365 A  
HETATM   16  N   UNL     1     -12.456  12.567  71.072  1.00  0.00    -0.334 NA 
HETATM   17  C   UNL     1     -12.050  14.581  64.431  1.00  0.00    -0.492 A  
ENDROOT
BRANCH   6  18
HETATM   18  C   UNL     1      -7.801  14.145  68.815  1.00  0.00    -0.114 C  
BRANCH  18  19
HETATM   19  C   UNL     1      -7.695  15.495  69.548  1.00  0.00    -0.197 C  
BRANCH  19  20
HETATM   20  N   UNL     1      -6.724  16.467  69.001  1.00  0.00    -0.187 NA 
HETATM   21  C   UNL     1      -7.325  17.761  68.684  1.00  0.00    -0.269 C  
HETATM   22  C   UNL     1      -5.646  16.657  69.981  1.00  0.00    -0.211 C  
ENDBRANCH  19  20
ENDBRANCH  18  19
ENDBRANCH   6  18
TORSDOF 3
ENDMDL
MODEL       25
REMARK 921   NORMALIZED FREE ENERGY PREDICTED BY IDOCK:   -5.70 KCAL/MOL
REMARK 922        TOTAL FREE ENERGY PREDICTED BY IDOCK:   -7.00 KCAL/MOL
REMARK 923 INTER-LIGAND FREE ENERGY PREDICTED BY IDOCK:   -6.62 KCAL/MOL
REMARK 924 INTRA-LIGAND FREE ENERGY PREDICTED BY IDOCK:   -0.39 KCAL/MOL
REMARK 927      BINDING AFFINITY PREDICTED BY RF-SCORE:    0.00 PKD
ROOT
HETATM    1  C   UNL     1     -11.882  14.413  67.906  1.00  0.00    -0.384 C  
HETATM    2  C   UNL     1     -11.224  14.821  66.564  1.00  0.00    -0.342 C  
HETATM    3  C   UNL     1     -11.481  13.778  65.467  1.00  0.00    -0.311 A  
HETATM    4  C   UNL     1      -9.784  15.260  66.773  1.00  0.00    -0.249 C  
HETATM    5  C   UNL     1     -10.543  13.472  64.482  1.00  0.00    -0.439 A  
HETATM    6  C   UNL     1      -9.218  16.478  66.585  1.00  0.00    -0.275 C  
HETATM    7  C   UNL     1     -10.881  12.575  63.467  1.00  0.00    -0.443 A  
HETATM    8  C   UNL     1      -7.766  16.524  67.026  1.00  0.00    -0.244 C  
HETATM    9  C   UNL     1      -8.727  14.379  67.303  1.00  0.00    -0.228 A  
HETATM   10  C   UNL     1      -7.553  15.122  67.486  1.00  0.00    -0.216 A  
HETATM   11  C   UNL     1      -8.740  13.027  67.620  1.00  0.00    -0.189 A  
HETATM   12  C   UNL     1     -12.148  12.011  63.443  1.00  0.00    -0.597 A  
HETATM   13  C   UNL     1     -13.033  12.369  64.439  1.00  0.00    -0.121 A  
HETATM   14  C   UNL     1      -7.582  12.445  68.142  1.00  0.00    -0.129 A  
HETATM   15  C   UNL     1      -6.400  14.560  68.013  1.00  0.00    -0.162 A  
HETATM   16  N   UNL     1     -12.731  13.239  65.428  1.00  0.00    -0.570 NA 
HETATM   17  C   UNL     1      -6.421  13.208  68.345  1.00  0.00    -0.086 A  
ENDROOT
BRANCH   6  18
HETATM   18  C   UNL     1      -9.811  17.752  66.037  1.00  0.00    -0.181 C  
BRANCH  18  19
HETATM   19  C   UNL     1     -10.696  18.453  67.084  1.00  0.00    -0.330 C  
BRANCH  19  20
HETATM   20  N   UNL     1     -10.153  19.692  67.681  1.00  0.00    -0.389 NA 
HETATM   21  C   UNL     1      -9.711  19.516  69.063  1.00  0.00    -0.387 C  
HETATM   22  C   UNL     1      -9.023  20.152  66.862  1.00  0.00    -0.344 C  
ENDBRANCH  19  20
ENDBRANCH  18  19
ENDBRANCH   6  18
TORSDOF 3
ENDMDL
MODEL       26
REMARK 921   NORMALIZED FREE ENERGY PREDICTED BY IDOCK:   -5.66 KCAL/MOL
REMARK 922        TOTAL FREE ENERGY PREDICTED BY IDOCK:   -6.95 KCAL/MOL
REMARK 923 INTER-LIGAND FREE ENERGY PREDICTED BY IDOCK:   -6.52 KCAL/MOL
REMARK 924 INTRA-LIGAND FREE ENERGY PREDICTED BY IDOCK:   -0.43 KCAL/MOL
REMARK 927      BINDING AFFINITY PREDICTED BY RF-SCORE:    0.00 PKD
ROOT
HETATM    1  C   UNL     1      -8.036  12.749  67.652  1.00  0.00    -0.175 C  
HETATM    2  C   UNL     1      -9.381  12.270  68.254  1.00  0.00    -0.199 C  
HETATM    3  C   UNL     1      -9.327  10.790  68.659  1.00  0.00    -0.184 A  
HETATM    4  C   UNL     1     -10.552  12.705  67.389  1.00  0.00    -0.240 C  
HETATM    5  C   UNL     1     -10.422   9.936  68.545  1.00  0.00    -0.232 A  
HETATM    6  C   UNL     1     -11.563  13.563  67.674  1.00  0.00    -0.374 C  
HETATM    7  C   UNL     1     -10.321   8.624  69.013  1.00  0.00    -0.226 A  
HETATM    8  C   UNL     1     -12.471  13.815  66.483  1.00  0.00    -0.356 C  
HETATM    9  C   UNL     1     -10.744  12.273  65.993  1.00  0.00    -0.296 A  
HETATM   10  C   UNL     1     -11.845  12.946  65.446  1.00  0.00    -0.444 A  
HETATM   11  C   UNL     1     -10.038  11.366  65.213  1.00  0.00    -0.315 A  
HETATM   12  C   UNL     1      -9.140   8.192  69.596  1.00  0.00    -0.151 A  
HETATM   13  C   UNL     1      -8.100   9.093  69.691  1.00  0.00    -0.106 A  
HETATM   14  C   UNL     1     -10.431  11.167  63.887  1.00  0.00    -0.445 A  
HETATM   15  C   UNL     1     -12.240  12.767  64.129  1.00  0.00    -0.506 A  
HETATM   16  N   UNL     1      -8.175  10.369  69.251  1.00  0.00    -0.156 NA 
HETATM   17  C   UNL     1     -11.520  11.869  63.345  1.00  0.00    -0.470 A  
ENDROOT
BRANCH   6  18
HETATM   18  C   UNL     1     -11.891  14.288  68.955  1.00  0.00    -0.370 C  
BRANCH  18  19
HETATM   19  C   UNL     1     -11.751  15.812  68.786  1.00  0.00    -0.378 C  
BRANCH  19  20
HETATM   20  N   UNL     1     -10.504  16.292  68.152  1.00  0.00    -0.277 NA 
HETATM   21  C   UNL     1     -10.574  17.693  67.740  1.00  0.00    -0.378 C  
HETATM   22  C   UNL     1      -9.396  16.116  69.100  1.00  0.00    -0.238 C  
ENDBRANCH  19  20
ENDBRANCH  18  19
ENDBRANCH   6  18
TORSDOF 3
ENDMDL
MODEL       27
REMARK 921   NORMALIZED FREE ENERGY PREDICTED BY IDOCK:   -5.65 KCAL/MOL
REMARK 922        TOTAL FREE ENERGY PREDICTED BY IDOCK:   -6.93 KCAL/MOL
REMARK 923 INTER-LIGAND FREE ENERGY PREDICTED BY IDOCK:   -6.60 KCAL/MOL
REMARK 924 INTRA-LIGAND FREE ENERGY PREDICTED BY IDOCK:   -0.33 KCAL/MOL
REMARK 927      BINDING AFFINITY PREDICTED BY RF-SCORE:    0.00 PKD
ROOT
HETATM    1  C   UNL     1     -11.905  14.629  68.656  1.00  0.00    -0.346 C  
HETATM    2  C   UNL     1     -10.492  14.134  68.259  1.00  0.00    -0.249 C  
HETATM    3  C   UNL     1      -9.560  15.302  67.905  1.00  0.00    -0.199 A  
HETATM    4  C   UNL     1     -10.573  12.992  67.260  1.00  0.00    -0.247 C  
HETATM    5  C   UNL     1      -8.586  15.216  66.912  1.00  0.00    -0.289 A  
HETATM    6  C   UNL     1     -10.196  11.697  67.398  1.00  0.00    -0.226 C  
HETATM    7  C   UNL     1      -7.720  16.292  66.705  1.00  0.00    -0.286 A  
HETATM    8  C   UNL     1     -10.561  10.848  66.192  1.00  0.00    -0.270 C  
HETATM    9  C   UNL     1     -11.172  13.118  65.918  1.00  0.00    -0.311 A  
HETATM   10  C   UNL     1     -11.199  11.859  65.303  1.00  0.00    -0.351 A  
HETATM   11  C   UNL     1     -11.672  14.223  65.242  1.00  0.00    -0.357 A  
HETATM   12  C   UNL     1      -7.830  17.425  67.498  1.00  0.00    -0.209 A  
HETATM   13  C   UNL     1      -8.806  17.437  68.473  1.00  0.00    -0.277 A  
HETATM   14  C   UNL     1     -12.216  14.046  63.968  1.00  0.00    -0.395 A  
HETATM   15  C   UNL     1     -11.746  11.666  64.043  1.00  0.00    -0.339 A  
HETATM   16  N   UNL     1      -9.652  16.408  68.696  1.00  0.00    -0.231 NA 
HETATM   17  C   UNL     1     -12.261  12.774  63.374  1.00  0.00    -0.594 A  
ENDROOT
BRANCH   6  18
HETATM   18  C   UNL     1      -9.505  11.002  68.544  1.00  0.00    -0.188 C  
BRANCH  18  19
HETATM   19  C   UNL     1     -10.449  10.011  69.249  1.00  0.00    -0.225 C  
BRANCH  19  20
HETATM   20  N   UNL     1     -10.986  10.433  70.561  1.00  0.00    -0.268 NA 
HETATM   21  C   UNL     1     -12.370  10.898  70.491  1.00  0.00    -0.374 C  
HETATM   22  C   UNL     1     -10.899   9.299  71.491  1.00  0.00    -0.372 C  
ENDBRANCH  19  20
ENDBRANCH  18  19
ENDBRANCH   6  18
TORSDOF 3
ENDMDL
MODEL       28
REMARK 921   NORMALIZED FREE ENERGY PREDICTED BY IDOCK:   -5.64 KCAL/MOL
REMARK 922        TOTAL FREE ENERGY PREDICTED BY IDOCK:   -6.92 KCAL/MOL
REMARK 923 INTER-LIGAND FREE ENERGY PREDICTED BY IDOCK:   -6.42 KCAL/MOL
REMARK 924 INTRA-LIGAND FREE ENERGY PREDICTED BY IDOCK:   -0.50 KCAL/MOL
REMARK 927      BINDING AFFINITY PREDICTED BY RF-SCORE:    0.00 PKD
ROOT
HETATM    1  C   UNL     1     -11.874  14.641  67.469  1.00  0.00    -0.375 C  
HETATM    2  C   UNL     1     -10.936  14.803  68.690  1.00  0.00    -0.262 C  
HETATM    3  C   UNL     1     -11.714  15.189  69.956  1.00  0.00    -0.307 A  
HETATM    4  C   UNL     1      -9.726  15.654  68.341  1.00  0.00    -0.202 C  
HETATM    5  C   UNL     1     -11.196  16.041  70.931  1.00  0.00    -0.365 A  
HETATM    6  C   UNL     1      -8.414  15.310  68.296  1.00  0.00    -0.154 C  
HETATM    7  C   UNL     1     -11.929  16.278  72.095  1.00  0.00    -0.575 A  
HETATM    8  C   UNL     1      -7.531  16.434  67.782  1.00  0.00    -0.158 C  
HETATM    9  C   UNL     1      -9.810  17.062  67.911  1.00  0.00    -0.269 A  
HETATM   10  C   UNL     1      -8.533  17.513  67.550  1.00  0.00    -0.216 A  
HETATM   11  C   UNL     1     -10.894  17.925  67.823  1.00  0.00    -0.237 A  
HETATM   12  C   UNL     1     -13.154  15.652  72.275  1.00  0.00    -0.538 A  
HETATM   13  C   UNL     1     -13.600  14.809  71.279  1.00  0.00    -0.412 A  
HETATM   14  C   UNL     1     -10.686  19.223  67.348  1.00  0.00    -0.594 A  
HETATM   15  C   UNL     1      -8.314  18.795  67.067  1.00  0.00    -0.280 A  
HETATM   16  N   UNL     1     -12.907  14.559  70.146  1.00  0.00    -0.220 NA 
HETATM   17  C   UNL     1      -9.405  19.653  66.964  1.00  0.00    -0.439 A  
ENDROOT
BRANCH   6  18
HETATM   18  C   UNL     1      -7.736  14.012  68.655  1.00  0.00    -0.135 C  
BRANCH  18  19
HETATM   19  C   UNL     1      -7.546  13.119  67.415  1.00  0.00    -0.131 C  
BRANCH  19  20
HETATM   20  N   UNL     1      -8.433  11.941  67.310  1.00  0.00    -0.164 NA 
HETATM   21  C   UNL     1      -9.065  11.585  68.580  1.00  0.00    -0.157 C  
HETATM   22  C   UNL     1      -9.472  12.223  66.311  1.00  0.00    -0.231 C  
ENDBRANCH  19  20
ENDBRANCH  18  19
ENDBRANCH   6  18
TORSDOF 3
ENDMDL
MODEL       29
REMARK 921   NORMALIZED FREE ENERGY PREDICTED BY IDOCK:   -5.63 KCAL/MOL
REMARK 922        TOTAL FREE ENERGY PREDICTED BY IDOCK:   -6.91 KCAL/MOL
REMARK 923 INTER-LIGAND FREE ENERGY PREDICTED BY IDOCK:   -6.62 KCAL/MOL
REMARK 924 INTRA-LIGAND FREE ENERGY PREDICTED BY IDOCK:   -0.30 KCAL/MOL
REMARK 927      BINDING AFFINITY PREDICTED BY RF-SCORE:    0.00 PKD
ROOT
HETATM    1  C   UNL     1     -12.715  13.645  65.583  1.00  0.00    -0.505 C  
HETATM    2  C   UNL     1     -11.521  13.441  66.549  1.00  0.00    -0.372 C  
HETATM    3  C   UNL     1     -10.551  14.630  66.510  1.00  0.00    -0.300 A  
HETATM    4  C   UNL     1     -10.918  12.055  66.387  1.00  0.00    -0.337 C  
HETATM    5  C   UNL     1      -9.172  14.484  66.653  1.00  0.00    -0.290 A  
HETATM    6  C   UNL     1     -10.871  11.027  67.270  1.00  0.00    -0.335 C  
HETATM    7  C   UNL     1      -8.361  15.620  66.692  1.00  0.00    -0.310 A  
HETATM    8  C   UNL     1     -10.279   9.764  66.668  1.00  0.00    -0.296 C  
HETATM    9  C   UNL     1     -10.306  11.569  65.137  1.00  0.00    -0.329 A  
HETATM   10  C   UNL     1      -9.961  10.218  65.285  1.00  0.00    -0.387 A  
HETATM   11  C   UNL     1     -10.048  12.215  63.935  1.00  0.00    -0.387 A  
HETATM   12  C   UNL     1      -8.938  16.878  66.604  1.00  0.00    -0.279 A  
HETATM   13  C   UNL     1     -10.310  16.952  66.480  1.00  0.00    -0.299 A  
HETATM   14  C   UNL     1      -9.473  11.491  62.889  1.00  0.00    -0.309 A  
HETATM   15  C   UNL     1      -9.399   9.484  64.251  1.00  0.00    -0.077 A  
HETATM   16  N   UNL     1     -11.116  15.868  66.445  1.00  0.00    -0.106 NA 
HETATM   17  C   UNL     1      -9.157  10.131  63.042  1.00  0.00    -0.296 A  
ENDROOT
BRANCH   6  18
HETATM   18  C   UNL     1     -11.320  10.958  68.708  1.00  0.00    -0.357 C  
BRANCH  18  19
HETATM   19  C   UNL     1     -10.906   9.626  69.360  1.00  0.00    -0.217 C  
BRANCH  19  20
HETATM   20  N   UNL     1     -10.127   9.722  70.613  1.00  0.00    -0.246 NA 
HETATM   21  C   UNL     1     -10.764   9.039  71.738  1.00  0.00    -0.367 C  
HETATM   22  C   UNL     1      -8.795   9.145  70.384  1.00  0.00    -0.220 C  
ENDBRANCH  19  20
ENDBRANCH  18  19
ENDBRANCH   6  18
TORSDOF 3
ENDMDL
MODEL       30
REMARK 921   NORMALIZED FREE ENERGY PREDICTED BY IDOCK:   -5.59 KCAL/MOL
REMARK 922        TOTAL FREE ENERGY PREDICTED BY IDOCK:   -6.87 KCAL/MOL
REMARK 923 INTER-LIGAND FREE ENERGY PREDICTED BY IDOCK:   -6.54 KCAL/MOL
REMARK 924 INTRA-LIGAND FREE ENERGY PREDICTED BY IDOCK:   -0.32 KCAL/MOL
REMARK 927      BINDING AFFINITY PREDICTED BY RF-SCORE:    0.00 PKD
ROOT
HETATM    1  C   UNL     1      -8.860  13.339  68.328  1.00  0.00    -0.168 C  
HETATM    2  C   UNL     1      -9.831  12.355  67.630  1.00  0.00    -0.198 C  
HETATM    3  C   UNL     1     -10.687  13.060  66.568  1.00  0.00    -0.278 A  
HETATM    4  C   UNL     1     -10.564  11.497  68.647  1.00  0.00    -0.236 C  
HETATM    5  C   UNL     1     -12.010  12.706  66.309  1.00  0.00    -0.439 A  
HETATM    6  C   UNL     1     -10.504  10.157  68.848  1.00  0.00    -0.230 C  
HETATM    7  C   UNL     1     -12.699  13.337  65.271  1.00  0.00    -0.474 A  
HETATM    8  C   UNL     1     -11.311   9.708  70.054  1.00  0.00    -0.239 C  
HETATM    9  C   UNL     1     -11.468  12.039  69.677  1.00  0.00    -0.322 A  
HETATM   10  C   UNL     1     -11.881  11.003  70.525  1.00  0.00    -0.464 A  
HETATM   11  C   UNL     1     -11.925  13.332  69.901  1.00  0.00    -0.400 A  
HETATM   12  C   UNL     1     -12.055  14.294  64.502  1.00  0.00    -0.499 A  
HETATM   13  C   UNL     1     -10.740  14.585  64.802  1.00  0.00    -0.393 A  
HETATM   14  C   UNL     1     -12.769  13.571  70.989  1.00  0.00    -0.399 A  
HETATM   15  C   UNL     1     -12.710  11.226  71.614  1.00  0.00    -0.448 A  
HETATM   16  N   UNL     1     -10.051  13.986  65.797  1.00  0.00    -0.321 NA 
HETATM   17  C   UNL     1     -13.153  12.526  71.846  1.00  0.00    -0.473 A  
ENDROOT
BRANCH   6  18
HETATM   18  C   UNL     1      -9.763   9.090  68.081  1.00  0.00    -0.172 C  
BRANCH  18  19
HETATM   19  C   UNL     1      -8.627   8.482  68.925  1.00  0.00    -0.127 C  
BRANCH  19  20
HETATM   20  N   UNL     1      -7.327   8.299  68.244  1.00  0.00    -0.093 NA 
HETATM   21  C   UNL     1      -7.415   7.442  67.063  1.00  0.00    -0.098 C  
HETATM   22  C   UNL     1      -6.811   9.618  67.854  1.00  0.00    -0.074 C  
ENDBRANCH  19  20
ENDBRANCH  18  19
ENDBRANCH   6  18
TORSDOF 3
ENDMDL
MODEL       31
REMARK 921   NORMALIZED FREE ENERGY PREDICTED BY IDOCK:   -5.56 KCAL/MOL
REMARK 922        TOTAL FREE ENERGY PREDICTED BY IDOCK:   -6.83 KCAL/MOL
REMARK 923 INTER-LIGAND FREE ENERGY PREDICTED BY IDOCK:   -6.39 KCAL/MOL
REMARK 924 INTRA-LIGAND FREE ENERGY PREDICTED BY IDOCK:   -0.44 KCAL/MOL
REMARK 927      BINDING AFFINITY PREDICTED BY RF-SCORE:    0.00 PKD
ROOT
HETATM    1  C   UNL     1     -11.912  12.122  69.070  1.00  0.00    -0.302 C  
HETATM    2  C   UNL     1     -10.585  12.728  68.550  1.00  0.00    -0.270 C  
HETATM    3  C   UNL     1     -10.581  14.260  68.657  1.00  0.00    -0.250 A  
HETATM    4  C   UNL     1     -10.201  12.132  67.207  1.00  0.00    -0.216 C  
HETATM    5  C   UNL     1      -9.957  15.080  67.719  1.00  0.00    -0.229 A  
HETATM    6  C   UNL     1      -9.133  11.361  66.879  1.00  0.00    -0.178 C  
HETATM    7  C   UNL     1      -9.923  16.461  67.928  1.00  0.00    -0.243 A  
HETATM    8  C   UNL     1      -9.184  10.871  65.442  1.00  0.00    -0.231 C  
HETATM    9  C   UNL     1     -11.020  12.260  65.988  1.00  0.00    -0.327 A  
HETATM   10  C   UNL     1     -10.448  11.497  64.961  1.00  0.00    -0.344 A  
HETATM   11  C   UNL     1     -12.185  12.976  65.743  1.00  0.00    -0.511 A  
HETATM   12  C   UNL     1     -10.496  16.996  69.072  1.00  0.00    -0.337 A  
HETATM   13  C   UNL     1     -11.084  16.126  69.967  1.00  0.00    -0.363 A  
HETATM   14  C   UNL     1     -12.775  12.894  64.479  1.00  0.00    -0.359 A  
HETATM   15  C   UNL     1     -11.028  11.397  63.705  1.00  0.00    -0.448 A  
HETATM   16  N   UNL     1     -11.125  14.787  69.789  1.00  0.00    -0.266 NA 
HETATM   17  C   UNL     1     -12.205  12.103  63.468  1.00  0.00    -0.670 A  
ENDROOT
BRANCH   6  18
HETATM   18  C   UNL     1      -7.955  10.926  67.713  1.00  0.00    -0.111 C  
BRANCH  18  19
HETATM   19  C   UNL     1      -8.188   9.532  68.325  1.00  0.00    -0.113 C  
BRANCH  19  20
HETATM   20  N   UNL     1      -9.492   9.313  68.987  1.00  0.00    -0.153 NA 
HETATM   21  C   UNL     1     -10.117   8.044  68.617  1.00  0.00    -0.199 C  
HETATM   22  C   UNL     1      -9.293   9.353  70.442  1.00  0.00    -0.268 C  
ENDBRANCH  19  20
ENDBRANCH  18  19
ENDBRANCH   6  18
TORSDOF 3
ENDMDL
MODEL       32
REMARK 921   NORMALIZED FREE ENERGY PREDICTED BY IDOCK:   -5.53 KCAL/MOL
REMARK 922        TOTAL FREE ENERGY PREDICTED BY IDOCK:   -6.80 KCAL/MOL
REMARK 923 INTER-LIGAND FREE ENERGY PREDICTED BY IDOCK:   -6.37 KCAL/MOL
REMARK 924 INTRA-LIGAND FREE ENERGY PREDICTED BY IDOCK:   -0.43 KCAL/MOL
REMARK 927      BINDING AFFINITY PREDICTED BY RF-SCORE:    0.00 PKD
ROOT
HETATM    1  C   UNL     1     -10.653   9.629  67.014  1.00  0.00    -0.267 C  
HETATM    2  C   UNL     1      -9.872  10.677  67.844  1.00  0.00    -0.181 C  
HETATM    3  C   UNL     1      -8.529  10.122  68.341  1.00  0.00    -0.118 A  
HETATM    4  C   UNL     1     -10.769  11.334  68.880  1.00  0.00    -0.246 C  
HETATM    5  C   UNL     1      -7.980  10.465  69.575  1.00  0.00    -0.152 A  
HETATM    6  C   UNL     1     -11.172  12.626  68.977  1.00  0.00    -0.322 C  
HETATM    7  C   UNL     1      -6.715   9.985  69.921  1.00  0.00    -0.099 A  
HETATM    8  C   UNL     1     -12.170  12.845  70.101  1.00  0.00    -0.336 C  
HETATM    9  C   UNL     1     -11.430  10.601  69.975  1.00  0.00    -0.404 A  
HETATM   10  C   UNL     1     -12.278  11.472  70.671  1.00  0.00    -0.473 A  
HETATM   11  C   UNL     1     -11.333   9.274  70.373  1.00  0.00    -0.283 A  
HETATM   12  C   UNL     1      -6.015   9.187  69.028  1.00  0.00    -0.043 A  
HETATM   13  C   UNL     1      -6.610   8.899  67.817  1.00  0.00    -0.061 A  
HETATM   14  C   UNL     1     -12.109   8.833  71.448  1.00  0.00    -0.361 A  
HETATM   15  C   UNL     1     -13.062  11.047  71.733  1.00  0.00    -0.554 A  
HETATM   16  N   UNL     1      -7.830   9.355  67.457  1.00  0.00    -0.098 NA 
HETATM   17  C   UNL     1     -12.974   9.712  72.120  1.00  0.00    -0.493 A  
ENDROOT
BRANCH   6  18
HETATM   18  C   UNL     1     -10.795  13.827  68.147  1.00  0.00    -0.261 C  
BRANCH  18  19
HETATM   19  C   UNL     1     -11.726  13.981  66.931  1.00  0.00    -0.410 C  
BRANCH  19  20
HETATM   20  N   UNL     1     -11.341  13.242  65.709  1.00  0.00    -0.303 NA 
HETATM   21  C   UNL     1     -12.482  12.643  65.018  1.00  0.00    -0.487 C  
HETATM   22  C   UNL     1     -10.650  14.166  64.800  1.00  0.00    -0.418 C  
ENDBRANCH  19  20
ENDBRANCH  18  19
ENDBRANCH   6  18
TORSDOF 3
ENDMDL
MODEL       33
REMARK 921   NORMALIZED FREE ENERGY PREDICTED BY IDOCK:   -5.50 KCAL/MOL
REMARK 922        TOTAL FREE ENERGY PREDICTED BY IDOCK:   -6.77 KCAL/MOL
REMARK 923 INTER-LIGAND FREE ENERGY PREDICTED BY IDOCK:   -6.45 KCAL/MOL
REMARK 924 INTRA-LIGAND FREE ENERGY PREDICTED BY IDOCK:   -0.32 KCAL/MOL
REMARK 927      BINDING AFFINITY PREDICTED BY RF-SCORE:    0.00 PKD
ROOT
HETATM    1  C   UNL     1     -11.898  14.374  68.701  1.00  0.00    -0.366 C  
HETATM    2  C   UNL     1     -10.442  14.464  68.179  1.00  0.00    -0.237 C  
HETATM    3  C   UNL     1     -10.046  15.911  67.850  1.00  0.00    -0.235 A  
HETATM    4  C   UNL     1     -10.179  13.419  67.108  1.00  0.00    -0.247 C  
HETATM    5  C   UNL     1      -9.200  16.240  66.792  1.00  0.00    -0.253 A  
HETATM    6  C   UNL     1      -9.337  12.356  67.128  1.00  0.00    -0.199 C  
HETATM    7  C   UNL     1      -8.818  17.570  66.607  1.00  0.00    -0.284 A  
HETATM    8  C   UNL     1      -9.463  11.484  65.891  1.00  0.00    -0.251 C  
HETATM    9  C   UNL     1     -10.896  13.366  65.820  1.00  0.00    -0.283 A  
HETATM   10  C   UNL     1     -10.507  12.217  65.119  1.00  0.00    -0.320 A  
HETATM   11  C   UNL     1     -11.828  14.230  65.259  1.00  0.00    -0.374 A  
HETATM   12  C   UNL     1      -9.272  18.544  67.485  1.00  0.00    -0.288 A  
HETATM   13  C   UNL     1     -10.094  18.147  68.519  1.00  0.00    -0.400 A  
HETATM   14  C   UNL     1     -12.376  13.915  64.013  1.00  0.00    -0.355 A  
HETATM   15  C   UNL     1     -11.050  11.886  63.886  1.00  0.00    -0.483 A  
HETATM   16  N   UNL     1     -10.473  16.866  68.722  1.00  0.00    -0.322 NA 
HETATM   17  C   UNL     1     -11.996  12.746  63.334  1.00  0.00    -0.613 A  
ENDROOT
BRANCH   6  18
HETATM   18  C   UNL     1      -8.340  11.926  68.174  1.00  0.00    -0.161 C  
BRANCH  18  19
HETATM   19  C   UNL     1      -8.547  10.452  68.570  1.00  0.00    -0.134 C  
BRANCH  19  20
HETATM   20  N   UNL     1      -9.759  10.146  69.359  1.00  0.00    -0.219 NA 
HETATM   21  C   UNL     1     -10.736   9.347  68.621  1.00  0.00    -0.160 C  
HETATM   22  C   UNL     1      -9.360   9.427  70.576  1.00  0.00    -0.262 C  
ENDBRANCH  19  20
ENDBRANCH  18  19
ENDBRANCH   6  18
TORSDOF 3
ENDMDL
MODEL       34
REMARK 921   NORMALIZED FREE ENERGY PREDICTED BY IDOCK:   -5.49 KCAL/MOL
REMARK 922        TOTAL FREE ENERGY PREDICTED BY IDOCK:   -6.75 KCAL/MOL
REMARK 923 INTER-LIGAND FREE ENERGY PREDICTED BY IDOCK:   -6.47 KCAL/MOL
REMARK 924 INTRA-LIGAND FREE ENERGY PREDICTED BY IDOCK:   -0.27 KCAL/MOL
REMARK 927      BINDING AFFINITY PREDICTED BY RF-SCORE:    0.00 PKD
ROOT
HETATM    1  C   UNL     1     -10.474   9.001  67.356  1.00  0.00    -0.338 C  
HETATM    2  C   UNL     1      -9.728  10.083  68.176  1.00  0.00    -0.156 C  
HETATM    3  C   UNL     1      -8.425   9.540  68.780  1.00  0.00    -0.122 A  
HETATM    4  C   UNL     1     -10.676  10.803  69.121  1.00  0.00    -0.265 C  
HETATM    5  C   UNL     1      -7.946   9.942  70.026  1.00  0.00    -0.194 A  
HETATM    6  C   UNL     1     -11.066  12.102  69.127  1.00  0.00    -0.263 C  
HETATM    7  C   UNL     1      -6.710   9.467  70.471  1.00  0.00    -0.101 A  
HETATM    8  C   UNL     1     -12.126  12.391  70.176  1.00  0.00    -0.366 C  
HETATM    9  C   UNL     1     -11.411  10.135  70.211  1.00  0.00    -0.387 A  
HETATM   10  C   UNL     1     -12.286  11.051  70.810  1.00  0.00    -0.496 A  
HETATM   11  C   UNL     1     -11.356   8.830  70.682  1.00  0.00    -0.289 A  
HETATM   12  C   UNL     1      -5.970   8.616  69.664  1.00  0.00    -0.032 A  
HETATM   13  C   UNL     1      -6.496   8.272  68.436  1.00  0.00    -0.059 A  
HETATM   14  C   UNL     1     -12.200   8.455  71.731  1.00  0.00    -0.377 A  
HETATM   15  C   UNL     1     -13.137  10.690  71.844  1.00  0.00    -0.563 A  
HETATM   16  N   UNL     1      -7.686   8.721  67.981  1.00  0.00    -0.100 NA 
HETATM   17  C   UNL     1     -13.092   9.377  72.303  1.00  0.00    -0.509 A  
ENDROOT
BRANCH   6  18
HETATM   18  C   UNL     1     -10.624  13.254  68.260  1.00  0.00    -0.262 C  
BRANCH  18  19
HETATM   19  C   UNL     1     -11.819  14.135  67.849  1.00  0.00    -0.370 C  
BRANCH  19  20
HETATM   20  N   UNL     1     -12.019  14.336  66.397  1.00  0.00    -0.418 NA 
HETATM   21  C   UNL     1     -10.914  15.052  65.760  1.00  0.00    -0.350 C  
HETATM   22  C   UNL     1     -12.181  13.022  65.759  1.00  0.00    -0.453 C  
ENDBRANCH  19  20
ENDBRANCH  18  19
ENDBRANCH   6  18
TORSDOF 3
ENDMDL
MODEL       35
REMARK 921   NORMALIZED FREE ENERGY PREDICTED BY IDOCK:   -5.46 KCAL/MOL
REMARK 922        TOTAL FREE ENERGY PREDICTED BY IDOCK:   -6.72 KCAL/MOL
REMARK 923 INTER-LIGAND FREE ENERGY PREDICTED BY IDOCK:   -6.24 KCAL/MOL
REMARK 924 INTRA-LIGAND FREE ENERGY PREDICTED BY IDOCK:   -0.49 KCAL/MOL
REMARK 927      BINDING AFFINITY PREDICTED BY RF-SCORE:    0.00 PKD
ROOT
HETATM    1  C   UNL     1     -10.864  15.924  69.940  1.00  0.00    -0.333 C  
HETATM    2  C   UNL     1      -9.742  16.091  68.886  1.00  0.00    -0.232 C  
HETATM    3  C   UNL     1      -9.902  17.392  68.087  1.00  0.00    -0.301 A  
HETATM    4  C   UNL     1      -9.547  14.813  68.088  1.00  0.00    -0.209 C  
HETATM    5  C   UNL     1      -9.568  17.495  66.738  1.00  0.00    -0.286 A  
HETATM    6  C   UNL     1      -8.475  13.983  68.035  1.00  0.00    -0.171 C  
HETATM    7  C   UNL     1      -9.662  18.734  66.100  1.00  0.00    -0.280 A  
HETATM    8  C   UNL     1      -8.735  12.742  67.199  1.00  0.00    -0.202 C  
HETATM    9  C   UNL     1     -10.590  14.211  67.237  1.00  0.00    -0.277 A  
HETATM   10  C   UNL     1     -10.133  12.982  66.742  1.00  0.00    -0.247 A  
HETATM   11  C   UNL     1     -11.858  14.661  66.892  1.00  0.00    -0.345 A  
HETATM   12  C   UNL     1     -10.071  19.847  66.819  1.00  0.00    -0.586 A  
HETATM   13  C   UNL     1     -10.370  19.678  68.155  1.00  0.00    -0.438 A  
HETATM   14  C   UNL     1     -12.660  13.859  66.076  1.00  0.00    -0.467 A  
HETATM   15  C   UNL     1     -10.922  12.171  65.941  1.00  0.00    -0.332 A  
HETATM   16  N   UNL     1     -10.283  18.492  68.795  1.00  0.00    -0.353 NA 
HETATM   17  C   UNL     1     -12.199  12.617  65.610  1.00  0.00    -0.474 A  
ENDROOT
BRANCH   6  18
HETATM   18  C   UNL     1      -7.118  14.106  68.681  1.00  0.00    -0.110 C  
BRANCH  18  19
HETATM   19  C   UNL     1      -6.208  15.065  67.890  1.00  0.00    -0.159 C  
BRANCH  19  20
HETATM   20  N   UNL     1      -5.640  16.204  68.643  1.00  0.00    -0.103 NA 
HETATM   21  C   UNL     1      -6.258  17.484  68.299  1.00  0.00    -0.175 C  
HETATM   22  C   UNL     1      -5.812  15.950  70.080  1.00  0.00    -0.157 C  
ENDBRANCH  19  20
ENDBRANCH  18  19
ENDBRANCH   6  18
TORSDOF 3
ENDMDL
MODEL       36
REMARK 921   NORMALIZED FREE ENERGY PREDICTED BY IDOCK:   -5.43 KCAL/MOL
REMARK 922        TOTAL FREE ENERGY PREDICTED BY IDOCK:   -6.68 KCAL/MOL
REMARK 923 INTER-LIGAND FREE ENERGY PREDICTED BY IDOCK:   -6.34 KCAL/MOL
REMARK 924 INTRA-LIGAND FREE ENERGY PREDICTED BY IDOCK:   -0.35 KCAL/MOL
REMARK 927      BINDING AFFINITY PREDICTED BY RF-SCORE:    0.00 PKD
ROOT
HETATM    1  C   UNL     1     -10.387   8.024  67.845  1.00  0.00    -0.282 C  
HETATM    2  C   UNL     1      -9.624   9.226  68.455  1.00  0.00    -0.155 C  
HETATM    3  C   UNL     1      -8.353   8.778  69.189  1.00  0.00    -0.125 A  
HETATM    4  C   UNL     1     -10.568  10.144  69.213  1.00  0.00    -0.254 C  
HETATM    5  C   UNL     1      -7.886   9.405  70.344  1.00  0.00    -0.179 A  
HETATM    6  C   UNL     1     -10.917  11.429  68.952  1.00  0.00    -0.276 C  
HETATM    7  C   UNL     1      -6.676   8.995  70.907  1.00  0.00    -0.080 A  
HETATM    8  C   UNL     1     -11.988  11.949  69.895  1.00  0.00    -0.398 C  
HETATM    9  C   UNL     1     -11.347   9.726  70.394  1.00  0.00    -0.362 A  
HETATM   10  C   UNL     1     -12.205  10.766  70.776  1.00  0.00    -0.480 A  
HETATM   11  C   UNL     1     -11.344   8.539  71.115  1.00  0.00    -0.319 A  
HETATM   12  C   UNL     1      -5.947   7.981  70.304  1.00  0.00    -0.029 A  
HETATM   13  C   UNL     1      -6.458   7.414  69.155  1.00  0.00    -0.040 A  
HETATM   14  C   UNL     1     -12.221   8.402  72.193  1.00  0.00    -0.434 A  
HETATM   15  C   UNL     1     -13.089  10.641  71.837  1.00  0.00    -0.563 A  
HETATM   16  N   UNL     1      -7.623   7.797  68.588  1.00  0.00    -0.103 NA 
HETATM   17  C   UNL     1     -13.095   9.444  72.548  1.00  0.00    -0.374 A  
ENDROOT
BRANCH   6  18
HETATM   18  C   UNL     1     -10.420  12.374  67.887  1.00  0.00    -0.227 C  
BRANCH  18  19
HETATM   19  C   UNL     1     -11.045  12.051  66.518  1.00  0.00    -0.314 C  
BRANCH  19  20
HETATM   20  N   UNL     1     -12.302  12.756  66.186  1.00  0.00    -0.531 NA 
HETATM   21  C   UNL     1     -12.326  14.139  66.659  1.00  0.00    -0.339 C  
HETATM   22  C   UNL     1     -12.482  12.735  64.728  1.00  0.00    -0.472 C  
ENDBRANCH  19  20
ENDBRANCH  18  19
ENDBRANCH   6  18
TORSDOF 3
ENDMDL
MODEL       37
REMARK 921   NORMALIZED FREE ENERGY PREDICTED BY IDOCK:   -5.41 KCAL/MOL
REMARK 922        TOTAL FREE ENERGY PREDICTED BY IDOCK:   -6.66 KCAL/MOL
REMARK 923 INTER-LIGAND FREE ENERGY PREDICTED BY IDOCK:   -6.42 KCAL/MOL
REMARK 924 INTRA-LIGAND FREE ENERGY PREDICTED BY IDOCK:   -0.24 KCAL/MOL
REMARK 927      BINDING AFFINITY PREDICTED BY RF-SCORE:    0.00 PKD
ROOT
HETATM    1  C   UNL     1     -10.600   7.355  66.788  1.00  0.00    -0.281 C  
HETATM    2  C   UNL     1      -9.794   8.671  66.917  1.00  0.00    -0.305 C  
HETATM    3  C   UNL     1      -8.325   8.404  67.273  1.00  0.00    -0.123 A  
HETATM    4  C   UNL     1     -10.536   9.685  67.772  1.00  0.00    -0.320 C  
HETATM    5  C   UNL     1      -7.584   9.247  68.100  1.00  0.00    -0.084 A  
HETATM    6  C   UNL     1     -11.057  10.889  67.426  1.00  0.00    -0.373 C  
HETATM    7  C   UNL     1      -6.228   8.985  68.310  1.00  0.00    -0.054 A  
HETATM    8  C   UNL     1     -11.829  11.541  68.559  1.00  0.00    -0.365 C  
HETATM    9  C   UNL     1     -10.876   9.469  69.190  1.00  0.00    -0.194 A  
HETATM   10  C   UNL     1     -11.662  10.536  69.646  1.00  0.00    -0.328 A  
HETATM   11  C   UNL     1     -10.550   8.436  70.059  1.00  0.00    -0.235 A  
HETATM   12  C   UNL     1      -5.634   7.899  67.684  1.00  0.00    -0.037 A  
HETATM   13  C   UNL     1      -6.422   7.115  66.867  1.00  0.00    -0.054 A  
HETATM   14  C   UNL     1     -11.039   8.474  71.367  1.00  0.00    -0.328 A  
HETATM   15  C   UNL     1     -12.164  10.582  70.939  1.00  0.00    -0.490 A  
HETATM   16  N   UNL     1      -7.733   7.352  66.643  1.00  0.00    -0.099 NA 
HETATM   17  C   UNL     1     -11.848   9.536  71.803  1.00  0.00    -0.430 A  
ENDROOT
BRANCH   6  18
HETATM   18  C   UNL     1     -10.994  11.635  66.117  1.00  0.00    -0.339 C  
BRANCH  18  19
HETATM   19  C   UNL     1     -12.004  12.797  66.087  1.00  0.00    -0.414 C  
BRANCH  19  20
HETATM   20  N   UNL     1     -12.587  13.129  64.769  1.00  0.00    -0.644 NA 
HETATM   21  C   UNL     1     -12.330  14.510  64.360  1.00  0.00    -0.413 C  
HETATM   22  C   UNL     1     -12.031  12.212  63.765  1.00  0.00    -0.513 C  
ENDBRANCH  19  20
ENDBRANCH  18  19
ENDBRANCH   6  18
TORSDOF 3
ENDMDL
MODEL       38
REMARK 921   NORMALIZED FREE ENERGY PREDICTED BY IDOCK:   -5.40 KCAL/MOL
REMARK 922        TOTAL FREE ENERGY PREDICTED BY IDOCK:   -6.64 KCAL/MOL
REMARK 923 INTER-LIGAND FREE ENERGY PREDICTED BY IDOCK:   -6.31 KCAL/MOL
REMARK 924 INTRA-LIGAND FREE ENERGY PREDICTED BY IDOCK:   -0.34 KCAL/MOL
REMARK 927      BINDING AFFINITY PREDICTED BY RF-SCORE:    0.00 PKD
ROOT
HETATM    1  C   UNL     1     -11.069  11.518  68.861  1.00  0.00    -0.288 C  
HETATM    2  C   UNL     1     -10.790  12.976  69.303  1.00  0.00    -0.048 C  
HETATM    3  C   UNL     1     -11.934  13.538  70.158  1.00  0.00    -0.329 A  
HETATM    4  C   UNL     1     -10.327  13.824  68.130  1.00  0.00    -0.252 C  
HETATM    5  C   UNL     1     -12.330  14.874  70.106  1.00  0.00    -0.376 A  
HETATM    6  C   UNL     1      -9.131  14.427  67.919  1.00  0.00    -0.187 C  
HETATM    7  C   UNL     1     -13.322  15.330  70.975  1.00  0.00    -0.537 A  
HETATM    8  C   UNL     1      -9.038  15.085  66.554  1.00  0.00    -0.319 C  
HETATM    9  C   UNL     1     -11.149  14.085  66.933  1.00  0.00    -0.310 A  
HETATM   10  C   UNL     1     -10.388  14.793  65.994  1.00  0.00    -0.318 A  
HETATM   11  C   UNL     1     -12.464  13.751  66.639  1.00  0.00    -0.307 A  
HETATM   12  C   UNL     1     -13.891  14.455  71.889  1.00  0.00    -0.549 A  
HETATM   13  C   UNL     1     -13.441  13.151  71.899  1.00  0.00    -0.424 A  
HETATM   14  C   UNL     1     -12.989  14.108  65.394  1.00  0.00    -0.300 A  
HETATM   15  C   UNL     1     -10.892  15.145  64.750  1.00  0.00    -0.378 A  
HETATM   16  N   UNL     1     -12.479  12.687  71.071  1.00  0.00    -0.335 NA 
HETATM   17  C   UNL     1     -12.206  14.794  64.452  1.00  0.00    -0.447 A  
ENDROOT
BRANCH   6  18
HETATM   18  C   UNL     1      -7.918  14.518  68.811  1.00  0.00    -0.142 C  
BRANCH  18  19
HETATM   19  C   UNL     1      -6.721  13.762  68.207  1.00  0.00    -0.109 C  
BRANCH  19  20
HETATM   20  N   UNL     1      -6.048  12.783  69.088  1.00  0.00    -0.086 NA 
HETATM   21  C   UNL     1      -5.898  13.258  70.463  1.00  0.00    -0.154 C  
HETATM   22  C   UNL     1      -6.824  11.535  69.084  1.00  0.00    -0.112 C  
ENDBRANCH  19  20
ENDBRANCH  18  19
ENDBRANCH   6  18
TORSDOF 3
ENDMDL
MODEL       39
REMARK 921   NORMALIZED FREE ENERGY PREDICTED BY IDOCK:   -5.39 KCAL/MOL
REMARK 922        TOTAL FREE ENERGY PREDICTED BY IDOCK:   -6.63 KCAL/MOL
REMARK 923 INTER-LIGAND FREE ENERGY PREDICTED BY IDOCK:   -6.28 KCAL/MOL
REMARK 924 INTRA-LIGAND FREE ENERGY PREDICTED BY IDOCK:   -0.35 KCAL/MOL
REMARK 927      BINDING AFFINITY PREDICTED BY RF-SCORE:    0.00 PKD
ROOT
HETATM    1  C   UNL     1     -11.060  14.707  66.663  1.00  0.00    -0.334 C  
HETATM    2  C   UNL     1     -10.124  14.862  67.888  1.00  0.00    -0.227 C  
HETATM    3  C   UNL     1     -10.912  14.870  69.206  1.00  0.00    -0.270 A  
HETATM    4  C   UNL     1      -9.128  15.990  67.676  1.00  0.00    -0.200 C  
HETATM    5  C   UNL     1     -10.539  15.643  70.304  1.00  0.00    -0.329 A  
HETATM    6  C   UNL     1      -7.777  15.938  67.565  1.00  0.00    -0.183 C  
HETATM    7  C   UNL     1     -11.256  15.533  71.497  1.00  0.00    -0.399 A  
HETATM    8  C   UNL     1      -7.163  17.288  67.238  1.00  0.00    -0.191 C  
HETATM    9  C   UNL     1      -9.514  17.400  67.485  1.00  0.00    -0.250 A  
HETATM   10  C   UNL     1      -8.372  18.159  67.195  1.00  0.00    -0.244 A  
HETATM   11  C   UNL     1     -10.754  18.023  67.549  1.00  0.00    -0.352 A  
HETATM   12  C   UNL     1     -12.320  14.646  71.579  1.00  0.00    -0.415 A  
HETATM   13  C   UNL     1     -12.625  13.900  70.460  1.00  0.00    -0.312 A  
HETATM   14  C   UNL     1     -10.834  19.394  67.294  1.00  0.00    -0.561 A  
HETATM   15  C   UNL     1      -8.438  19.518  66.928  1.00  0.00    -0.327 A  
HETATM   16  N   UNL     1     -11.943  13.985  69.297  1.00  0.00    -0.337 NA 
HETATM   17  C   UNL     1      -9.685  20.137  66.977  1.00  0.00    -0.574 A  
ENDROOT
BRANCH   6  18
HETATM   18  C   UNL     1      -6.835  14.768  67.700  1.00  0.00    -0.205 C  
BRANCH  18  19
HETATM   19  C   UNL     1      -6.816  14.229  69.142  1.00  0.00    -0.120 C  
BRANCH  19  20
HETATM   20  N   UNL     1      -5.562  14.426  69.902  1.00  0.00    -0.098 NA 
HETATM   21  C   UNL     1      -5.425  15.778  70.442  1.00  0.00    -0.157 C  
HETATM   22  C   UNL     1      -5.523  13.454  71.004  1.00  0.00    -0.198 C  
ENDBRANCH  19  20
ENDBRANCH  18  19
ENDBRANCH   6  18
TORSDOF 3
ENDMDL
MODEL       40
REMARK 921   NORMALIZED FREE ENERGY PREDICTED BY IDOCK:   -5.34 KCAL/MOL
REMARK 922        TOTAL FREE ENERGY PREDICTED BY IDOCK:   -6.58 KCAL/MOL
REMARK 923 INTER-LIGAND FREE ENERGY PREDICTED BY IDOCK:   -6.37 KCAL/MOL
REMARK 924 INTRA-LIGAND FREE ENERGY PREDICTED BY IDOCK:   -0.21 KCAL/MOL
REMARK 927      BINDING AFFINITY PREDICTED BY RF-SCORE:    0.00 PKD
ROOT
HETATM    1  C   UNL     1     -10.759   9.746  67.162  1.00  0.00    -0.273 C  
HETATM    2  C   UNL     1     -10.190  10.506  68.387  1.00  0.00    -0.192 C  
HETATM    3  C   UNL     1      -8.696  10.217  68.590  1.00  0.00    -0.133 A  
HETATM    4  C   UNL     1     -11.093  10.344  69.598  1.00  0.00    -0.328 C  
HETATM    5  C   UNL     1      -8.109  10.134  69.851  1.00  0.00    -0.139 A  
HETATM    6  C   UNL     1     -11.814  11.278  70.267  1.00  0.00    -0.446 C  
HETATM    7  C   UNL     1      -6.728   9.952  69.955  1.00  0.00    -0.088 A  
HETATM    8  C   UNL     1     -12.684  10.677  71.357  1.00  0.00    -0.545 C  
HETATM    9  C   UNL     1     -11.388   9.047  70.234  1.00  0.00    -0.202 A  
HETATM   10  C   UNL     1     -12.344   9.231  71.241  1.00  0.00    -0.403 A  
HETATM   11  C   UNL     1     -10.887   7.775  69.986  1.00  0.00    -0.243 A  
HETATM   12  C   UNL     1      -5.958   9.873  68.804  1.00  0.00    -0.038 A  
HETATM   13  C   UNL     1      -6.601   9.980  67.589  1.00  0.00    -0.067 A  
HETATM   14  C   UNL     1     -11.373   6.701  70.736  1.00  0.00    -0.389 A  
HETATM   15  C   UNL     1     -12.843   8.172  71.986  1.00  0.00    -0.346 A  
HETATM   16  N   UNL     1      -7.934  10.160  67.463  1.00  0.00    -0.106 NA 
HETATM   17  C   UNL     1     -12.351   6.896  71.724  1.00  0.00    -0.401 A  
ENDROOT
BRANCH   6  18
HETATM   18  C   UNL     1     -11.883  12.773  70.078  1.00  0.00    -0.352 C  
BRANCH  18  19
HETATM   19  C   UNL     1     -12.684  13.443  71.209  1.00  0.00    -0.338 C  
BRANCH  19  20
HETATM   20  N   UNL     1     -13.029  14.868  71.016  1.00  0.00    -0.352 NA 
HETATM   21  C   UNL     1     -14.370  15.203  71.493  1.00  0.00    -0.559 C  
HETATM   22  C   UNL     1     -12.040  15.692  71.725  1.00  0.00    -0.431 C  
ENDBRANCH  19  20
ENDBRANCH  18  19
ENDBRANCH   6  18
TORSDOF 3
ENDMDL
MODEL       41
REMARK 921   NORMALIZED FREE ENERGY PREDICTED BY IDOCK:   -5.34 KCAL/MOL
REMARK 922        TOTAL FREE ENERGY PREDICTED BY IDOCK:   -6.57 KCAL/MOL
REMARK 923 INTER-LIGAND FREE ENERGY PREDICTED BY IDOCK:   -6.29 KCAL/MOL
REMARK 924 INTRA-LIGAND FREE ENERGY PREDICTED BY IDOCK:   -0.28 KCAL/MOL
REMARK 927      BINDING AFFINITY PREDICTED BY RF-SCORE:    0.00 PKD
ROOT
HETATM    1  C   UNL     1      -9.253   8.104  71.974  1.00  0.00    -0.253 C  
HETATM    2  C   UNL     1     -10.365   7.482  71.093  1.00  0.00    -0.208 C  
HETATM    3  C   UNL     1     -11.753   8.019  71.469  1.00  0.00    -0.284 A  
HETATM    4  C   UNL     1     -10.212   5.972  71.005  1.00  0.00    -0.253 C  
HETATM    5  C   UNL     1     -12.905   7.235  71.418  1.00  0.00    -0.425 A  
HETATM    6  C   UNL     1      -9.933   5.195  69.929  1.00  0.00    -0.316 C  
HETATM    7  C   UNL     1     -14.144   7.817  71.693  1.00  0.00    -0.533 A  
HETATM    8  C   UNL     1      -9.748   3.733  70.294  1.00  0.00    -0.222 C  
HETATM    9  C   UNL     1     -10.292   5.071  72.169  1.00  0.00    -0.276 A  
HETATM   10  C   UNL     1      -9.987   3.764  71.765  1.00  0.00    -0.227 A  
HETATM   11  C   UNL     1     -10.601   5.324  73.499  1.00  0.00    -0.313 A  
HETATM   12  C   UNL     1     -14.215   9.169  72.000  1.00  0.00    -0.319 A  
HETATM   13  C   UNL     1     -13.039   9.889  72.018  1.00  0.00    -0.448 A  
HETATM   14  C   UNL     1     -10.573   4.266  74.411  1.00  0.00    -0.271 A  
HETATM   15  C   UNL     1      -9.946   2.706  72.661  1.00  0.00    -0.219 A  
HETATM   16  N   UNL     1     -11.829   9.350  71.750  1.00  0.00    -0.384 NA 
HETATM   17  C   UNL     1     -10.240   2.966  73.997  1.00  0.00    -0.193 A  
ENDROOT
BRANCH   6  18
HETATM   18  C   UNL     1      -9.769   5.567  68.477  1.00  0.00    -0.175 C  
BRANCH  18  19
HETATM   19  C   UNL     1     -10.998   6.335  67.955  1.00  0.00    -0.327 C  
BRANCH  19  20
HETATM   20  N   UNL     1     -10.727   7.482  67.062  1.00  0.00    -0.352 NA 
HETATM   21  C   UNL     1     -10.785   8.770  67.752  1.00  0.00    -0.125 C  
HETATM   22  C   UNL     1      -9.397   7.309  66.464  1.00  0.00    -0.170 C  
ENDBRANCH  19  20
ENDBRANCH  18  19
ENDBRANCH   6  18
TORSDOF 3
ENDMDL
MODEL       42
REMARK 921   NORMALIZED FREE ENERGY PREDICTED BY IDOCK:   -5.33 KCAL/MOL
REMARK 922        TOTAL FREE ENERGY PREDICTED BY IDOCK:   -6.57 KCAL/MOL
REMARK 923 INTER-LIGAND FREE ENERGY PREDICTED BY IDOCK:   -6.23 KCAL/MOL
REMARK 924 INTRA-LIGAND FREE ENERGY PREDICTED BY IDOCK:   -0.34 KCAL/MOL
REMARK 927      BINDING AFFINITY PREDICTED BY RF-SCORE:    0.00 PKD
ROOT
HETATM    1  C   UNL     1      -7.919  10.011  67.886  1.00  0.00    -0.105 C  
HETATM    2  C   UNL     1      -9.403   9.723  67.548  1.00  0.00    -0.152 C  
HETATM    3  C   UNL     1      -9.807   8.294  67.937  1.00  0.00    -0.169 A  
HETATM    4  C   UNL     1      -9.739  10.172  66.136  1.00  0.00    -0.275 C  
HETATM    5  C   UNL     1     -10.714   7.538  67.197  1.00  0.00    -0.379 A  
HETATM    6  C   UNL     1     -10.588  11.145  65.719  1.00  0.00    -0.289 C  
HETATM    7  C   UNL     1     -11.096   6.277  67.660  1.00  0.00    -0.368 A  
HETATM    8  C   UNL     1     -10.545  11.356  64.216  1.00  0.00    -0.416 C  
HETATM    9  C   UNL     1      -9.104   9.619  64.926  1.00  0.00    -0.284 A  
HETATM   10  C   UNL     1      -9.545  10.331  63.803  1.00  0.00    -0.344 A  
HETATM   11  C   UNL     1      -8.201   8.575  64.766  1.00  0.00    -0.164 A  
HETATM   12  C   UNL     1     -10.581   5.800  68.856  1.00  0.00    -0.337 A  
HETATM   13  C   UNL     1      -9.700   6.606  69.547  1.00  0.00    -0.149 A  
HETATM   14  C   UNL     1      -7.734   8.278  63.483  1.00  0.00    -0.142 A  
HETATM   15  C   UNL     1      -9.082  10.054  62.525  1.00  0.00    -0.309 A  
HETATM   16  N   UNL     1      -9.319   7.831  69.122  1.00  0.00    -0.151 NA 
HETATM   17  C   UNL     1      -8.165   9.018  62.370  1.00  0.00    -0.171 A  
ENDROOT
BRANCH   6  18
HETATM   18  C   UNL     1     -11.522  12.026  66.511  1.00  0.00    -0.413 C  
BRANCH  18  19
HETATM   19  C   UNL     1     -12.183  13.088  65.614  1.00  0.00    -0.466 C  
BRANCH  19  20
HETATM   20  N   UNL     1     -11.978  14.500  66.005  1.00  0.00    -0.348 NA 
HETATM   21  C   UNL     1     -11.672  14.662  67.426  1.00  0.00    -0.390 C  
HETATM   22  C   UNL     1     -10.880  15.055  65.203  1.00  0.00    -0.407 C  
ENDBRANCH  19  20
ENDBRANCH  18  19
ENDBRANCH   6  18
TORSDOF 3
ENDMDL
MODEL       43
REMARK 921   NORMALIZED FREE ENERGY PREDICTED BY IDOCK:   -5.33 KCAL/MOL
REMARK 922        TOTAL FREE ENERGY PREDICTED BY IDOCK:   -6.56 KCAL/MOL
REMARK 923 INTER-LIGAND FREE ENERGY PREDICTED BY IDOCK:   -6.04 KCAL/MOL
REMARK 924 INTRA-LIGAND FREE ENERGY PREDICTED BY IDOCK:   -0.52 KCAL/MOL
REMARK 927      BINDING AFFINITY PREDICTED BY RF-SCORE:    0.00 PKD
ROOT
HETATM    1  C   UNL     1      -9.407  10.410  67.430  1.00  0.00    -0.162 C  
HETATM    2  C   UNL     1      -9.667  11.613  68.370  1.00  0.00    -0.199 C  
HETATM    3  C   UNL     1     -10.816  11.330  69.349  1.00  0.00    -0.189 A  
HETATM    4  C   UNL     1      -9.736  12.914  67.587  1.00  0.00    -0.212 C  
HETATM    5  C   UNL     1     -11.708  12.315  69.771  1.00  0.00    -0.368 A  
HETATM    6  C   UNL     1      -8.912  13.991  67.628  1.00  0.00    -0.194 C  
HETATM    7  C   UNL     1     -12.674  12.000  70.728  1.00  0.00    -0.231 A  
HETATM    8  C   UNL     1      -9.267  15.042  66.591  1.00  0.00    -0.302 C  
HETATM    9  C   UNL     1     -10.745  13.194  66.549  1.00  0.00    -0.288 A  
HETATM   10  C   UNL     1     -10.456  14.422  65.939  1.00  0.00    -0.317 A  
HETATM   11  C   UNL     1     -11.850  12.463  66.130  1.00  0.00    -0.442 A  
HETATM   12  C   UNL     1     -12.726  10.719  71.257  1.00  0.00    -0.546 A  
HETATM   13  C   UNL     1     -11.803   9.798  70.807  1.00  0.00    -0.319 A  
HETATM   14  C   UNL     1     -12.633  12.962  65.087  1.00  0.00    -0.536 A  
HETATM   15  C   UNL     1     -11.218  14.925  64.895  1.00  0.00    -0.415 A  
HETATM   16  N   UNL     1     -10.855  10.079  69.886  1.00  0.00    -0.265 NA 
HETATM   17  C   UNL     1     -12.315  14.182  64.467  1.00  0.00    -0.419 A  
ENDROOT
BRANCH   6  18
HETATM   18  C   UNL     1      -7.726  14.273  68.516  1.00  0.00    -0.137 C  
BRANCH  18  19
HETATM   19  C   UNL     1      -6.400  14.026  67.773  1.00  0.00    -0.159 C  
BRANCH  19  20
HETATM   20  N   UNL     1      -5.701  12.759  68.078  1.00  0.00    -0.085 NA 
HETATM   21  C   UNL     1      -6.139  12.151  69.333  1.00  0.00    -0.103 C  
HETATM   22  C   UNL     1      -5.930  11.818  66.973  1.00  0.00    -0.153 C  
ENDBRANCH  19  20
ENDBRANCH  18  19
ENDBRANCH   6  18
TORSDOF 3
ENDMDL
MODEL       44
REMARK 921   NORMALIZED FREE ENERGY PREDICTED BY IDOCK:   -5.30 KCAL/MOL
REMARK 922        TOTAL FREE ENERGY PREDICTED BY IDOCK:   -6.52 KCAL/MOL
REMARK 923 INTER-LIGAND FREE ENERGY PREDICTED BY IDOCK:   -6.24 KCAL/MOL
REMARK 924 INTRA-LIGAND FREE ENERGY PREDICTED BY IDOCK:   -0.28 KCAL/MOL
REMARK 927      BINDING AFFINITY PREDICTED BY RF-SCORE:    0.00 PKD
ROOT
HETATM    1  C   UNL     1      -8.023  10.287  68.195  1.00  0.00    -0.109 C  
HETATM    2  C   UNL     1      -9.532   9.941  68.187  1.00  0.00    -0.149 C  
HETATM    3  C   UNL     1      -9.767   8.423  68.184  1.00  0.00    -0.155 A  
HETATM    4  C   UNL     1     -10.274  10.753  67.139  1.00  0.00    -0.255 C  
HETATM    5  C   UNL     1     -10.827   7.825  67.506  1.00  0.00    -0.182 A  
HETATM    6  C   UNL     1     -11.233  11.699  67.300  1.00  0.00    -0.365 C  
HETATM    7  C   UNL     1     -11.024   6.447  67.619  1.00  0.00    -0.441 A  
HETATM    8  C   UNL     1     -11.632  12.359  65.991  1.00  0.00    -0.455 C  
HETATM    9  C   UNL     1      -9.999  10.672  65.692  1.00  0.00    -0.327 A  
HETATM   10  C   UNL     1     -10.765  11.633  65.020  1.00  0.00    -0.351 A  
HETATM   11  C   UNL     1      -9.152   9.840  64.970  1.00  0.00    -0.280 A  
HETATM   12  C   UNL     1     -10.173   5.695  68.415  1.00  0.00    -0.247 A  
HETATM   13  C   UNL     1      -9.154   6.353  69.071  1.00  0.00    -0.130 A  
HETATM   14  C   UNL     1      -9.066  10.003  63.585  1.00  0.00    -0.301 A  
HETATM   15  C   UNL     1     -10.682  11.813  63.647  1.00  0.00    -0.503 A  
HETATM   16  N   UNL     1      -8.946   7.685  68.981  1.00  0.00    -0.138 NA 
HETATM   17  C   UNL     1      -9.820  10.989  62.928  1.00  0.00    -0.319 A  
ENDROOT
BRANCH   6  18
HETATM   18  C   UNL     1     -11.923  12.180  68.551  1.00  0.00    -0.273 C  
BRANCH  18  19
HETATM   19  C   UNL     1     -11.172  13.368  69.182  1.00  0.00    -0.248 C  
BRANCH  19  20
HETATM   20  N   UNL     1     -11.986  14.555  69.523  1.00  0.00    -0.308 NA 
HETATM   21  C   UNL     1     -11.814  14.988  70.909  1.00  0.00    -0.324 C  
HETATM   22  C   UNL     1     -11.618  15.653  68.619  1.00  0.00    -0.382 C  
ENDBRANCH  19  20
ENDBRANCH  18  19
ENDBRANCH   6  18
TORSDOF 3
ENDMDL
MODEL       45
REMARK 921   NORMALIZED FREE ENERGY PREDICTED BY IDOCK:   -5.30 KCAL/MOL
REMARK 922        TOTAL FREE ENERGY PREDICTED BY IDOCK:   -6.52 KCAL/MOL
REMARK 923 INTER-LIGAND FREE ENERGY PREDICTED BY IDOCK:   -6.07 KCAL/MOL
REMARK 924 INTRA-LIGAND FREE ENERGY PREDICTED BY IDOCK:   -0.45 KCAL/MOL
REMARK 927      BINDING AFFINITY PREDICTED BY RF-SCORE:    0.00 PKD
ROOT
HETATM    1  C   UNL     1     -11.793  14.091  68.736  1.00  0.00    -0.396 C  
HETATM    2  C   UNL     1     -10.407  14.397  68.117  1.00  0.00    -0.231 C  
HETATM    3  C   UNL     1     -10.317  15.844  67.613  1.00  0.00    -0.281 A  
HETATM    4  C   UNL     1      -9.988  13.304  67.148  1.00  0.00    -0.238 C  
HETATM    5  C   UNL     1      -9.596  16.204  66.476  1.00  0.00    -0.285 A  
HETATM    6  C   UNL     1      -8.952  12.431  67.227  1.00  0.00    -0.190 C  
HETATM    7  C   UNL     1      -9.491  17.553  66.128  1.00  0.00    -0.182 A  
HETATM    8  C   UNL     1      -8.955  11.414  66.099  1.00  0.00    -0.207 C  
HETATM    9  C   UNL     1     -10.733  12.967  65.921  1.00  0.00    -0.292 A  
HETATM   10  C   UNL     1     -10.154  11.841  65.321  1.00  0.00    -0.300 A  
HETATM   11  C   UNL     1     -11.838  13.566  65.331  1.00  0.00    -0.379 A  
HETATM   12  C   UNL     1     -10.091  18.516  66.925  1.00  0.00    -0.396 A  
HETATM   13  C   UNL     1     -10.776  18.092  68.045  1.00  0.00    -0.277 A  
HETATM   14  C   UNL     1     -12.364  13.010  64.162  1.00  0.00    -0.429 A  
HETATM   15  C   UNL     1     -10.671  11.272  64.167  1.00  0.00    -0.436 A  
HETATM   16  N   UNL     1     -10.887  16.795  68.405  1.00  0.00    -0.357 NA 
HETATM   17  C   UNL     1     -11.790  11.865  63.587  1.00  0.00    -0.573 A  
ENDROOT
BRANCH   6  18
HETATM   18  C   UNL     1      -7.848  12.322  68.248  1.00  0.00    -0.153 C  
BRANCH  18  19
HETATM   19  C   UNL     1      -6.543  12.955  67.730  1.00  0.00    -0.140 C  
BRANCH  19  20
HETATM   20  N   UNL     1      -6.128  14.223  68.369  1.00  0.00    -0.092 NA 
HETATM   21  C   UNL     1      -6.316  15.388  67.505  1.00  0.00    -0.118 C  
HETATM   22  C   UNL     1      -6.901  14.402  69.605  1.00  0.00    -0.118 C  
ENDBRANCH  19  20
ENDBRANCH  18  19
ENDBRANCH   6  18
TORSDOF 3
ENDMDL
MODEL       46
REMARK 921   NORMALIZED FREE ENERGY PREDICTED BY IDOCK:   -5.26 KCAL/MOL
REMARK 922        TOTAL FREE ENERGY PREDICTED BY IDOCK:   -6.48 KCAL/MOL
REMARK 923 INTER-LIGAND FREE ENERGY PREDICTED BY IDOCK:   -6.21 KCAL/MOL
REMARK 924 INTRA-LIGAND FREE ENERGY PREDICTED BY IDOCK:   -0.27 KCAL/MOL
REMARK 927      BINDING AFFINITY PREDICTED BY RF-SCORE:    0.00 PKD
ROOT
HETATM    1  C   UNL     1     -10.622   8.886  67.367  1.00  0.00    -0.305 C  
HETATM    2  C   UNL     1      -9.920   9.963  68.229  1.00  0.00    -0.172 C  
HETATM    3  C   UNL     1      -8.554   9.482  68.738  1.00  0.00    -0.123 A  
HETATM    4  C   UNL     1     -10.873  10.544  69.261  1.00  0.00    -0.284 C  
HETATM    5  C   UNL     1      -8.047   9.834  69.987  1.00  0.00    -0.203 A  
HETATM    6  C   UNL     1     -11.356  11.807  69.375  1.00  0.00    -0.337 C  
HETATM    7  C   UNL     1      -6.760   9.426  70.346  1.00  0.00    -0.083 A  
HETATM    8  C   UNL     1     -12.383  11.943  70.485  1.00  0.00    -0.372 C  
HETATM    9  C   UNL     1     -11.504   9.751  70.331  1.00  0.00    -0.347 A  
HETATM   10  C   UNL     1     -12.415  10.556  71.029  1.00  0.00    -0.501 A  
HETATM   11  C   UNL     1     -11.332   8.425  70.707  1.00  0.00    -0.290 A  
HETATM   12  C   UNL     1      -5.998   8.690  69.450  1.00  0.00    -0.040 A  
HETATM   13  C   UNL     1      -6.555   8.389  68.225  1.00  0.00    -0.060 A  
HETATM   14  C   UNL     1     -12.096   7.917  71.760  1.00  0.00    -0.340 A  
HETATM   15  C   UNL     1     -13.188  10.062  72.070  1.00  0.00    -0.545 A  
HETATM   16  N   UNL     1      -7.795   8.777  67.853  1.00  0.00    -0.102 NA 
HETATM   17  C   UNL     1     -13.025   8.728  72.433  1.00  0.00    -0.442 A  
ENDROOT
BRANCH   6  18
HETATM   18  C   UNL     1     -11.040  13.044  68.574  1.00  0.00    -0.298 C  
BRANCH  18  19
HETATM   19  C   UNL     1     -12.021  14.186  68.898  1.00  0.00    -0.341 C  
BRANCH  19  20
HETATM   20  N   UNL     1     -11.500  15.281  69.745  1.00  0.00    -0.289 NA 
HETATM   21  C   UNL     1     -11.030  16.429  68.970  1.00  0.00    -0.325 C  
HETATM   22  C   UNL     1     -12.564  15.714  70.661  1.00  0.00    -0.414 C  
ENDBRANCH  19  20
ENDBRANCH  18  19
ENDBRANCH   6  18
TORSDOF 3
ENDMDL
MODEL       47
REMARK 921   NORMALIZED FREE ENERGY PREDICTED BY IDOCK:   -5.21 KCAL/MOL
REMARK 922        TOTAL FREE ENERGY PREDICTED BY IDOCK:   -6.42 KCAL/MOL
REMARK 923 INTER-LIGAND FREE ENERGY PREDICTED BY IDOCK:   -6.00 KCAL/MOL
REMARK 924 INTRA-LIGAND FREE ENERGY PREDICTED BY IDOCK:   -0.42 KCAL/MOL
REMARK 927      BINDING AFFINITY PREDICTED BY RF-SCORE:    0.00 PKD
ROOT
HETATM    1  C   UNL     1     -10.204  14.165  68.377  1.00  0.00    -0.247 C  
HETATM    2  C   UNL     1     -11.022  12.889  68.058  1.00  0.00    -0.271 C  
HETATM    3  C   UNL     1     -11.640  12.280  69.325  1.00  0.00    -0.324 A  
HETATM    4  C   UNL     1     -10.241  11.951  67.154  1.00  0.00    -0.230 C  
HETATM    5  C   UNL     1     -11.785  10.906  69.509  1.00  0.00    -0.400 A  
HETATM    6  C   UNL     1     -10.505  11.560  65.882  1.00  0.00    -0.303 C  
HETATM    7  C   UNL     1     -12.433  10.431  70.650  1.00  0.00    -0.437 A  
HETATM    8  C   UNL     1      -9.402  10.699  65.292  1.00  0.00    -0.256 C  
HETATM    9  C   UNL     1      -8.959  11.328  67.530  1.00  0.00    -0.140 A  
HETATM   10  C   UNL     1      -8.446  10.623  66.433  1.00  0.00    -0.152 A  
HETATM   11  C   UNL     1      -8.251  11.348  68.725  1.00  0.00    -0.107 A  
HETATM   12  C   UNL     1     -12.936  11.330  71.579  1.00  0.00    -0.520 A  
HETATM   13  C   UNL     1     -12.772  12.676  71.328  1.00  0.00    -0.257 A  
HETATM   14  C   UNL     1      -7.025  10.681  68.795  1.00  0.00    -0.068 A  
HETATM   15  C   UNL     1      -7.226   9.966  66.484  1.00  0.00    -0.095 A  
HETATM   16  N   UNL     1     -12.153  13.161  70.229  1.00  0.00    -0.356 NA 
HETATM   17  C   UNL     1      -6.511  10.001  67.679  1.00  0.00    -0.063 A  
ENDROOT
BRANCH   6  18
HETATM   18  C   UNL     1     -11.689  11.862  64.998  1.00  0.00    -0.253 C  
BRANCH  18  19
HETATM   19  C   UNL     1     -11.405  13.060  64.074  1.00  0.00    -0.410 C  
BRANCH  19  20
HETATM   20  N   UNL     1     -11.948  14.367  64.505  1.00  0.00    -0.460 NA 
HETATM   21  C   UNL     1     -13.007  14.245  65.506  1.00  0.00    -0.211 C  
HETATM   22  C   UNL     1     -10.850  15.175  65.052  1.00  0.00    -0.440 C  
ENDBRANCH  19  20
ENDBRANCH  18  19
ENDBRANCH   6  18
TORSDOF 3
ENDMDL
MODEL       48
REMARK 921   NORMALIZED FREE ENERGY PREDICTED BY IDOCK:   -5.19 KCAL/MOL
REMARK 922        TOTAL FREE ENERGY PREDICTED BY IDOCK:   -6.40 KCAL/MOL
REMARK 923 INTER-LIGAND FREE ENERGY PREDICTED BY IDOCK:   -5.99 KCAL/MOL
REMARK 924 INTRA-LIGAND FREE ENERGY PREDICTED BY IDOCK:   -0.42 KCAL/MOL
REMARK 927      BINDING AFFINITY PREDICTED BY RF-SCORE:    0.00 PKD
ROOT
HETATM    1  C   UNL     1     -12.061  10.750  69.089  1.00  0.00    -0.227 C  
HETATM    2  C   UNL     1     -11.030  11.906  69.062  1.00  0.00    -0.267 C  
HETATM    3  C   UNL     1     -11.641  13.223  69.561  1.00  0.00    -0.286 A  
HETATM    4  C   UNL     1     -10.293  11.950  67.734  1.00  0.00    -0.214 C  
HETATM    5  C   UNL     1     -11.289  14.465  69.037  1.00  0.00    -0.297 A  
HETATM    6  C   UNL     1      -8.979  11.741  67.469  1.00  0.00    -0.168 C  
HETATM    7  C   UNL     1     -11.824  15.625  69.600  1.00  0.00    -0.377 A  
HETATM    8  C   UNL     1      -8.670  11.761  65.982  1.00  0.00     0.002 C  
HETATM    9  C   UNL     1     -10.954  12.183  66.436  1.00  0.00    -0.327 A  
HETATM   10  C   UNL     1     -10.016  12.040  65.405  1.00  0.00    -0.279 A  
HETATM   11  C   UNL     1     -12.271  12.498  66.128  1.00  0.00    -0.215 A  
HETATM   12  C   UNL     1     -12.687  15.528  70.682  1.00  0.00    -0.487 A  
HETATM   13  C   UNL     1     -12.981  14.269  71.161  1.00  0.00    -0.353 A  
HETATM   14  C   UNL     1     -12.634  12.639  64.786  1.00  0.00    -0.530 A  
HETATM   15  C   UNL     1     -10.364  12.166  64.069  1.00  0.00    -0.412 A  
HETATM   16  N   UNL     1     -12.472  13.132  70.637  1.00  0.00    -0.321 NA 
HETATM   17  C   UNL     1     -11.689  12.466  63.762  1.00  0.00    -0.566 A  
ENDROOT
BRANCH   6  18
HETATM   18  C   UNL     1      -7.827  11.484  68.408  1.00  0.00    -0.136 C  
BRANCH  18  19
HETATM   19  C   UNL     1      -6.796  12.627  68.353  1.00  0.00    -0.090 C  
BRANCH  19  20
HETATM   20  N   UNL     1      -7.298  13.981  68.669  1.00  0.00    -0.115 NA 
HETATM   21  C   UNL     1      -6.678  14.558  69.861  1.00  0.00    -0.132 C  
HETATM   22  C   UNL     1      -7.046  14.857  67.516  1.00  0.00    -0.189 C  
ENDBRANCH  19  20
ENDBRANCH  18  19
ENDBRANCH   6  18
TORSDOF 3
ENDMDL
MODEL       49
REMARK 921   NORMALIZED FREE ENERGY PREDICTED BY IDOCK:   -5.19 KCAL/MOL
REMARK 922        TOTAL FREE ENERGY PREDICTED BY IDOCK:   -6.40 KCAL/MOL
REMARK 923 INTER-LIGAND FREE ENERGY PREDICTED BY IDOCK:   -6.06 KCAL/MOL
REMARK 924 INTRA-LIGAND FREE ENERGY PREDICTED BY IDOCK:   -0.35 KCAL/MOL
REMARK 927      BINDING AFFINITY PREDICTED BY RF-SCORE:    0.00 PKD
ROOT
HETATM    1  C   UNL     1     -10.284  15.781  65.110  1.00  0.00    -0.252 C  
HETATM    2  C   UNL     1     -10.599  16.207  66.565  1.00  0.00    -0.268 C  
HETATM    3  C   UNL     1     -10.288  17.692  66.802  1.00  0.00    -0.331 A  
HETATM    4  C   UNL     1     -10.023  15.216  67.562  1.00  0.00    -0.225 C  
HETATM    5  C   UNL     1      -9.796  18.176  68.013  1.00  0.00    -0.331 A  
HETATM    6  C   UNL     1     -10.664  14.396  68.432  1.00  0.00    -0.250 C  
HETATM    7  C   UNL     1      -9.617  19.550  68.181  1.00  0.00    -0.457 A  
HETATM    8  C   UNL     1      -9.716  13.470  69.172  1.00  0.00     0.364 C  
HETATM    9  C   UNL     1      -8.582  14.934  67.699  1.00  0.00    -0.181 A  
HETATM   10  C   UNL     1      -8.399  13.889  68.614  1.00  0.00    -0.088 A  
HETATM   11  C   UNL     1      -7.478  15.517  67.091  1.00  0.00    -0.244 A  
HETATM   12  C   UNL     1      -9.944  20.417  67.149  1.00  0.00    -0.568 A  
HETATM   13  C   UNL     1     -10.440  19.872  65.982  1.00  0.00    -0.475 A  
HETATM   14  C   UNL     1      -6.205  15.024  67.391  1.00  0.00     0.071 A  
HETATM   15  C   UNL     1      -7.143  13.383  68.914  1.00  0.00    -0.084 A  
HETATM   16  N   UNL     1     -10.627  18.547  65.798  1.00  0.00    -0.584 NA 
HETATM   17  C   UNL     1      -6.038  13.959  68.291  1.00  0.00    -0.112 A  
ENDROOT
BRANCH   6  18
HETATM   18  C   UNL     1     -12.134  14.269  68.745  1.00  0.00    -0.300 C  
BRANCH  18  19
HETATM   19  C   UNL     1     -12.374  14.140  70.261  1.00  0.00    -0.356 C  
BRANCH  19  20
HETATM   20  N   UNL     1     -12.696  15.389  70.984  1.00  0.00    -0.415 NA 
HETATM   21  C   UNL     1     -14.058  15.408  71.517  1.00  0.00    -0.491 C  
HETATM   22  C   UNL     1     -11.739  15.554  72.087  1.00  0.00    -0.476 C  
ENDBRANCH  19  20
ENDBRANCH  18  19
ENDBRANCH   6  18
TORSDOF 3
ENDMDL
MODEL       50
REMARK 921   NORMALIZED FREE ENERGY PREDICTED BY IDOCK:   -5.16 KCAL/MOL
REMARK 922        TOTAL FREE ENERGY PREDICTED BY IDOCK:   -6.37 KCAL/MOL
REMARK 923 INTER-LIGAND FREE ENERGY PREDICTED BY IDOCK:   -6.08 KCAL/MOL
REMARK 924 INTRA-LIGAND FREE ENERGY PREDICTED BY IDOCK:   -0.29 KCAL/MOL
REMARK 927      BINDING AFFINITY PREDICTED BY RF-SCORE:    0.00 PKD
ROOT
HETATM    1  C   UNL     1     -12.840   6.959  70.637  1.00  0.00     0.089 C  
HETATM    2  C   UNL     1     -11.352   7.386  70.703  1.00  0.00    -0.304 C  
HETATM    3  C   UNL     1     -10.753   7.142  72.095  1.00  0.00    -0.215 A  
HETATM    4  C   UNL     1     -11.152   8.767  70.100  1.00  0.00    -0.214 C  
HETATM    5  C   UNL     1      -9.801   7.986  72.666  1.00  0.00    -0.347 A  
HETATM    6  C   UNL     1     -10.456   9.133  68.996  1.00  0.00    -0.238 C  
HETATM    7  C   UNL     1      -9.241   7.653  73.900  1.00  0.00    -0.303 A  
HETATM    8  C   UNL     1     -10.607  10.609  68.670  1.00  0.00    -0.229 C  
HETATM    9  C   UNL     1     -11.780   9.991  70.630  1.00  0.00    -0.421 A  
HETATM   10  C   UNL     1     -11.493  11.066  69.778  1.00  0.00    -0.387 A  
HETATM   11  C   UNL     1     -12.553  10.202  71.765  1.00  0.00    -0.500 A  
HETATM   12  C   UNL     1      -9.626   6.481  74.536  1.00  0.00    -0.305 A  
HETATM   13  C   UNL     1     -10.560   5.684  73.908  1.00  0.00    -0.256 A  
HETATM   14  C   UNL     1     -13.050  11.484  72.014  1.00  0.00    -0.430 A  
HETATM   15  C   UNL     1     -11.988  12.341  70.007  1.00  0.00    -0.379 A  
HETATM   16  N   UNL     1     -11.113   5.982  72.712  1.00  0.00    -0.261 NA 
HETATM   17  C   UNL     1     -12.777  12.546  71.136  1.00  0.00    -0.340 A  
ENDROOT
BRANCH   6  18
HETATM   18  C   UNL     1      -9.596   8.309  68.070  1.00  0.00    -0.171 C  
BRANCH  18  19
HETATM   19  C   UNL     1      -9.970   8.552  66.596  1.00  0.00    -0.293 C  
BRANCH  19  20
HETATM   20  N   UNL     1      -8.943   9.205  65.756  1.00  0.00    -0.180 NA 
HETATM   21  C   UNL     1      -8.356   8.305  64.765  1.00  0.00    -0.119 C  
HETATM   22  C   UNL     1      -9.555  10.352  65.072  1.00  0.00    -0.280 C  
ENDBRANCH  19  20
ENDBRANCH  18  19
ENDBRANCH   6  18
TORSDOF 3
ENDMDL
MODEL       51
REMARK 921   NORMALIZED FREE ENERGY PREDICTED BY IDOCK:   -5.16 KCAL/MOL
REMARK 922        TOTAL FREE ENERGY PREDICTED BY IDOCK:   -6.36 KCAL/MOL
REMARK 923 INTER-LIGAND FREE ENERGY PREDICTED BY IDOCK:   -5.86 KCAL/MOL
REMARK 924 INTRA-LIGAND FREE ENERGY PREDICTED BY IDOCK:   -0.50 KCAL/MOL
REMARK 927      BINDING AFFINITY PREDICTED BY RF-SCORE:    0.00 PKD
ROOT
HETATM    1  C   UNL     1     -11.765   6.619  70.346  1.00  0.00    -0.446 C  
HETATM    2  C   UNL     1     -10.420   7.343  70.603  1.00  0.00    -0.224 C  
HETATM    3  C   UNL     1      -9.919   7.119  72.036  1.00  0.00    -0.162 A  
HETATM    4  C   UNL     1     -10.469   8.779  70.108  1.00  0.00    -0.230 C  
HETATM    5  C   UNL     1      -9.233   8.095  72.758  1.00  0.00    -0.341 A  
HETATM    6  C   UNL     1      -9.766   9.373  69.111  1.00  0.00    -0.165 C  
HETATM    7  C   UNL     1      -8.735   7.788  74.026  1.00  0.00    -0.316 A  
HETATM    8  C   UNL     1     -10.203  10.805  68.858  1.00  0.00    -0.219 C  
HETATM    9  C   UNL     1     -11.396   9.797  70.636  1.00  0.00    -0.401 A  
HETATM   10  C   UNL     1     -11.270  10.973  69.885  1.00  0.00    -0.327 A  
HETATM   11  C   UNL     1     -12.302   9.747  71.687  1.00  0.00    -0.495 A  
HETATM   12  C   UNL     1      -8.914   6.514  74.544  1.00  0.00    -0.197 A  
HETATM   13  C   UNL     1      -9.588   5.592  73.771  1.00  0.00    -0.142 A  
HETATM   14  C   UNL     1     -13.088  10.871  71.954  1.00  0.00    -0.537 A  
HETATM   15  C   UNL     1     -12.051  12.093  70.132  1.00  0.00    -0.368 A  
HETATM   16  N   UNL     1     -10.075   5.863  72.540  1.00  0.00    -0.177 NA 
HETATM   17  C   UNL     1     -12.970  12.034  71.176  1.00  0.00    -0.252 A  
ENDROOT
BRANCH   6  18
HETATM   18  C   UNL     1      -8.662   8.826  68.241  1.00  0.00    -0.135 C  
BRANCH  18  19
HETATM   19  C   UNL     1      -9.209   8.337  66.887  1.00  0.00    -0.158 C  
BRANCH  19  20
HETATM   20  N   UNL     1      -9.252   6.873  66.684  1.00  0.00    -0.153 NA 
HETATM   21  C   UNL     1      -8.353   6.144  67.578  1.00  0.00    -0.109 C  
HETATM   22  C   UNL     1     -10.630   6.410  66.895  1.00  0.00    -0.309 C  
ENDBRANCH  19  20
ENDBRANCH  18  19
ENDBRANCH   6  18
TORSDOF 3
ENDMDL
MODEL       52
REMARK 921   NORMALIZED FREE ENERGY PREDICTED BY IDOCK:   -5.13 KCAL/MOL
REMARK 922        TOTAL FREE ENERGY PREDICTED BY IDOCK:   -6.33 KCAL/MOL
REMARK 923 INTER-LIGAND FREE ENERGY PREDICTED BY IDOCK:   -5.89 KCAL/MOL
REMARK 924 INTRA-LIGAND FREE ENERGY PREDICTED BY IDOCK:   -0.44 KCAL/MOL
REMARK 927      BINDING AFFINITY PREDICTED BY RF-SCORE:    0.00 PKD
ROOT
HETATM    1  C   UNL     1     -10.589   9.207  67.047  1.00  0.00    -0.266 C  
HETATM    2  C   UNL     1      -9.555  10.167  67.686  1.00  0.00    -0.170 C  
HETATM    3  C   UNL     1      -8.494   9.404  68.492  1.00  0.00    -0.119 A  
HETATM    4  C   UNL     1     -10.244  11.329  68.381  1.00  0.00    -0.205 C  
HETATM    5  C   UNL     1      -7.930   9.907  69.663  1.00  0.00    -0.166 A  
HETATM    6  C   UNL     1     -10.209  12.653  68.089  1.00  0.00    -0.240 C  
HETATM    7  C   UNL     1      -6.910   9.193  70.296  1.00  0.00    -0.055 A  
HETATM    8  C   UNL     1     -11.140  13.472  68.966  1.00  0.00    -0.293 C  
HETATM    9  C   UNL     1     -11.165  11.172  69.522  1.00  0.00    -0.341 A  
HETATM   10  C   UNL     1     -11.719  12.418  69.846  1.00  0.00    -0.339 A  
HETATM   11  C   UNL     1     -11.526  10.049  70.255  1.00  0.00    -0.372 A  
HETATM   12  C   UNL     1      -6.461   8.002  69.744  1.00  0.00    -0.037 A  
HETATM   13  C   UNL     1      -7.052   7.570  68.575  1.00  0.00    -0.081 A  
HETATM   14  C   UNL     1     -12.459  10.186  71.285  1.00  0.00    -0.510 A  
HETATM   15  C   UNL     1     -12.654  12.568  70.859  1.00  0.00    -0.331 A  
HETATM   16  N   UNL     1      -8.037   8.245  67.942  1.00  0.00    -0.125 NA 
HETATM   17  C   UNL     1     -13.026  11.437  71.581  1.00  0.00    -0.523 A  
ENDROOT
BRANCH   6  18
HETATM   18  C   UNL     1      -9.418  13.397  67.042  1.00  0.00    -0.247 C  
BRANCH  18  19
HETATM   19  C   UNL     1     -10.301  13.779  65.840  1.00  0.00    -0.309 C  
BRANCH  19  20
HETATM   20  N   UNL     1     -11.171  12.713  65.298  1.00  0.00    -0.292 NA 
HETATM   21  C   UNL     1     -12.566  13.128  65.156  1.00  0.00    -0.465 C  
HETATM   22  C   UNL     1     -10.649  12.301  63.988  1.00  0.00    -0.400 C  
ENDBRANCH  19  20
ENDBRANCH  18  19
ENDBRANCH   6  18
TORSDOF 3
ENDMDL
MODEL       53
REMARK 921   NORMALIZED FREE ENERGY PREDICTED BY IDOCK:   -5.12 KCAL/MOL
REMARK 922        TOTAL FREE ENERGY PREDICTED BY IDOCK:   -6.32 KCAL/MOL
REMARK 923 INTER-LIGAND FREE ENERGY PREDICTED BY IDOCK:   -6.05 KCAL/MOL
REMARK 924 INTRA-LIGAND FREE ENERGY PREDICTED BY IDOCK:   -0.27 KCAL/MOL
REMARK 927      BINDING AFFINITY PREDICTED BY RF-SCORE:    0.00 PKD
ROOT
HETATM    1  C   UNL     1      -9.962   9.775  65.612  1.00  0.00    -0.352 C  
HETATM    2  C   UNL     1     -10.575  10.423  66.878  1.00  0.00    -0.293 C  
HETATM    3  C   UNL     1     -11.233  11.774  66.563  1.00  0.00    -0.321 A  
HETATM    4  C   UNL     1      -9.595  10.389  68.039  1.00  0.00    -0.156 C  
HETATM    5  C   UNL     1     -11.219  12.846  67.454  1.00  0.00    -0.331 A  
HETATM    6  C   UNL     1      -9.680   9.727  69.220  1.00  0.00    -0.204 C  
HETATM    7  C   UNL     1     -11.911  14.015  67.132  1.00  0.00    -0.465 A  
HETATM    8  C   UNL     1      -8.423   9.866  70.061  1.00  0.00    -0.191 C  
HETATM    9  C   UNL     1      -8.287  11.070  68.028  1.00  0.00    -0.125 A  
HETATM   10  C   UNL     1      -7.583  10.739  69.193  1.00  0.00    -0.133 A  
HETATM   11  C   UNL     1      -7.710  11.921  67.095  1.00  0.00    -0.163 A  
HETATM   12  C   UNL     1     -12.615  14.090  65.939  1.00  0.00    -0.484 A  
HETATM   13  C   UNL     1     -12.599  12.987  65.110  1.00  0.00    -0.469 A  
HETATM   14  C   UNL     1      -6.422  12.408  67.331  1.00  0.00    -0.154 A  
HETATM   15  C   UNL     1      -6.299  11.206  69.436  1.00  0.00    -0.088 A  
HETATM   16  N   UNL     1     -11.942  11.843  65.402  1.00  0.00    -0.340 NA 
HETATM   17  C   UNL     1      -5.717  12.047  68.491  1.00  0.00    -0.052 A  
ENDROOT
BRANCH   6  18
HETATM   18  C   UNL     1     -10.799   8.891  69.789  1.00  0.00    -0.207 C  
BRANCH  18  19
HETATM   19  C   UNL     1     -11.607   9.678  70.837  1.00  0.00    -0.344 C  
BRANCH  19  20
HETATM   20  N   UNL     1     -12.170   8.895  71.958  1.00  0.00    -0.361 NA 
HETATM   21  C   UNL     1     -13.521   9.314  72.329  1.00  0.00    -0.482 C  
HETATM   22  C   UNL     1     -12.186   7.475  71.578  1.00  0.00    -0.331 C  
ENDBRANCH  19  20
ENDBRANCH  18  19
ENDBRANCH   6  18
TORSDOF 3
ENDMDL
MODEL       54
REMARK 921   NORMALIZED FREE ENERGY PREDICTED BY IDOCK:   -5.12 KCAL/MOL
REMARK 922        TOTAL FREE ENERGY PREDICTED BY IDOCK:   -6.32 KCAL/MOL
REMARK 923 INTER-LIGAND FREE ENERGY PREDICTED BY IDOCK:   -5.94 KCAL/MOL
REMARK 924 INTRA-LIGAND FREE ENERGY PREDICTED BY IDOCK:   -0.37 KCAL/MOL
REMARK 927      BINDING AFFINITY PREDICTED BY RF-SCORE:    0.00 PKD
ROOT
HETATM    1  C   UNL     1      -8.248   9.060  70.739  1.00  0.00    -0.213 C  
HETATM    2  C   UNL     1      -9.164   8.224  69.810  1.00  0.00    -0.154 C  
HETATM    3  C   UNL     1      -9.170   8.773  68.376  1.00  0.00    -0.137 A  
HETATM    4  C   UNL     1     -10.516   7.975  70.457  1.00  0.00    -0.217 C  
HETATM    5  C   UNL     1     -10.302   8.747  67.563  1.00  0.00    -0.334 A  
HETATM    6  C   UNL     1     -11.079   6.807  70.857  1.00  0.00    -0.322 C  
HETATM    7  C   UNL     1     -10.208   9.187  66.241  1.00  0.00    -0.257 A  
HETATM    8  C   UNL     1     -12.404   7.009  71.570  1.00  0.00    -0.420 C  
HETATM    9  C   UNL     1     -11.459   9.047  70.827  1.00  0.00    -0.331 A  
HETATM   10  C   UNL     1     -12.549   8.491  71.509  1.00  0.00    -0.348 A  
HETATM   11  C   UNL     1     -11.412  10.418  70.608  1.00  0.00    -0.438 A  
HETATM   12  C   UNL     1      -8.988   9.629  65.750  1.00  0.00    -0.207 A  
HETATM   13  C   UNL     1      -7.905   9.614  66.604  1.00  0.00    -0.105 A  
HETATM   14  C   UNL     1     -12.448  11.216  71.101  1.00  0.00    -0.498 A  
HETATM   15  C   UNL     1     -13.579   9.272  72.013  1.00  0.00    -0.519 A  
HETATM   16  N   UNL     1      -7.970   9.188  67.884  1.00  0.00    -0.100 NA 
HETATM   17  C   UNL     1     -13.521  10.648  71.806  1.00  0.00    -0.325 A  
ENDROOT
BRANCH   6  18
HETATM   18  C   UNL     1     -10.584   5.390  70.712  1.00  0.00    -0.293 C  
BRANCH  18  19
HETATM   19  C   UNL     1      -9.925   4.893  72.012  1.00  0.00    -0.187 C  
BRANCH  19  20
HETATM   20  N   UNL     1      -9.569   5.927  73.007  1.00  0.00    -0.154 NA 
HETATM   21  C   UNL     1     -10.102   5.648  74.339  1.00  0.00    -0.273 C  
HETATM   22  C   UNL     1      -8.105   6.026  73.078  1.00  0.00    -0.113 C  
ENDBRANCH  19  20
ENDBRANCH  18  19
ENDBRANCH   6  18
TORSDOF 3
ENDMDL
MODEL       55
REMARK 921   NORMALIZED FREE ENERGY PREDICTED BY IDOCK:   -5.11 KCAL/MOL
REMARK 922        TOTAL FREE ENERGY PREDICTED BY IDOCK:   -6.30 KCAL/MOL
REMARK 923 INTER-LIGAND FREE ENERGY PREDICTED BY IDOCK:   -5.84 KCAL/MOL
REMARK 924 INTRA-LIGAND FREE ENERGY PREDICTED BY IDOCK:   -0.46 KCAL/MOL
REMARK 927      BINDING AFFINITY PREDICTED BY RF-SCORE:    0.00 PKD
ROOT
HETATM    1  C   UNL     1      -9.824   9.263  66.139  1.00  0.00    -0.363 C  
HETATM    2  C   UNL     1      -9.583  10.699  66.666  1.00  0.00    -0.209 C  
HETATM    3  C   UNL     1      -8.088  10.991  66.856  1.00  0.00    -0.142 A  
HETATM    4  C   UNL     1     -10.500  11.014  67.836  1.00  0.00    -0.223 C  
HETATM    5  C   UNL     1      -7.601  11.794  67.886  1.00  0.00    -0.121 A  
HETATM    6  C   UNL     1     -11.499  11.927  67.929  1.00  0.00    -0.385 C  
HETATM    7  C   UNL     1      -6.236  12.082  67.944  1.00  0.00    -0.073 A  
HETATM    8  C   UNL     1     -12.254  11.838  69.243  1.00  0.00    -0.202 C  
HETATM    9  C   UNL     1     -10.477  10.280  69.115  1.00  0.00    -0.246 A  
HETATM   10  C   UNL     1     -11.523  10.734  69.929  1.00  0.00    -0.398 A  
HETATM   11  C   UNL     1      -9.630   9.282  69.579  1.00  0.00    -0.178 A  
HETATM   12  C   UNL     1      -5.385  11.579  66.971  1.00  0.00    -0.103 A  
HETATM   13  C   UNL     1      -5.935  10.803  65.972  1.00  0.00    -0.138 A  
HETATM   14  C   UNL     1      -9.860   8.736  70.844  1.00  0.00    -0.278 A  
HETATM   15  C   UNL     1     -11.771  10.194  71.182  1.00  0.00    -0.453 A  
HETATM   16  N   UNL     1      -7.253  10.515  65.890  1.00  0.00    -0.135 NA 
HETATM   17  C   UNL     1     -10.929   9.182  71.638  1.00  0.00    -0.445 A  
ENDROOT
BRANCH   6  18
HETATM   18  C   UNL     1     -11.959  12.968  66.940  1.00  0.00    -0.415 C  
BRANCH  18  19
HETATM   19  C   UNL     1     -11.303  14.333  67.220  1.00  0.00    -0.334 C  
BRANCH  19  20
HETATM   20  N   UNL     1     -10.449  14.885  66.146  1.00  0.00    -0.294 NA 
HETATM   21  C   UNL     1      -9.055  15.055  66.554  1.00  0.00    -0.286 C  
HETATM   22  C   UNL     1     -10.511  13.986  64.986  1.00  0.00    -0.420 C  
ENDBRANCH  19  20
ENDBRANCH  18  19
ENDBRANCH   6  18
TORSDOF 3
ENDMDL
MODEL       56
REMARK 921   NORMALIZED FREE ENERGY PREDICTED BY IDOCK:   -5.11 KCAL/MOL
REMARK 922        TOTAL FREE ENERGY PREDICTED BY IDOCK:   -6.30 KCAL/MOL
REMARK 923 INTER-LIGAND FREE ENERGY PREDICTED BY IDOCK:   -6.65 KCAL/MOL
REMARK 924 INTRA-LIGAND FREE ENERGY PREDICTED BY IDOCK:    0.35 KCAL/MOL
REMARK 927      BINDING AFFINITY PREDICTED BY RF-SCORE:    0.00 PKD
ROOT
HETATM    1  C   UNL     1      -8.498  14.876  68.944  1.00  0.00    -0.174 C  
HETATM    2  C   UNL     1      -9.939  15.113  68.426  1.00  0.00    -0.222 C  
HETATM    3  C   UNL     1     -10.969  15.036  69.561  1.00  0.00    -0.269 A  
HETATM    4  C   UNL     1     -10.217  14.280  67.186  1.00  0.00    -0.254 C  
HETATM    5  C   UNL     1     -12.250  14.515  69.384  1.00  0.00    -0.285 A  
HETATM    6  C   UNL     1     -10.472  14.681  65.916  1.00  0.00    -0.325 C  
HETATM    7  C   UNL     1     -13.160  14.556  70.442  1.00  0.00    -0.133 A  
HETATM    8  C   UNL     1     -10.579  13.520  64.944  1.00  0.00    -0.409 C  
HETATM    9  C   UNL     1     -10.191  12.805  67.166  1.00  0.00    -0.235 A  
HETATM   10  C   UNL     1     -10.368  12.356  65.851  1.00  0.00    -0.282 A  
HETATM   11  C   UNL     1     -10.027  11.882  68.191  1.00  0.00    -0.197 A  
HETATM   12  C   UNL     1     -12.785  15.127  71.649  1.00  0.00    -0.429 A  
HETATM   13  C   UNL     1     -11.508  15.638  71.752  1.00  0.00    -0.423 A  
HETATM   14  C   UNL     1     -10.016  10.521  67.877  1.00  0.00    -0.193 A  
HETATM   15  C   UNL     1     -10.349  11.009  65.523  1.00  0.00    -0.321 A  
HETATM   16  N   UNL     1     -10.611  15.615  70.741  1.00  0.00    -0.161 NA 
HETATM   17  C   UNL     1     -10.168  10.086  66.550  1.00  0.00    -0.291 A  
ENDROOT
BRANCH   6  18
HETATM   18  C   UNL     1     -10.642  16.069  65.351  1.00  0.00    -0.428 C  
BRANCH  18  19
HETATM   19  C   UNL     1     -10.279  17.145  66.392  1.00  0.00    -0.328 C  
BRANCH  19  20
HETATM   20  N   UNL     1      -9.700  18.400  65.867  1.00  0.00    -0.494 NA 
HETATM   21  C   UNL     1     -10.526  19.574  66.149  1.00  0.00    -0.518 C  
HETATM   22  C   UNL     1      -8.368  18.587  66.458  1.00  0.00    -0.281 C  
ENDBRANCH  19  20
ENDBRANCH  18  19
ENDBRANCH   6  18
TORSDOF 3
ENDMDL
MODEL       57
REMARK 921   NORMALIZED FREE ENERGY PREDICTED BY IDOCK:   -5.05 KCAL/MOL
REMARK 922        TOTAL FREE ENERGY PREDICTED BY IDOCK:   -6.24 KCAL/MOL
REMARK 923 INTER-LIGAND FREE ENERGY PREDICTED BY IDOCK:   -5.98 KCAL/MOL
REMARK 924 INTRA-LIGAND FREE ENERGY PREDICTED BY IDOCK:   -0.26 KCAL/MOL
REMARK 927      BINDING AFFINITY PREDICTED BY RF-SCORE:    0.00 PKD
ROOT
HETATM    1  C   UNL     1      -8.241   9.926  70.105  1.00  0.00    -0.162 C  
HETATM    2  C   UNL     1      -9.658   9.536  69.618  1.00  0.00    -0.216 C  
HETATM    3  C   UNL     1     -10.292   8.465  70.517  1.00  0.00    -0.199 A  
HETATM    4  C   UNL     1      -9.669   9.271  68.122  1.00  0.00    -0.169 C  
HETATM    5  C   UNL     1     -11.127   7.463  70.025  1.00  0.00    -0.238 A  
HETATM    6  C   UNL     1     -10.304   9.945  67.131  1.00  0.00    -0.304 C  
HETATM    7  C   UNL     1     -11.734   6.576  70.916  1.00  0.00    -0.416 A  
HETATM    8  C   UNL     1      -9.956   9.422  65.748  1.00  0.00    -0.278 C  
HETATM    9  C   UNL     1      -8.887   8.203  67.472  1.00  0.00    -0.137 A  
HETATM   10  C   UNL     1      -9.024   8.308  66.082  1.00  0.00    -0.222 A  
HETATM   11  C   UNL     1      -8.099   7.193  68.010  1.00  0.00    -0.120 A  
HETATM   12  C   UNL     1     -11.512   6.711  72.279  1.00  0.00    -0.319 A  
HETATM   13  C   UNL     1     -10.688   7.735  72.699  1.00  0.00    -0.343 A  
HETATM   14  C   UNL     1      -7.438   6.319  67.144  1.00  0.00    -0.084 A  
HETATM   15  C   UNL     1      -8.365   7.454  65.209  1.00  0.00    -0.110 A  
HETATM   16  N   UNL     1     -10.093   8.608  71.857  1.00  0.00    -0.300 NA 
HETATM   17  C   UNL     1      -7.563   6.453  65.752  1.00  0.00    -0.085 A  
ENDROOT
BRANCH   6  18
HETATM   18  C   UNL     1     -11.260  11.109  67.205  1.00  0.00    -0.320 C  
BRANCH  18  19
HETATM   19  C   UNL     1     -11.130  12.020  65.970  1.00  0.00    -0.320 C  
BRANCH  19  20
HETATM   20  N   UNL     1     -12.393  12.481  65.355  1.00  0.00    -0.635 NA 
HETATM   21  C   UNL     1     -12.694  13.882  65.646  1.00  0.00    -0.495 C  
HETATM   22  C   UNL     1     -12.305  12.292  63.901  1.00  0.00    -0.509 C  
ENDBRANCH  19  20
ENDBRANCH  18  19
ENDBRANCH   6  18
TORSDOF 3
ENDMDL
MODEL       58
REMARK 921   NORMALIZED FREE ENERGY PREDICTED BY IDOCK:   -5.05 KCAL/MOL
REMARK 922        TOTAL FREE ENERGY PREDICTED BY IDOCK:   -6.23 KCAL/MOL
REMARK 923 INTER-LIGAND FREE ENERGY PREDICTED BY IDOCK:   -5.96 KCAL/MOL
REMARK 924 INTRA-LIGAND FREE ENERGY PREDICTED BY IDOCK:   -0.27 KCAL/MOL
REMARK 927      BINDING AFFINITY PREDICTED BY RF-SCORE:    0.00 PKD
ROOT
HETATM    1  C   UNL     1      -8.170   9.125  70.621  1.00  0.00    -0.220 C  
HETATM    2  C   UNL     1      -9.511   8.434  70.270  1.00  0.00    -0.168 C  
HETATM    3  C   UNL     1      -9.457   7.758  68.892  1.00  0.00    -0.150 A  
HETATM    4  C   UNL     1     -10.688   9.356  70.538  1.00  0.00    -0.335 C  
HETATM    5  C   UNL     1     -10.555   7.700  68.036  1.00  0.00    -0.213 A  
HETATM    6  C   UNL     1     -11.695   9.231  71.438  1.00  0.00    -0.431 C  
HETATM    7  C   UNL     1     -10.454   6.994  66.836  1.00  0.00    -0.356 A  
HETATM    8  C   UNL     1     -12.612  10.442  71.465  1.00  0.00    -0.544 C  
HETATM    9  C   UNL     1     -10.892  10.645  69.851  1.00  0.00    -0.301 A  
HETATM   10  C   UNL     1     -11.996  11.300  70.413  1.00  0.00    -0.471 A  
HETATM   11  C   UNL     1     -10.194  11.245  68.811  1.00  0.00    -0.215 A  
HETATM   12  C   UNL     1      -9.268   6.348  66.517  1.00  0.00    -0.174 A  
HETATM   13  C   UNL     1      -8.226   6.433  67.416  1.00  0.00    -0.116 A  
HETATM   14  C   UNL     1     -10.598  12.507  68.367  1.00  0.00    -0.256 A  
HETATM   15  C   UNL     1     -12.401  12.558  69.990  1.00  0.00    -0.154 A  
HETATM   16  N   UNL     1      -8.301   7.105  68.586  1.00  0.00    -0.125 NA 
HETATM   17  C   UNL     1     -11.690  13.163  68.958  1.00  0.00    -0.367 A  
ENDROOT
BRANCH   6  18
HETATM   18  C   UNL     1     -12.011   8.108  72.393  1.00  0.00    -0.431 C  
BRANCH  18  19
HETATM   19  C   UNL     1     -10.808   7.790  73.301  1.00  0.00    -0.250 C  
BRANCH  19  20
HETATM   20  N   UNL     1     -10.480   6.360  73.482  1.00  0.00    -0.260 NA 
HETATM   21  C   UNL     1     -11.243   5.480  72.597  1.00  0.00    -0.295 C  
HETATM   22  C   UNL     1      -9.044   6.172  73.238  1.00  0.00    -0.129 C  
ENDBRANCH  19  20
ENDBRANCH  18  19
ENDBRANCH   6  18
TORSDOF 3
ENDMDL
MODEL       59
REMARK 921   NORMALIZED FREE ENERGY PREDICTED BY IDOCK:   -5.02 KCAL/MOL
REMARK 922        TOTAL FREE ENERGY PREDICTED BY IDOCK:   -6.20 KCAL/MOL
REMARK 923 INTER-LIGAND FREE ENERGY PREDICTED BY IDOCK:   -5.95 KCAL/MOL
REMARK 924 INTRA-LIGAND FREE ENERGY PREDICTED BY IDOCK:   -0.25 KCAL/MOL
REMARK 927      BINDING AFFINITY PREDICTED BY RF-SCORE:    0.00 PKD
ROOT
HETATM    1  C   UNL     1     -11.858  11.422  68.978  1.00  0.00    -0.415 C  
HETATM    2  C   UNL     1     -10.604  12.241  68.582  1.00  0.00    -0.249 C  
HETATM    3  C   UNL     1     -10.791  13.738  68.866  1.00  0.00    -0.242 A  
HETATM    4  C   UNL     1     -10.119  11.859  67.194  1.00  0.00    -0.222 C  
HETATM    5  C   UNL     1     -10.251  14.733  68.054  1.00  0.00    -0.226 A  
HETATM    6  C   UNL     1      -8.957  11.267  66.818  1.00  0.00    -0.173 C  
HETATM    7  C   UNL     1     -10.392  16.073  68.424  1.00  0.00    -0.251 A  
HETATM    8  C   UNL     1      -8.914  10.951  65.333  1.00  0.00    -0.209 C  
HETATM    9  C   UNL     1     -10.920  12.035  65.968  1.00  0.00    -0.346 A  
HETATM   10  C   UNL     1     -10.234  11.474  64.882  1.00  0.00    -0.324 A  
HETATM   11  C   UNL     1     -12.158  12.630  65.765  1.00  0.00    -0.484 A  
HETATM   12  C   UNL     1     -11.053  16.394  69.600  1.00  0.00    -0.306 A  
HETATM   13  C   UNL     1     -11.549  15.359  70.365  1.00  0.00    -0.324 A  
HETATM   14  C   UNL     1     -12.704  12.631  64.479  1.00  0.00    -0.439 A  
HETATM   15  C   UNL     1     -10.769  11.457  63.602  1.00  0.00    -0.470 A  
HETATM   16  N   UNL     1     -11.421  14.056  70.031  1.00  0.00    -0.213 NA 
HETATM   17  C   UNL     1     -12.017  12.041  63.405  1.00  0.00    -0.571 A  
ENDROOT
BRANCH   6  18
HETATM   18  C   UNL     1      -7.754  10.878  67.640  1.00  0.00    -0.108 C  
BRANCH  18  19
HETATM   19  C   UNL     1      -6.451  11.394  67.002  1.00  0.00    -0.120 C  
BRANCH  19  20
HETATM   20  N   UNL     1      -5.560  10.374  66.409  1.00  0.00    -0.054 NA 
HETATM   21  C   UNL     1      -6.143   9.033  66.411  1.00  0.00    -0.063 C  
HETATM   22  C   UNL     1      -5.247  10.768  65.029  1.00  0.00    -0.139 C  
ENDBRANCH  19  20
ENDBRANCH  18  19
ENDBRANCH   6  18
TORSDOF 3
ENDMDL
MODEL       60
REMARK 921   NORMALIZED FREE ENERGY PREDICTED BY IDOCK:   -4.97 KCAL/MOL
REMARK 922        TOTAL FREE ENERGY PREDICTED BY IDOCK:   -6.14 KCAL/MOL
REMARK 923 INTER-LIGAND FREE ENERGY PREDICTED BY IDOCK:   -5.69 KCAL/MOL
REMARK 924 INTRA-LIGAND FREE ENERGY PREDICTED BY IDOCK:   -0.45 KCAL/MOL
REMARK 927      BINDING AFFINITY PREDICTED BY RF-SCORE:    0.00 PKD
ROOT
HETATM    1  C   UNL     1      -9.363  14.215  67.864  1.00  0.00    -0.204 C  
HETATM    2  C   UNL     1      -9.451  12.979  66.935  1.00  0.00    -0.242 C  
HETATM    3  C   UNL     1     -10.589  13.117  65.914  1.00  0.00    -0.280 A  
HETATM    4  C   UNL     1      -9.397  11.688  67.735  1.00  0.00    -0.178 C  
HETATM    5  C   UNL     1     -11.347  12.031  65.477  1.00  0.00    -0.381 A  
HETATM    6  C   UNL     1      -8.454  10.713  67.738  1.00  0.00    -0.116 C  
HETATM    7  C   UNL     1     -12.309  12.221  64.483  1.00  0.00    -0.468 A  
HETATM    8  C   UNL     1      -8.723   9.640  68.778  1.00  0.00    -0.126 C  
HETATM    9  C   UNL     1     -10.404  11.306  68.743  1.00  0.00    -0.223 A  
HETATM   10  C   UNL     1      -9.997  10.127  69.381  1.00  0.00    -0.247 A  
HETATM   11  C   UNL     1     -11.599  11.910  69.113  1.00  0.00    -0.373 A  
HETATM   12  C   UNL     1     -12.488  13.482  63.933  1.00  0.00    -0.295 A  
HETATM   13  C   UNL     1     -11.694  14.509  64.400  1.00  0.00    -0.367 A  
HETATM   14  C   UNL     1     -12.356  11.336  70.137  1.00  0.00    -0.354 A  
HETATM   15  C   UNL     1     -10.733   9.552  70.406  1.00  0.00    -0.341 A  
HETATM   16  N   UNL     1     -10.753  14.349  65.356  1.00  0.00    -0.326 NA 
HETATM   17  C   UNL     1     -11.922  10.168  70.786  1.00  0.00    -0.442 A  
ENDROOT
BRANCH   6  18
HETATM   18  C   UNL     1      -7.213  10.559  66.895  1.00  0.00    -0.106 C  
BRANCH  18  19
HETATM   19  C   UNL     1      -7.558  10.523  65.395  1.00  0.00    -0.097 C  
BRANCH  19  20
HETATM   20  N   UNL     1      -8.545   9.508  64.970  1.00  0.00    -0.155 NA 
HETATM   21  C   UNL     1      -9.043   9.726  63.612  1.00  0.00    -0.232 C  
HETATM   22  C   UNL     1      -7.921   8.181  65.053  1.00  0.00    -0.139 C  
ENDBRANCH  19  20
ENDBRANCH  18  19
ENDBRANCH   6  18
TORSDOF 3
ENDMDL
MODEL       61
REMARK 921   NORMALIZED FREE ENERGY PREDICTED BY IDOCK:   -4.94 KCAL/MOL
REMARK 922        TOTAL FREE ENERGY PREDICTED BY IDOCK:   -6.11 KCAL/MOL
REMARK 923 INTER-LIGAND FREE ENERGY PREDICTED BY IDOCK:   -5.79 KCAL/MOL
REMARK 924 INTRA-LIGAND FREE ENERGY PREDICTED BY IDOCK:   -0.32 KCAL/MOL
REMARK 927      BINDING AFFINITY PREDICTED BY RF-SCORE:    0.00 PKD
ROOT
HETATM    1  C   UNL     1      -8.351  10.166  69.921  1.00  0.00    -0.110 C  
HETATM    2  C   UNL     1      -9.269   9.667  68.777  1.00  0.00    -0.141 C  
HETATM    3  C   UNL     1      -9.897  10.835  68.004  1.00  0.00    -0.165 A  
HETATM    4  C   UNL     1     -10.212   8.581  69.267  1.00  0.00    -0.211 C  
HETATM    5  C   UNL     1     -11.186  10.784  67.474  1.00  0.00    -0.346 A  
HETATM    6  C   UNL     1     -10.280   7.273  68.913  1.00  0.00    -0.196 C  
HETATM    7  C   UNL     1     -11.657  11.853  66.710  1.00  0.00    -0.341 A  
HETATM    8  C   UNL     1     -11.295   6.496  69.732  1.00  0.00    -0.456 C  
HETATM    9  C   UNL     1     -11.225   8.787  70.319  1.00  0.00    -0.212 A  
HETATM   10  C   UNL     1     -11.837   7.563  70.619  1.00  0.00    -0.205 A  
HETATM   11  C   UNL     1     -11.617   9.935  70.995  1.00  0.00    -0.470 A  
HETATM   12  C   UNL     1     -10.834  12.945  66.475  1.00  0.00    -0.290 A  
HETATM   13  C   UNL     1      -9.565  12.924  67.015  1.00  0.00    -0.231 A  
HETATM   14  C   UNL     1     -12.601   9.835  71.981  1.00  0.00    -0.432 A  
HETATM   15  C   UNL     1     -12.808   7.446  71.604  1.00  0.00    -0.406 A  
HETATM   16  N   UNL     1      -9.084  11.899  67.753  1.00  0.00    -0.174 NA 
HETATM   17  C   UNL     1     -13.187   8.596  72.290  1.00  0.00    -0.410 A  
ENDROOT
BRANCH   6  18
HETATM   18  C   UNL     1      -9.506   6.507  67.869  1.00  0.00    -0.120 C  
BRANCH  18  19
HETATM   19  C   UNL     1     -10.435   5.977  66.761  1.00  0.00    -0.267 C  
BRANCH  19  20
HETATM   20  N   UNL     1     -10.378   4.524  66.494  1.00  0.00    -0.198 NA 
HETATM   21  C   UNL     1      -9.996   4.210  65.118  1.00  0.00    -0.210 C  
HETATM   22  C   UNL     1      -9.413   3.913  67.419  1.00  0.00    -0.195 C  
ENDBRANCH  19  20
ENDBRANCH  18  19
ENDBRANCH   6  18
TORSDOF 3
ENDMDL
MODEL       62
REMARK 921   NORMALIZED FREE ENERGY PREDICTED BY IDOCK:   -4.86 KCAL/MOL
REMARK 922        TOTAL FREE ENERGY PREDICTED BY IDOCK:   -6.01 KCAL/MOL
REMARK 923 INTER-LIGAND FREE ENERGY PREDICTED BY IDOCK:   -5.93 KCAL/MOL
REMARK 924 INTRA-LIGAND FREE ENERGY PREDICTED BY IDOCK:   -0.07 KCAL/MOL
REMARK 927      BINDING AFFINITY PREDICTED BY RF-SCORE:    0.00 PKD
ROOT
HETATM    1  C   UNL     1     -10.945   5.990  68.676  1.00  0.00    -0.361 C  
HETATM    2  C   UNL     1     -10.130   6.330  69.949  1.00  0.00    -0.216 C  
HETATM    3  C   UNL     1      -9.999   5.117  70.880  1.00  0.00    -0.210 A  
HETATM    4  C   UNL     1     -10.611   7.629  70.574  1.00  0.00    -0.229 C  
HETATM    5  C   UNL     1      -9.990   5.229  72.270  1.00  0.00    -0.222 A  
HETATM    6  C   UNL     1      -9.959   8.809  70.721  1.00  0.00    -0.263 C  
HETATM    7  C   UNL     1      -9.783   4.090  73.049  1.00  0.00    -0.170 A  
HETATM    8  C   UNL     1     -10.844   9.901  71.297  1.00  0.00    -0.144 C  
HETATM    9  C   UNL     1     -11.975   7.831  71.098  1.00  0.00    -0.312 A  
HETATM   10  C   UNL     1     -12.127   9.168  71.490  1.00  0.00    -0.422 A  
HETATM   11  C   UNL     1     -13.037   6.949  71.240  1.00  0.00    -0.273 A  
HETATM   12  C   UNL     1      -9.574   2.865  72.433  1.00  0.00    -0.192 A  
HETATM   13  C   UNL     1      -9.579   2.827  71.054  1.00  0.00    -0.145 A  
HETATM   14  C   UNL     1     -14.248   7.426  71.749  1.00  0.00    -0.544 A  
HETATM   15  C   UNL     1     -13.326   9.658  71.987  1.00  0.00    -0.547 A  
HETATM   16  N   UNL     1      -9.773   3.916  70.278  1.00  0.00    -0.200 NA 
HETATM   17  C   UNL     1     -14.394   8.774  72.113  1.00  0.00    -0.481 A  
ENDROOT
BRANCH   6  18
HETATM   18  C   UNL     1      -8.535   9.181  70.391  1.00  0.00    -0.222 C  
BRANCH  18  19
HETATM   19  C   UNL     1      -7.538   8.441  71.301  1.00  0.00    -0.092 C  
BRANCH  19  20
HETATM   20  N   UNL     1      -7.558   8.808  72.734  1.00  0.00    -0.366 NA 
HETATM   21  C   UNL     1      -8.507   8.015  73.515  1.00  0.00    -0.245 C  
HETATM   22  C   UNL     1      -6.207   8.631  73.283  1.00  0.00    -0.077 C  
ENDBRANCH  19  20
ENDBRANCH  18  19
ENDBRANCH   6  18
TORSDOF 3
ENDMDL
MODEL       63
REMARK 921   NORMALIZED FREE ENERGY PREDICTED BY IDOCK:   -4.85 KCAL/MOL
REMARK 922        TOTAL FREE ENERGY PREDICTED BY IDOCK:   -6.00 KCAL/MOL
REMARK 923 INTER-LIGAND FREE ENERGY PREDICTED BY IDOCK:   -5.71 KCAL/MOL
REMARK 924 INTRA-LIGAND FREE ENERGY PREDICTED BY IDOCK:   -0.29 KCAL/MOL
REMARK 927      BINDING AFFINITY PREDICTED BY RF-SCORE:    0.00 PKD
ROOT
HETATM    1  C   UNL     1     -11.886  12.537  68.393  1.00  0.00    -0.353 C  
HETATM    2  C   UNL     1     -10.710  12.623  67.388  1.00  0.00    -0.251 C  
HETATM    3  C   UNL     1     -11.158  12.282  65.960  1.00  0.00    -0.309 A  
HETATM    4  C   UNL     1      -9.485  11.896  67.917  1.00  0.00    -0.194 C  
HETATM    5  C   UNL     1     -10.341  11.609  65.053  1.00  0.00    -0.329 A  
HETATM    6  C   UNL     1      -8.271  12.391  68.266  1.00  0.00    -0.170 C  
HETATM    7  C   UNL     1     -10.787  11.409  63.745  1.00  0.00    -0.468 A  
HETATM    8  C   UNL     1      -7.358  11.336  68.864  1.00  0.00    -0.115 C  
HETATM    9  C   UNL     1      -9.452  10.450  68.207  1.00  0.00    -0.153 A  
HETATM   10  C   UNL     1      -8.222  10.123  68.793  1.00  0.00    -0.113 A  
HETATM   11  C   UNL     1     -10.397   9.456  67.995  1.00  0.00    -0.267 A  
HETATM   12  C   UNL     1     -12.028  11.896  63.360  1.00  0.00    -0.528 A  
HETATM   13  C   UNL     1     -12.778  12.566  64.303  1.00  0.00    -0.341 A  
HETATM   14  C   UNL     1     -10.106   8.150  68.400  1.00  0.00    -0.226 A  
HETATM   15  C   UNL     1      -7.923   8.834  69.209  1.00  0.00    -0.108 A  
HETATM   16  N   UNL     1     -12.367  12.777  65.573  1.00  0.00    -0.582 NA 
HETATM   17  C   UNL     1      -8.879   7.842  69.010  1.00  0.00    -0.145 A  
ENDROOT
BRANCH   6  18
HETATM   18  C   UNL     1      -7.727  13.793  68.161  1.00  0.00    -0.140 C  
BRANCH  18  19
HETATM   19  C   UNL     1      -8.669  14.810  68.832  1.00  0.00    -0.161 C  
BRANCH  19  20
HETATM   20  N   UNL     1      -9.080  15.968  68.011  1.00  0.00    -0.188 NA 
HETATM   21  C   UNL     1      -8.808  15.786  66.586  1.00  0.00    -0.288 C  
HETATM   22  C   UNL     1     -10.518  16.197  68.207  1.00  0.00    -0.276 C  
ENDBRANCH  19  20
ENDBRANCH  18  19
ENDBRANCH   6  18
TORSDOF 3
ENDMDL
MODEL       64
REMARK 921   NORMALIZED FREE ENERGY PREDICTED BY IDOCK:   -4.82 KCAL/MOL
REMARK 922        TOTAL FREE ENERGY PREDICTED BY IDOCK:   -5.96 KCAL/MOL
REMARK 923 INTER-LIGAND FREE ENERGY PREDICTED BY IDOCK:   -5.66 KCAL/MOL
REMARK 924 INTRA-LIGAND FREE ENERGY PREDICTED BY IDOCK:   -0.31 KCAL/MOL
REMARK 927      BINDING AFFINITY PREDICTED BY RF-SCORE:    0.00 PKD
ROOT
HETATM    1  C   UNL     1     -10.561   8.865  67.286  1.00  0.00    -0.304 C  
HETATM    2  C   UNL     1      -9.789  10.021  67.969  1.00  0.00    -0.164 C  
HETATM    3  C   UNL     1      -8.458   9.541  68.564  1.00  0.00    -0.119 A  
HETATM    4  C   UNL     1     -10.701  10.823  68.883  1.00  0.00    -0.259 C  
HETATM    5  C   UNL     1      -7.928  10.059  69.744  1.00  0.00    -0.190 A  
HETATM    6  C   UNL     1     -11.100  12.116  68.785  1.00  0.00    -0.297 C  
HETATM    7  C   UNL     1      -6.671   9.632  70.178  1.00  0.00    -0.089 A  
HETATM    8  C   UNL     1     -12.116  12.498  69.847  1.00  0.00    -0.322 C  
HETATM    9  C   UNL     1     -11.383  10.258  70.061  1.00  0.00    -0.370 A  
HETATM   10  C   UNL     1     -12.239  11.223  70.609  1.00  0.00    -0.489 A  
HETATM   11  C   UNL     1     -11.299   9.002  70.649  1.00  0.00    -0.311 A  
HETATM   12  C   UNL     1      -5.960   8.712  69.422  1.00  0.00    -0.040 A  
HETATM   13  C   UNL     1      -6.536   8.252  68.256  1.00  0.00    -0.059 A  
HETATM   14  C   UNL     1     -12.094   8.724  71.764  1.00  0.00    -0.418 A  
HETATM   15  C   UNL     1     -13.042  10.957  71.708  1.00  0.00    -0.564 A  
HETATM   16  N   UNL     1      -7.747   8.653  67.813  1.00  0.00    -0.101 NA 
HETATM   17  C   UNL     1     -12.967   9.692  72.286  1.00  0.00    -0.440 A  
ENDROOT
BRANCH   6  18
HETATM   18  C   UNL     1     -10.704  13.183  67.796  1.00  0.00    -0.252 C  
BRANCH  18  19
HETATM   19  C   UNL     1      -9.200  13.500  67.888  1.00  0.00    -0.211 C  
BRANCH  19  20
HETATM   20  N   UNL     1      -8.828  14.931  67.910  1.00  0.00    -0.162 NA 
HETATM   21  C   UNL     1      -9.294  15.662  66.732  1.00  0.00    -0.246 C  
HETATM   22  C   UNL     1      -9.393  15.544  69.119  1.00  0.00    -0.250 C  
ENDBRANCH  19  20
ENDBRANCH  18  19
ENDBRANCH   6  18
TORSDOF 3
ENDMDL
MODEL       65
REMARK 921   NORMALIZED FREE ENERGY PREDICTED BY IDOCK:   -4.78 KCAL/MOL
REMARK 922        TOTAL FREE ENERGY PREDICTED BY IDOCK:   -5.92 KCAL/MOL
REMARK 923 INTER-LIGAND FREE ENERGY PREDICTED BY IDOCK:   -5.49 KCAL/MOL
REMARK 924 INTRA-LIGAND FREE ENERGY PREDICTED BY IDOCK:   -0.43 KCAL/MOL
REMARK 927      BINDING AFFINITY PREDICTED BY RF-SCORE:    0.00 PKD
ROOT
HETATM    1  C   UNL     1     -10.736   5.736  68.809  1.00  0.00    -0.318 C  
HETATM    2  C   UNL     1      -9.943   6.300  70.014  1.00  0.00    -0.208 C  
HETATM    3  C   UNL     1      -9.692   5.226  71.081  1.00  0.00    -0.174 A  
HETATM    4  C   UNL     1     -10.533   7.617  70.488  1.00  0.00    -0.221 C  
HETATM    5  C   UNL     1      -9.679   5.507  72.447  1.00  0.00    -0.177 A  
HETATM    6  C   UNL     1      -9.990   8.860  70.478  1.00  0.00    -0.243 C  
HETATM    7  C   UNL     1      -9.360   4.494  73.353  1.00  0.00    -0.125 A  
HETATM    8  C   UNL     1     -10.965   9.930  70.937  1.00  0.00    -0.392 C  
HETATM    9  C   UNL     1     -11.904   7.759  71.013  1.00  0.00    -0.290 A  
HETATM   10  C   UNL     1     -12.174   9.115  71.244  1.00  0.00    -0.395 A  
HETATM   11  C   UNL     1     -12.880   6.809  71.283  1.00  0.00    -0.260 A  
HETATM   12  C   UNL     1      -9.046   3.227  72.884  1.00  0.00    -0.109 A  
HETATM   13  C   UNL     1      -9.063   3.021  71.520  1.00  0.00    -0.103 A  
HETATM   14  C   UNL     1     -14.124   7.235  71.757  1.00  0.00    -0.485 A  
HETATM   15  C   UNL     1     -13.408   9.553  71.704  1.00  0.00    -0.485 A  
HETATM   16  N   UNL     1      -9.363   3.986  70.623  1.00  0.00    -0.131 NA 
HETATM   17  C   UNL     1     -14.389   8.599  71.959  1.00  0.00    -0.512 A  
ENDROOT
BRANCH   6  18
HETATM   18  C   UNL     1      -8.610   9.315  70.075  1.00  0.00    -0.193 C  
BRANCH  18  19
HETATM   19  C   UNL     1      -8.413   9.220  68.550  1.00  0.00    -0.123 C  
BRANCH  19  20
HETATM   20  N   UNL     1      -9.489   9.791  67.711  1.00  0.00    -0.133 NA 
HETATM   21  C   UNL     1      -9.187  11.139  67.232  1.00  0.00    -0.160 C  
HETATM   22  C   UNL     1      -9.710   8.903  66.562  1.00  0.00    -0.254 C  
ENDBRANCH  19  20
ENDBRANCH  18  19
ENDBRANCH   6  18
TORSDOF 3
ENDMDL
MODEL       66
REMARK 921   NORMALIZED FREE ENERGY PREDICTED BY IDOCK:   -4.75 KCAL/MOL
REMARK 922        TOTAL FREE ENERGY PREDICTED BY IDOCK:   -5.89 KCAL/MOL
REMARK 923 INTER-LIGAND FREE ENERGY PREDICTED BY IDOCK:   -5.43 KCAL/MOL
REMARK 924 INTRA-LIGAND FREE ENERGY PREDICTED BY IDOCK:   -0.46 KCAL/MOL
REMARK 927      BINDING AFFINITY PREDICTED BY RF-SCORE:    0.00 PKD
ROOT
HETATM    1  C   UNL     1      -8.161   9.781  70.176  1.00  0.00    -0.202 C  
HETATM    2  C   UNL     1      -8.971   9.300  68.946  1.00  0.00    -0.136 C  
HETATM    3  C   UNL     1      -9.464  10.478  68.095  1.00  0.00    -0.151 A  
HETATM    4  C   UNL     1     -10.004   8.259  69.345  1.00  0.00    -0.188 C  
HETATM    5  C   UNL     1     -10.689  10.469  67.431  1.00  0.00    -0.334 A  
HETATM    6  C   UNL     1     -10.087   6.950  69.001  1.00  0.00    -0.175 C  
HETATM    7  C   UNL     1     -11.032  11.543  66.607  1.00  0.00    -0.349 A  
HETATM    8  C   UNL     1     -11.215   6.226  69.715  1.00  0.00    -0.499 C  
HETATM    9  C   UNL     1     -11.114   8.523  70.279  1.00  0.00    -0.222 A  
HETATM   10  C   UNL     1     -11.805   7.329  70.526  1.00  0.00    -0.237 A  
HETATM   11  C   UNL     1     -11.530   9.696  70.894  1.00  0.00    -0.427 A  
HETATM   12  C   UNL     1     -10.144  12.598  66.449  1.00  0.00    -0.263 A  
HETATM   13  C   UNL     1      -8.942  12.536  67.123  1.00  0.00    -0.200 A  
HETATM   14  C   UNL     1     -12.617   9.651  71.770  1.00  0.00    -0.497 A  
HETATM   15  C   UNL     1     -12.879   7.266  71.401  1.00  0.00    -0.425 A  
HETATM   16  N   UNL     1      -8.586  11.505  67.921  1.00  0.00    -0.137 NA 
HETATM   17  C   UNL     1     -13.283   8.442  72.029  1.00  0.00    -0.372 A  
ENDROOT
BRANCH   6  18
HETATM   18  C   UNL     1      -9.237   6.137  68.056  1.00  0.00    -0.116 C  
BRANCH  18  19
HETATM   19  C   UNL     1      -9.370   6.644  66.608  1.00  0.00    -0.163 C  
BRANCH  19  20
HETATM   20  N   UNL     1      -8.175   7.290  66.025  1.00  0.00    -0.130 NA 
HETATM   21  C   UNL     1      -7.316   6.356  65.298  1.00  0.00    -0.077 C  
HETATM   22  C   UNL     1      -8.613   8.358  65.117  1.00  0.00    -0.132 C  
ENDBRANCH  19  20
ENDBRANCH  18  19
ENDBRANCH   6  18
TORSDOF 3
ENDMDL
MODEL       67
REMARK 921   NORMALIZED FREE ENERGY PREDICTED BY IDOCK:   -4.70 KCAL/MOL
REMARK 922        TOTAL FREE ENERGY PREDICTED BY IDOCK:   -5.82 KCAL/MOL
REMARK 923 INTER-LIGAND FREE ENERGY PREDICTED BY IDOCK:   -5.47 KCAL/MOL
REMARK 924 INTRA-LIGAND FREE ENERGY PREDICTED BY IDOCK:   -0.36 KCAL/MOL
REMARK 927      BINDING AFFINITY PREDICTED BY RF-SCORE:    0.00 PKD
ROOT
HETATM    1  C   UNL     1      -8.727   9.583  70.089  1.00  0.00    -0.258 C  
HETATM    2  C   UNL     1      -9.992   8.703  70.248  1.00  0.00    -0.204 C  
HETATM    3  C   UNL     1     -11.145   9.480  70.899  1.00  0.00    -0.336 A  
HETATM    4  C   UNL     1      -9.645   7.353  70.852  1.00  0.00    -0.166 C  
HETATM    5  C   UNL     1     -12.057   8.888  71.771  1.00  0.00    -0.432 A  
HETATM    6  C   UNL     1      -9.738   6.114  70.307  1.00  0.00    -0.195 C  
HETATM    7  C   UNL     1     -13.130   9.638  72.256  1.00  0.00    -0.468 A  
HETATM    8  C   UNL     1      -9.174   5.032  71.210  1.00  0.00    -0.186 C  
HETATM    9  C   UNL     1      -9.059   7.181  72.195  1.00  0.00    -0.143 A  
HETATM   10  C   UNL     1      -8.750   5.829  72.396  1.00  0.00    -0.128 A  
HETATM   11  C   UNL     1      -8.795   8.102  73.199  1.00  0.00    -0.325 A  
HETATM   12  C   UNL     1     -13.283  10.957  71.854  1.00  0.00    -0.508 A  
HETATM   13  C   UNL     1     -12.353  11.476  70.978  1.00  0.00    -0.329 A  
HETATM   14  C   UNL     1      -8.199   7.659  74.383  1.00  0.00    -0.269 A  
HETATM   15  C   UNL     1      -8.148   5.376  73.560  1.00  0.00    -0.113 A  
HETATM   16  N   UNL     1     -11.310  10.769  70.490  1.00  0.00    -0.279 NA 
HETATM   17  C   UNL     1      -7.869   6.305  74.559  1.00  0.00    -0.102 A  
ENDROOT
BRANCH   6  18
HETATM   18  C   UNL     1     -10.287   5.679  68.971  1.00  0.00    -0.314 C  
BRANCH  18  19
HETATM   19  C   UNL     1      -9.226   5.804  67.863  1.00  0.00    -0.108 C  
BRANCH  19  20
HETATM   20  N   UNL     1      -9.632   6.533  66.642  1.00  0.00    -0.162 NA 
HETATM   21  C   UNL     1     -10.636   7.565  66.898  1.00  0.00    -0.297 C  
HETATM   22  C   UNL     1      -8.440   7.149  66.044  1.00  0.00    -0.145 C  
ENDBRANCH  19  20
ENDBRANCH  18  19
ENDBRANCH   6  18
TORSDOF 3
ENDMDL
MODEL       68
REMARK 921   NORMALIZED FREE ENERGY PREDICTED BY IDOCK:   -4.66 KCAL/MOL
REMARK 922        TOTAL FREE ENERGY PREDICTED BY IDOCK:   -5.78 KCAL/MOL
REMARK 923 INTER-LIGAND FREE ENERGY PREDICTED BY IDOCK:   -5.40 KCAL/MOL
REMARK 924 INTRA-LIGAND FREE ENERGY PREDICTED BY IDOCK:   -0.37 KCAL/MOL
REMARK 927      BINDING AFFINITY PREDICTED BY RF-SCORE:    0.00 PKD
ROOT
HETATM    1  C   UNL     1     -11.791   6.295  71.657  1.00  0.00    -0.315 C  
HETATM    2  C   UNL     1     -10.675   7.348  71.444  1.00  0.00    -0.239 C  
HETATM    3  C   UNL     1     -11.255   8.739  71.152  1.00  0.00    -0.277 A  
HETATM    4  C   UNL     1      -9.612   6.832  70.489  1.00  0.00    -0.174 C  
HETATM    5  C   UNL     1     -10.649   9.643  70.282  1.00  0.00    -0.333 A  
HETATM    6  C   UNL     1      -8.304   6.556  70.720  1.00  0.00    -0.130 C  
HETATM    7  C   UNL     1     -11.190  10.921  70.132  1.00  0.00    -0.317 A  
HETATM    8  C   UNL     1      -7.612   5.943  69.516  1.00  0.00    -0.088 C  
HETATM    9  C   UNL     1      -9.877   6.473  69.083  1.00  0.00    -0.156 A  
HETATM   10  C   UNL     1      -8.720   5.920  68.519  1.00  0.00    -0.112 A  
HETATM   11  C   UNL     1     -11.025   6.598  68.311  1.00  0.00    -0.321 A  
HETATM   12  C   UNL     1     -12.314  11.281  70.862  1.00  0.00    -0.490 A  
HETATM   13  C   UNL     1     -12.855  10.343  71.717  1.00  0.00    -0.456 A  
HETATM   14  C   UNL     1     -11.003   6.141  66.991  1.00  0.00    -0.414 A  
HETATM   15  C   UNL     1      -8.687   5.452  67.214  1.00  0.00    -0.107 A  
HETATM   16  N   UNL     1     -12.346   9.102  71.883  1.00  0.00    -0.366 NA 
HETATM   17  C   UNL     1      -9.844   5.564  66.447  1.00  0.00    -0.192 A  
ENDROOT
BRANCH   6  18
HETATM   18  C   UNL     1      -7.475   6.751  71.965  1.00  0.00    -0.093 C  
BRANCH  18  19
HETATM   19  C   UNL     1      -7.237   8.246  72.250  1.00  0.00    -0.100 C  
BRANCH  19  20
HETATM   20  N   UNL     1      -7.444   8.691  73.645  1.00  0.00    -0.384 NA 
HETATM   21  C   UNL     1      -8.301   7.789  74.413  1.00  0.00    -0.224 C  
HETATM   22  C   UNL     1      -6.135   8.798  74.303  1.00  0.00    -0.116 C  
ENDBRANCH  19  20
ENDBRANCH  18  19
ENDBRANCH   6  18
TORSDOF 3
ENDMDL
MODEL       69
REMARK 921   NORMALIZED FREE ENERGY PREDICTED BY IDOCK:   -4.64 KCAL/MOL
REMARK 922        TOTAL FREE ENERGY PREDICTED BY IDOCK:   -5.75 KCAL/MOL
REMARK 923 INTER-LIGAND FREE ENERGY PREDICTED BY IDOCK:   -5.43 KCAL/MOL
REMARK 924 INTRA-LIGAND FREE ENERGY PREDICTED BY IDOCK:   -0.32 KCAL/MOL
REMARK 927      BINDING AFFINITY PREDICTED BY RF-SCORE:    0.00 PKD
ROOT
HETATM    1  C   UNL     1      -7.327   6.605  71.169  1.00  0.00    -0.079 C  
HETATM    2  C   UNL     1      -8.829   6.878  71.431  1.00  0.00    -0.133 C  
HETATM    3  C   UNL     1      -9.435   5.843  72.390  1.00  0.00    -0.146 A  
HETATM    4  C   UNL     1      -9.574   7.130  70.131  1.00  0.00    -0.168 C  
HETATM    5  C   UNL     1     -10.746   5.384  72.274  1.00  0.00    -0.287 A  
HETATM    6  C   UNL     1     -10.191   8.256  69.694  1.00  0.00    -0.209 C  
HETATM    7  C   UNL     1     -11.253   4.506  73.234  1.00  0.00    -0.388 A  
HETATM    8  C   UNL     1     -10.717   8.124  68.276  1.00  0.00    -0.073 C  
HETATM    9  C   UNL     1      -9.693   6.135  69.048  1.00  0.00    -0.157 A  
HETATM   10  C   UNL     1     -10.331   6.723  67.947  1.00  0.00    -0.236 A  
HETATM   11  C   UNL     1      -9.290   4.808  68.981  1.00  0.00    -0.193 A  
HETATM   12  C   UNL     1     -10.453   4.113  74.297  1.00  0.00    -0.295 A  
HETATM   13  C   UNL     1      -9.170   4.618  74.360  1.00  0.00    -0.113 A  
HETATM   14  C   UNL     1      -9.509   4.095  67.799  1.00  0.00    -0.225 A  
HETATM   15  C   UNL     1     -10.545   6.031  66.764  1.00  0.00    -0.359 A  
HETATM   16  N   UNL     1      -8.659   5.472  73.446  1.00  0.00    -0.116 NA 
HETATM   17  C   UNL     1     -10.125   4.705  66.694  1.00  0.00    -0.263 A  
ENDROOT
BRANCH   6  18
HETATM   18  C   UNL     1     -10.406   9.578  70.388  1.00  0.00    -0.334 C  
BRANCH  18  19
HETATM   19  C   UNL     1     -11.386   9.437  71.567  1.00  0.00    -0.394 C  
BRANCH  19  20
HETATM   20  N   UNL     1     -12.800   9.774  71.292  1.00  0.00    -0.357 NA 
HETATM   21  C   UNL     1     -13.741   8.970  72.070  1.00  0.00    -0.461 C  
HETATM   22  C   UNL     1     -13.011  11.197  71.589  1.00  0.00    -0.443 C  
ENDBRANCH  19  20
ENDBRANCH  18  19
ENDBRANCH   6  18
TORSDOF 3
ENDMDL
MODEL       70
REMARK 921   NORMALIZED FREE ENERGY PREDICTED BY IDOCK:   -4.63 KCAL/MOL
REMARK 922        TOTAL FREE ENERGY PREDICTED BY IDOCK:   -5.75 KCAL/MOL
REMARK 923 INTER-LIGAND FREE ENERGY PREDICTED BY IDOCK:   -5.46 KCAL/MOL
REMARK 924 INTRA-LIGAND FREE ENERGY PREDICTED BY IDOCK:   -0.29 KCAL/MOL
REMARK 927      BINDING AFFINITY PREDICTED BY RF-SCORE:    0.00 PKD
ROOT
HETATM    1  C   UNL     1      -7.437  11.128  68.691  1.00  0.00    -0.119 C  
HETATM    2  C   UNL     1      -8.720  10.453  68.144  1.00  0.00    -0.125 C  
HETATM    3  C   UNL     1      -8.606  10.150  66.643  1.00  0.00    -0.126 A  
HETATM    4  C   UNL     1      -9.965  11.193  68.603  1.00  0.00    -0.210 C  
HETATM    5  C   UNL     1      -9.691  10.231  65.772  1.00  0.00    -0.297 A  
HETATM    6  C   UNL     1     -10.966  10.775  69.418  1.00  0.00    -0.305 C  
HETATM    7  C   UNL     1      -9.528   9.858  64.436  1.00  0.00    -0.304 A  
HETATM    8  C   UNL     1     -11.971  11.872  69.722  1.00  0.00    -0.377 C  
HETATM    9  C   UNL     1     -10.261  12.595  68.255  1.00  0.00    -0.240 A  
HETATM   10  C   UNL     1     -11.415  13.008  68.935  1.00  0.00    -0.345 A  
HETATM   11  C   UNL     1      -9.603  13.485  67.416  1.00  0.00    -0.227 A  
HETATM   12  C   UNL     1      -8.295   9.398  63.997  1.00  0.00    -0.174 A  
HETATM   13  C   UNL     1      -7.268   9.329  64.915  1.00  0.00    -0.102 A  
HETATM   14  C   UNL     1     -10.097  14.786  67.290  1.00  0.00    -0.236 A  
HETATM   15  C   UNL     1     -11.911  14.299  68.828  1.00  0.00    -0.377 A  
HETATM   16  N   UNL     1      -7.402   9.678  66.214  1.00  0.00    -0.093 NA 
HETATM   17  C   UNL     1     -11.239  15.194  67.998  1.00  0.00    -0.329 A  
ENDROOT
BRANCH   6  18
HETATM   18  C   UNL     1     -11.204   9.429  70.054  1.00  0.00    -0.217 C  
BRANCH  18  19
HETATM   19  C   UNL     1     -11.428   9.559  71.572  1.00  0.00    -0.395 C  
BRANCH  19  20
HETATM   20  N   UNL     1     -10.505   8.798  72.441  1.00  0.00    -0.251 NA 
HETATM   21  C   UNL     1     -10.994   7.457  72.761  1.00  0.00    -0.339 C  
HETATM   22  C   UNL     1      -9.203   8.694  71.768  1.00  0.00    -0.268 C  
ENDBRANCH  19  20
ENDBRANCH  18  19
ENDBRANCH   6  18
TORSDOF 3
ENDMDL
MODEL       71
REMARK 921   NORMALIZED FREE ENERGY PREDICTED BY IDOCK:   -4.63 KCAL/MOL
REMARK 922        TOTAL FREE ENERGY PREDICTED BY IDOCK:   -5.74 KCAL/MOL
REMARK 923 INTER-LIGAND FREE ENERGY PREDICTED BY IDOCK:   -5.42 KCAL/MOL
REMARK 924 INTRA-LIGAND FREE ENERGY PREDICTED BY IDOCK:   -0.33 KCAL/MOL
REMARK 927      BINDING AFFINITY PREDICTED BY RF-SCORE:    0.00 PKD
ROOT
HETATM    1  C   UNL     1      -9.913  15.763  65.279  1.00  0.00    -0.176 C  
HETATM    2  C   UNL     1     -10.297  15.830  66.778  1.00  0.00    -0.293 C  
HETATM    3  C   UNL     1     -10.211  17.263  67.322  1.00  0.00    -0.320 A  
HETATM    4  C   UNL     1      -9.586  14.748  67.574  1.00  0.00    -0.208 C  
HETATM    5  C   UNL     1      -9.804  17.554  68.623  1.00  0.00    -0.338 A  
HETATM    6  C   UNL     1     -10.103  13.684  68.236  1.00  0.00    -0.240 C  
HETATM    7  C   UNL     1      -9.832  18.875  69.072  1.00  0.00    -0.379 A  
HETATM    8  C   UNL     1      -9.031  12.772  68.807  1.00  0.00     0.169 C  
HETATM    9  C   UNL     1      -8.120  14.656  67.703  1.00  0.00    -0.185 A  
HETATM   10  C   UNL     1      -7.788  13.483  68.394  1.00  0.00    -0.143 A  
HETATM   11  C   UNL     1      -7.110  15.504  67.266  1.00  0.00    -0.225 A  
HETATM   12  C   UNL     1     -10.278  19.879  68.225  1.00  0.00    -0.562 A  
HETATM   13  C   UNL     1     -10.681  19.520  66.956  1.00  0.00    -0.477 A  
HETATM   14  C   UNL     1      -5.780  15.150  67.506  1.00  0.00     0.037 A  
HETATM   15  C   UNL     1      -6.472  13.113  68.630  1.00  0.00    -0.087 A  
HETATM   16  N   UNL     1     -10.668  18.248  66.500  1.00  0.00    -0.261 NA 
HETATM   17  C   UNL     1      -5.462  13.957  68.176  1.00  0.00    -0.120 A  
ENDROOT
BRANCH   6  18
HETATM   18  C   UNL     1     -11.539  13.284  68.464  1.00  0.00    -0.368 C  
BRANCH  18  19
HETATM   19  C   UNL     1     -11.739  11.772  68.249  1.00  0.00    -0.310 C  
BRANCH  19  20
HETATM   20  N   UNL     1     -12.102  10.980  69.444  1.00  0.00    -0.343 NA 
HETATM   21  C   UNL     1     -11.106   9.964  69.781  1.00  0.00    -0.254 C  
HETATM   22  C   UNL     1     -12.271  11.895  70.581  1.00  0.00    -0.331 C  
ENDBRANCH  19  20
ENDBRANCH  18  19
ENDBRANCH   6  18
TORSDOF 3
ENDMDL
MODEL       72
REMARK 921   NORMALIZED FREE ENERGY PREDICTED BY IDOCK:   -4.58 KCAL/MOL
REMARK 922        TOTAL FREE ENERGY PREDICTED BY IDOCK:   -5.68 KCAL/MOL
REMARK 923 INTER-LIGAND FREE ENERGY PREDICTED BY IDOCK:   -5.41 KCAL/MOL
REMARK 924 INTRA-LIGAND FREE ENERGY PREDICTED BY IDOCK:   -0.28 KCAL/MOL
REMARK 927      BINDING AFFINITY PREDICTED BY RF-SCORE:    0.00 PKD
ROOT
HETATM    1  C   UNL     1     -11.195   6.254  69.571  1.00  0.00    -0.500 C  
HETATM    2  C   UNL     1     -10.060   7.307  69.624  1.00  0.00    -0.195 C  
HETATM    3  C   UNL     1      -9.053   7.000  70.741  1.00  0.00    -0.154 A  
HETATM    4  C   UNL     1     -10.620   8.718  69.571  1.00  0.00    -0.224 C  
HETATM    5  C   UNL     1      -8.414   7.997  71.476  1.00  0.00    -0.147 A  
HETATM    6  C   UNL     1     -10.473   9.671  68.617  1.00  0.00    -0.235 C  
HETATM    7  C   UNL     1      -7.447   7.642  72.419  1.00  0.00    -0.089 A  
HETATM    8  C   UNL     1     -11.300  10.913  68.895  1.00  0.00    -0.354 C  
HETATM    9  C   UNL     1     -11.521   9.281  70.595  1.00  0.00    -0.327 A  
HETATM   10  C   UNL     1     -11.949  10.552  70.187  1.00  0.00    -0.398 A  
HETATM   11  C   UNL     1     -11.964   8.763  71.805  1.00  0.00    -0.418 A  
HETATM   12  C   UNL     1      -7.124   6.305  72.601  1.00  0.00    -0.079 A  
HETATM   13  C   UNL     1      -7.784   5.371  71.830  1.00  0.00    -0.110 A  
HETATM   14  C   UNL     1     -12.852   9.516  72.577  1.00  0.00    -0.250 A  
HETATM   15  C   UNL     1     -12.839  11.306  70.938  1.00  0.00    -0.343 A  
HETATM   16  N   UNL     1      -8.719   5.690  70.908  1.00  0.00    -0.131 NA 
HETATM   17  C   UNL     1     -13.294  10.776  72.143  1.00  0.00    -0.314 A  
ENDROOT
BRANCH   6  18
HETATM   18  C   UNL     1      -9.645   9.663  67.356  1.00  0.00    -0.183 C  
BRANCH  18  19
HETATM   19  C   UNL     1     -10.381  10.365  66.200  1.00  0.00    -0.200 C  
BRANCH  19  20
HETATM   20  N   UNL     1      -9.583  11.309  65.388  1.00  0.00    -0.223 NA 
HETATM   21  C   UNL     1      -9.713  11.079  63.950  1.00  0.00    -0.292 C  
HETATM   22  C   UNL     1     -10.011  12.679  65.704  1.00  0.00    -0.242 C  
ENDBRANCH  19  20
ENDBRANCH  18  19
ENDBRANCH   6  18
TORSDOF 3
ENDMDL
MODEL       73
REMARK 921   NORMALIZED FREE ENERGY PREDICTED BY IDOCK:   -4.58 KCAL/MOL
REMARK 922        TOTAL FREE ENERGY PREDICTED BY IDOCK:   -5.68 KCAL/MOL
REMARK 923 INTER-LIGAND FREE ENERGY PREDICTED BY IDOCK:   -5.39 KCAL/MOL
REMARK 924 INTRA-LIGAND FREE ENERGY PREDICTED BY IDOCK:   -0.29 KCAL/MOL
REMARK 927      BINDING AFFINITY PREDICTED BY RF-SCORE:    0.00 PKD
ROOT
HETATM    1  C   UNL     1     -10.739   7.423  67.134  1.00  0.00    -0.400 C  
HETATM    2  C   UNL     1     -10.023   8.716  67.597  1.00  0.00    -0.248 C  
HETATM    3  C   UNL     1      -8.496   8.553  67.590  1.00  0.00    -0.129 A  
HETATM    4  C   UNL     1     -10.650   9.262  68.869  1.00  0.00    -0.222 C  
HETATM    5  C   UNL     1      -7.668   9.159  68.532  1.00  0.00    -0.093 A  
HETATM    6  C   UNL     1     -11.317  10.426  69.072  1.00  0.00    -0.279 C  
HETATM    7  C   UNL     1      -6.282   9.034  68.410  1.00  0.00    -0.054 A  
HETATM    8  C   UNL     1     -11.890  10.537  70.474  1.00  0.00    -0.442 C  
HETATM    9  C   UNL     1     -10.680   8.529  70.149  1.00  0.00    -0.240 A  
HETATM   10  C   UNL     1     -11.434   9.254  71.081  1.00  0.00    -0.403 A  
HETATM   11  C   UNL     1     -10.109   7.319  70.520  1.00  0.00    -0.195 A  
HETATM   12  C   UNL     1      -5.748   8.322  67.346  1.00  0.00    -0.039 A  
HETATM   13  C   UNL     1      -6.625   7.762  66.440  1.00  0.00    -0.050 A  
HETATM   14  C   UNL     1     -10.326   6.839  71.814  1.00  0.00    -0.217 A  
HETATM   15  C   UNL     1     -11.666   8.786  72.366  1.00  0.00    -0.337 A  
HETATM   16  N   UNL     1      -7.968   7.873  66.534  1.00  0.00    -0.100 NA 
HETATM   17  C   UNL     1     -11.106   7.564  72.729  1.00  0.00    -0.416 A  
ENDROOT
BRANCH   6  18
HETATM   18  C   UNL     1     -11.575  11.575  68.130  1.00  0.00    -0.378 C  
BRANCH  18  19
HETATM   19  C   UNL     1     -10.384  12.551  68.101  1.00  0.00    -0.232 C  
BRANCH  19  20
HETATM   20  N   UNL     1     -10.701  13.968  67.821  1.00  0.00    -0.241 NA 
HETATM   21  C   UNL     1      -9.636  14.662  67.099  1.00  0.00    -0.233 C  
HETATM   22  C   UNL     1     -11.941  14.026  67.035  1.00  0.00    -0.438 C  
ENDBRANCH  19  20
ENDBRANCH  18  19
ENDBRANCH   6  18
TORSDOF 3
ENDMDL
MODEL       74
REMARK 921   NORMALIZED FREE ENERGY PREDICTED BY IDOCK:   -4.58 KCAL/MOL
REMARK 922        TOTAL FREE ENERGY PREDICTED BY IDOCK:   -5.68 KCAL/MOL
REMARK 923 INTER-LIGAND FREE ENERGY PREDICTED BY IDOCK:   -5.43 KCAL/MOL
REMARK 924 INTRA-LIGAND FREE ENERGY PREDICTED BY IDOCK:   -0.26 KCAL/MOL
REMARK 927      BINDING AFFINITY PREDICTED BY RF-SCORE:    0.00 PKD
ROOT
HETATM    1  C   UNL     1     -11.668  16.662  68.391  1.00  0.00     0.288 C  
HETATM    2  C   UNL     1     -11.905  15.148  68.619  1.00  0.00    -0.329 C  
HETATM    3  C   UNL     1     -12.379  14.857  70.049  1.00  0.00    -0.312 A  
HETATM    4  C   UNL     1     -10.736  14.328  68.101  1.00  0.00    -0.249 C  
HETATM    5  C   UNL     1     -12.014  13.706  70.746  1.00  0.00    -0.286 A  
HETATM    6  C   UNL     1     -10.694  13.429  67.086  1.00  0.00    -0.268 C  
HETATM    7  C   UNL     1     -12.553  13.470  72.012  1.00  0.00    -0.168 A  
HETATM    8  C   UNL     1      -9.291  12.916  66.814  1.00  0.00    -0.243 C  
HETATM    9  C   UNL     1      -9.361  14.440  68.624  1.00  0.00    -0.188 A  
HETATM   10  C   UNL     1      -8.505  13.642  67.853  1.00  0.00    -0.177 A  
HETATM   11  C   UNL     1      -8.846  15.170  69.687  1.00  0.00    -0.054 A  
HETATM   12  C   UNL     1     -13.456  14.374  72.554  1.00  0.00    -0.593 A  
HETATM   13  C   UNL     1     -13.786  15.484  71.804  1.00  0.00    -0.483 A  
HETATM   14  C   UNL     1      -7.475  15.109  69.946  1.00  0.00    -0.032 A  
HETATM   15  C   UNL     1      -7.140  13.581  68.091  1.00  0.00    -0.117 A  
HETATM   16  N   UNL     1     -13.282  15.732  70.575  1.00  0.00    -0.332 NA 
HETATM   17  C   UNL     1      -6.625  14.326  69.148  1.00  0.00    -0.114 A  
ENDROOT
BRANCH   6  18
HETATM   18  C   UNL     1     -11.802  12.900  66.211  1.00  0.00    -0.477 C  
BRANCH  18  19
HETATM   19  C   UNL     1     -11.316  11.723  65.345  1.00  0.00    -0.222 C  
BRANCH  19  20
HETATM   20  N   UNL     1     -11.163  11.989  63.898  1.00  0.00    -0.381 NA 
HETATM   21  C   UNL     1     -10.233  11.071  63.242  1.00  0.00    -0.303 C  
HETATM   22  C   UNL     1     -12.482  11.887  63.259  1.00  0.00    -0.384 C  
ENDBRANCH  19  20
ENDBRANCH  18  19
ENDBRANCH   6  18
TORSDOF 3
ENDMDL
MODEL       75
REMARK 921   NORMALIZED FREE ENERGY PREDICTED BY IDOCK:   -4.56 KCAL/MOL
REMARK 922        TOTAL FREE ENERGY PREDICTED BY IDOCK:   -5.66 KCAL/MOL
REMARK 923 INTER-LIGAND FREE ENERGY PREDICTED BY IDOCK:   -5.46 KCAL/MOL
REMARK 924 INTRA-LIGAND FREE ENERGY PREDICTED BY IDOCK:   -0.21 KCAL/MOL
REMARK 927      BINDING AFFINITY PREDICTED BY RF-SCORE:    0.00 PKD
ROOT
HETATM    1  C   UNL     1     -10.930   9.585  71.159  1.00  0.00    -0.438 C  
HETATM    2  C   UNL     1     -10.729   9.197  69.672  1.00  0.00    -0.236 C  
HETATM    3  C   UNL     1     -10.376   7.711  69.516  1.00  0.00    -0.217 A  
HETATM    4  C   UNL     1      -9.829  10.196  68.964  1.00  0.00    -0.211 C  
HETATM    5  C   UNL     1      -9.504   7.241  68.536  1.00  0.00    -0.140 A  
HETATM    6  C   UNL     1     -10.118  11.048  67.949  1.00  0.00    -0.199 C  
HETATM    7  C   UNL     1      -9.297   5.867  68.403  1.00  0.00    -0.124 A  
HETATM    8  C   UNL     1      -8.958  11.968  67.608  1.00  0.00    -0.172 C  
HETATM    9  C   UNL     1      -8.426  10.446  69.341  1.00  0.00    -0.145 A  
HETATM   10  C   UNL     1      -7.922  11.506  68.575  1.00  0.00    -0.143 A  
HETATM   11  C   UNL     1      -7.608   9.825  70.277  1.00  0.00    -0.184 A  
HETATM   12  C   UNL     1      -9.974   4.987  69.234  1.00  0.00    -0.277 A  
HETATM   13  C   UNL     1     -10.835   5.518  70.172  1.00  0.00    -0.229 A  
HETATM   14  C   UNL     1      -6.303  10.294  70.449  1.00  0.00    -0.127 A  
HETATM   15  C   UNL     1      -6.632  11.988  68.743  1.00  0.00    -0.082 A  
HETATM   16  N   UNL     1     -11.055   6.843  70.317  1.00  0.00    -0.279 NA 
HETATM   17  C   UNL     1      -5.820  11.374  69.693  1.00  0.00    -0.087 A  
ENDROOT
BRANCH   6  18
HETATM   18  C   UNL     1     -11.386  11.216  67.151  1.00  0.00    -0.257 C  
BRANCH  18  19
HETATM   19  C   UNL     1     -11.186  12.201  65.984  1.00  0.00    -0.336 C  
BRANCH  19  20
HETATM   20  N   UNL     1     -12.398  12.575  65.224  1.00  0.00    -0.612 NA 
HETATM   21  C   UNL     1     -12.652  14.015  65.223  1.00  0.00    -0.470 C  
HETATM   22  C   UNL     1     -12.249  12.105  63.840  1.00  0.00    -0.489 C  
ENDBRANCH  19  20
ENDBRANCH  18  19
ENDBRANCH   6  18
TORSDOF 3
ENDMDL
MODEL       76
REMARK 921   NORMALIZED FREE ENERGY PREDICTED BY IDOCK:   -4.55 KCAL/MOL
REMARK 922        TOTAL FREE ENERGY PREDICTED BY IDOCK:   -5.65 KCAL/MOL
REMARK 923 INTER-LIGAND FREE ENERGY PREDICTED BY IDOCK:   -5.65 KCAL/MOL
REMARK 924 INTRA-LIGAND FREE ENERGY PREDICTED BY IDOCK:    0.00 KCAL/MOL
REMARK 927      BINDING AFFINITY PREDICTED BY RF-SCORE:    0.00 PKD
ROOT
HETATM    1  C   UNL     1     -11.790  12.796  68.677  1.00  0.00    -0.341 C  
HETATM    2  C   UNL     1     -11.019  13.682  67.667  1.00  0.00    -0.283 C  
HETATM    3  C   UNL     1     -11.133  13.139  66.235  1.00  0.00    -0.287 A  
HETATM    4  C   UNL     1      -9.623  14.000  68.173  1.00  0.00    -0.220 C  
HETATM    5  C   UNL     1     -10.094  13.228  65.309  1.00  0.00    -0.254 A  
HETATM    6  C   UNL     1      -9.083  15.194  68.523  1.00  0.00    -0.191 C  
HETATM    7  C   UNL     1     -10.302  12.788  64.000  1.00  0.00    -0.392 A  
HETATM    8  C   UNL     1      -7.682  15.060  69.094  1.00  0.00    -0.179 C  
HETATM    9  C   UNL     1      -8.592  12.978  68.434  1.00  0.00    -0.116 A  
HETATM   10  C   UNL     1      -7.468  13.588  69.005  1.00  0.00     0.046 A  
HETATM   11  C   UNL     1      -8.590  11.607  68.209  1.00  0.00    -0.162 A  
HETATM   12  C   UNL     1     -11.541  12.284  63.634  1.00  0.00    -0.581 A  
HETATM   13  C   UNL     1     -12.529  12.239  64.595  1.00  0.00    -0.341 A  
HETATM   14  C   UNL     1      -7.469  10.863  68.585  1.00  0.00    -0.105 A  
HETATM   15  C   UNL     1      -6.352  12.861  69.393  1.00  0.00    -0.109 A  
HETATM   16  N   UNL     1     -12.355  12.663  65.866  1.00  0.00    -0.595 NA 
HETATM   17  C   UNL     1      -6.359  11.485  69.181  1.00  0.00    -0.078 A  
ENDROOT
BRANCH   6  18
HETATM   18  C   UNL     1      -9.663  16.584  68.443  1.00  0.00    -0.236 C  
BRANCH  18  19
HETATM   19  C   UNL     1     -10.688  16.697  67.299  1.00  0.00    -0.227 C  
BRANCH  19  20
HETATM   20  N   UNL     1     -10.181  17.216  66.010  1.00  0.00    -0.462 NA 
HETATM   21  C   UNL     1     -10.884  16.663  64.853  1.00  0.00    -0.142 C  
HETATM   22  C   UNL     1     -10.313  18.679  66.008  1.00  0.00    -0.399 C  
ENDBRANCH  19  20
ENDBRANCH  18  19
ENDBRANCH   6  18
TORSDOF 3
ENDMDL
MODEL       77
REMARK 921   NORMALIZED FREE ENERGY PREDICTED BY IDOCK:   -4.50 KCAL/MOL
REMARK 922        TOTAL FREE ENERGY PREDICTED BY IDOCK:   -5.59 KCAL/MOL
REMARK 923 INTER-LIGAND FREE ENERGY PREDICTED BY IDOCK:   -5.33 KCAL/MOL
REMARK 924 INTRA-LIGAND FREE ENERGY PREDICTED BY IDOCK:   -0.26 KCAL/MOL
REMARK 927      BINDING AFFINITY PREDICTED BY RF-SCORE:    0.00 PKD
ROOT
HETATM    1  C   UNL     1     -10.258   9.302  66.260  1.00  0.00    -0.273 C  
HETATM    2  C   UNL     1     -10.827  10.095  67.463  1.00  0.00    -0.349 C  
HETATM    3  C   UNL     1     -11.223  11.523  67.064  1.00  0.00    -0.300 A  
HETATM    4  C   UNL     1      -9.940   9.943  68.687  1.00  0.00    -0.177 C  
HETATM    5  C   UNL     1     -11.081  12.613  67.921  1.00  0.00    -0.285 A  
HETATM    6  C   UNL     1     -10.208   9.355  69.879  1.00  0.00    -0.247 C  
HETATM    7  C   UNL     1     -11.541  13.868  67.518  1.00  0.00    -0.392 A  
HETATM    8  C   UNL     1      -8.999   9.313  70.798  1.00  0.00    -0.292 C  
HETATM    9  C   UNL     1      -8.537  10.392  68.743  1.00  0.00    -0.141 A  
HETATM   10  C   UNL     1      -7.971   9.996  69.962  1.00  0.00    -0.166 A  
HETATM   11  C   UNL     1      -7.767  11.095  67.825  1.00  0.00    -0.112 A  
HETATM   12  C   UNL     1     -12.148  14.012  66.279  1.00  0.00    -0.482 A  
HETATM   13  C   UNL     1     -12.271  12.889  65.487  1.00  0.00    -0.474 A  
HETATM   14  C   UNL     1      -6.431  11.367  68.133  1.00  0.00    -0.056 A  
HETATM   15  C   UNL     1      -6.644  10.249  70.276  1.00  0.00    -0.142 A  
HETATM   16  N   UNL     1     -11.838  11.664  65.856  1.00  0.00    -0.274 NA 
HETATM   17  C   UNL     1      -5.870  10.939  69.347  1.00  0.00    -0.045 A  
ENDROOT
BRANCH   6  18
HETATM   18  C   UNL     1     -11.486   8.744  70.396  1.00  0.00    -0.163 C  
BRANCH  18  19
HETATM   19  C   UNL     1     -11.286   7.265  70.775  1.00  0.00    -0.274 C  
BRANCH  19  20
HETATM   20  N   UNL     1     -10.525   6.437  69.815  1.00  0.00    -0.197 NA 
HETATM   21  C   UNL     1     -10.270   5.082  70.303  1.00  0.00    -0.258 C  
HETATM   22  C   UNL     1     -11.276   6.368  68.554  1.00  0.00    -0.228 C  
ENDBRANCH  19  20
ENDBRANCH  18  19
ENDBRANCH   6  18
TORSDOF 3
ENDMDL
MODEL       78
REMARK 921   NORMALIZED FREE ENERGY PREDICTED BY IDOCK:   -4.46 KCAL/MOL
REMARK 922        TOTAL FREE ENERGY PREDICTED BY IDOCK:   -5.55 KCAL/MOL
REMARK 923 INTER-LIGAND FREE ENERGY PREDICTED BY IDOCK:   -5.19 KCAL/MOL
REMARK 924 INTRA-LIGAND FREE ENERGY PREDICTED BY IDOCK:   -0.36 KCAL/MOL
REMARK 927      BINDING AFFINITY PREDICTED BY RF-SCORE:    0.00 PKD
ROOT
HETATM    1  C   UNL     1     -10.706   6.780  67.274  1.00  0.00    -0.423 C  
HETATM    2  C   UNL     1      -9.637   7.873  67.025  1.00  0.00    -0.247 C  
HETATM    3  C   UNL     1      -8.317   7.550  67.738  1.00  0.00    -0.119 A  
HETATM    4  C   UNL     1     -10.214   9.262  67.243  1.00  0.00    -0.315 C  
HETATM    5  C   UNL     1      -7.496   8.532  68.289  1.00  0.00    -0.096 A  
HETATM    6  C   UNL     1     -10.403  10.268  66.352  1.00  0.00    -0.262 C  
HETATM    7  C   UNL     1      -6.269   8.168  68.848  1.00  0.00    -0.040 A  
HETATM    8  C   UNL     1     -11.123  11.460  66.958  1.00  0.00    -0.364 C  
HETATM    9  C   UNL     1     -10.748   9.735  68.534  1.00  0.00    -0.252 A  
HETATM   10  C   UNL     1     -11.312  11.006  68.365  1.00  0.00    -0.363 A  
HETATM   11  C   UNL     1     -10.765   9.137  69.787  1.00  0.00    -0.239 A  
HETATM   12  C   UNL     1      -5.876   6.837  68.834  1.00  0.00    -0.018 A  
HETATM   13  C   UNL     1      -6.730   5.919  68.259  1.00  0.00    -0.057 A  
HETATM   14  C   UNL     1     -11.372   9.812  70.849  1.00  0.00    -0.439 A  
HETATM   15  C   UNL     1     -11.927  11.684  69.407  1.00  0.00    -0.381 A  
HETATM   16  N   UNL     1      -7.919   6.247  67.708  1.00  0.00    -0.112 NA 
HETATM   17  C   UNL     1     -11.958  11.075  70.659  1.00  0.00    -0.464 A  
ENDROOT
BRANCH   6  18
HETATM   18  C   UNL     1     -10.027  10.359  64.895  1.00  0.00    -0.409 C  
BRANCH  18  19
HETATM   19  C   UNL     1      -8.501  10.459  64.717  1.00  0.00    -0.173 C  
BRANCH  19  20
HETATM   20  N   UNL     1      -7.921   9.716  63.576  1.00  0.00    -0.131 NA 
HETATM   21  C   UNL     1      -6.565  10.148  63.241  1.00  0.00    -0.134 C  
HETATM   22  C   UNL     1      -7.910   8.284  63.904  1.00  0.00    -0.147 C  
ENDBRANCH  19  20
ENDBRANCH  18  19
ENDBRANCH   6  18
TORSDOF 3
ENDMDL
MODEL       79
REMARK 921   NORMALIZED FREE ENERGY PREDICTED BY IDOCK:   -4.46 KCAL/MOL
REMARK 922        TOTAL FREE ENERGY PREDICTED BY IDOCK:   -5.54 KCAL/MOL
REMARK 923 INTER-LIGAND FREE ENERGY PREDICTED BY IDOCK:   -5.15 KCAL/MOL
REMARK 924 INTRA-LIGAND FREE ENERGY PREDICTED BY IDOCK:   -0.39 KCAL/MOL
REMARK 927      BINDING AFFINITY PREDICTED BY RF-SCORE:    0.00 PKD
ROOT
HETATM    1  C   UNL     1     -11.014   6.267  67.321  1.00  0.00    -0.455 C  
HETATM    2  C   UNL     1      -9.788   6.438  68.253  1.00  0.00    -0.130 C  
HETATM    3  C   UNL     1      -9.405   5.117  68.935  1.00  0.00    -0.125 A  
HETATM    4  C   UNL     1      -9.950   7.653  69.151  1.00  0.00    -0.181 C  
HETATM    5  C   UNL     1      -8.904   5.055  70.234  1.00  0.00    -0.143 A  
HETATM    6  C   UNL     1      -9.226   8.800  69.190  1.00  0.00    -0.149 C  
HETATM    7  C   UNL     1      -8.498   3.825  70.755  1.00  0.00    -0.100 A  
HETATM    8  C   UNL     1      -9.794   9.819  70.161  1.00  0.00    -0.306 C  
HETATM    9  C   UNL     1     -11.032   7.802  70.142  1.00  0.00    -0.246 A  
HETATM   10  C   UNL     1     -10.966   9.081  70.712  1.00  0.00    -0.315 A  
HETATM   11  C   UNL     1     -12.023   6.919  70.551  1.00  0.00    -0.358 A  
HETATM   12  C   UNL     1      -8.583   2.684  69.970  1.00  0.00    -0.108 A  
HETATM   13  C   UNL     1      -9.073   2.819  68.688  1.00  0.00    -0.158 A  
HETATM   14  C   UNL     1     -12.951   7.341  71.506  1.00  0.00    -0.434 A  
HETATM   15  C   UNL     1     -11.887   9.517  71.653  1.00  0.00    -0.468 A  
HETATM   16  N   UNL     1      -9.467   3.998  68.159  1.00  0.00    -0.165 NA 
HETATM   17  C   UNL     1     -12.889   8.635  72.048  1.00  0.00    -0.425 A  
ENDROOT
BRANCH   6  18
HETATM   18  C   UNL     1      -7.990   9.196  68.422  1.00  0.00    -0.103 C  
BRANCH  18  19
HETATM   19  C   UNL     1      -8.301   9.391  66.926  1.00  0.00    -0.127 C  
BRANCH  19  20
HETATM   20  N   UNL     1      -9.485  10.216  66.602  1.00  0.00    -0.165 NA 
HETATM   21  C   UNL     1      -9.251  11.648  66.782  1.00  0.00    -0.186 C  
HETATM   22  C   UNL     1      -9.872   9.956  65.209  1.00  0.00    -0.303 C  
ENDBRANCH  19  20
ENDBRANCH  18  19
ENDBRANCH   6  18
TORSDOF 3
ENDMDL
MODEL       80
REMARK 921   NORMALIZED FREE ENERGY PREDICTED BY IDOCK:   -4.45 KCAL/MOL
REMARK 922        TOTAL FREE ENERGY PREDICTED BY IDOCK:   -5.53 KCAL/MOL
REMARK 923 INTER-LIGAND FREE ENERGY PREDICTED BY IDOCK:   -5.42 KCAL/MOL
REMARK 924 INTRA-LIGAND FREE ENERGY PREDICTED BY IDOCK:   -0.11 KCAL/MOL
REMARK 927      BINDING AFFINITY PREDICTED BY RF-SCORE:    0.00 PKD
ROOT
HETATM    1  C   UNL     1      -9.566  14.299  68.966  1.00  0.00    -0.010 C  
HETATM    2  C   UNL     1     -11.021  13.777  68.864  1.00  0.00    -0.281 C  
HETATM    3  C   UNL     1     -11.730  13.803  70.226  1.00  0.00    -0.201 A  
HETATM    4  C   UNL     1     -11.082  12.476  68.082  1.00  0.00    -0.282 C  
HETATM    5  C   UNL     1     -12.657  12.837  70.613  1.00  0.00    -0.248 A  
HETATM    6  C   UNL     1     -11.674  12.213  66.890  1.00  0.00    -0.374 C  
HETATM    7  C   UNL     1     -13.323  12.974  71.833  1.00  0.00    -0.539 A  
HETATM    8  C   UNL     1     -11.398  10.804  66.397  1.00  0.00     0.306 C  
HETATM    9  C   UNL     1     -10.408  11.234  68.503  1.00  0.00    -0.217 A  
HETATM   10  C   UNL     1     -10.561  10.263  67.504  1.00  0.00    -0.320 A  
HETATM   11  C   UNL     1      -9.702  10.926  69.658  1.00  0.00     0.206 A  
HETATM   12  C   UNL     1     -13.065  14.076  72.636  1.00  0.00    -0.553 A  
HETATM   13  C   UNL     1     -12.148  15.002  72.186  1.00  0.00    -0.377 A  
HETATM   14  C   UNL     1      -9.135   9.655  69.784  1.00  0.00    -0.232 A  
HETATM   15  C   UNL     1      -9.995   9.001  67.611  1.00  0.00    -0.252 A  
HETATM   16  N   UNL     1     -11.495  14.894  71.008  1.00  0.00    -0.288 NA 
HETATM   17  C   UNL     1      -9.273   8.701  68.763  1.00  0.00    -0.142 A  
ENDROOT
BRANCH   6  18
HETATM   18  C   UNL     1     -12.524  13.096  66.011  1.00  0.00    -0.330 C  
BRANCH  18  19
HETATM   19  C   UNL     1     -12.423  12.676  64.533  1.00  0.00    -0.448 C  
BRANCH  19  20
HETATM   20  N   UNL     1     -11.303  13.253  63.759  1.00  0.00    -0.322 NA 
HETATM   21  C   UNL     1     -10.446  14.127  64.558  1.00  0.00    -0.204 C  
HETATM   22  C   UNL     1     -10.499  12.155  63.205  1.00  0.00    -0.317 C  
ENDBRANCH  19  20
ENDBRANCH  18  19
ENDBRANCH   6  18
TORSDOF 3
ENDMDL
MODEL       81
REMARK 921   NORMALIZED FREE ENERGY PREDICTED BY IDOCK:   -4.44 KCAL/MOL
REMARK 922        TOTAL FREE ENERGY PREDICTED BY IDOCK:   -5.51 KCAL/MOL
REMARK 923 INTER-LIGAND FREE ENERGY PREDICTED BY IDOCK:   -5.22 KCAL/MOL
REMARK 924 INTRA-LIGAND FREE ENERGY PREDICTED BY IDOCK:   -0.29 KCAL/MOL
REMARK 927      BINDING AFFINITY PREDICTED BY RF-SCORE:    0.00 PKD
ROOT
HETATM    1  C   UNL     1      -7.418   9.138  67.588  1.00  0.00    -0.084 C  
HETATM    2  C   UNL     1      -8.796   8.572  68.012  1.00  0.00    -0.142 C  
HETATM    3  C   UNL     1      -9.166   7.318  67.208  1.00  0.00    -0.131 A  
HETATM    4  C   UNL     1      -9.840   9.674  68.087  1.00  0.00    -0.172 C  
HETATM    5  C   UNL     1     -10.475   7.020  66.834  1.00  0.00    -0.356 A  
HETATM    6  C   UNL     1     -10.517  10.149  69.162  1.00  0.00    -0.242 C  
HETATM    7  C   UNL     1     -10.744   5.817  66.177  1.00  0.00     0.030 A  
HETATM    8  C   UNL     1     -11.391  11.344  68.823  1.00  0.00    -0.334 C  
HETATM    9  C   UNL     1     -10.258  10.487  66.930  1.00  0.00    -0.280 A  
HETATM   10  C   UNL     1     -11.138  11.488  67.361  1.00  0.00    -0.339 A  
HETATM   11  C   UNL     1      -9.921  10.401  65.585  1.00  0.00    -0.337 A  
HETATM   12  C   UNL     1      -9.711   4.929  65.919  1.00  0.00    -0.197 A  
HETATM   13  C   UNL     1      -8.441   5.279  66.331  1.00  0.00    -0.113 A  
HETATM   14  C   UNL     1     -10.453  11.337  64.695  1.00  0.00    -0.387 A  
HETATM   15  C   UNL     1     -11.665  12.431  66.491  1.00  0.00    -0.443 A  
HETATM   16  N   UNL     1      -8.156   6.434  66.972  1.00  0.00    -0.112 NA 
HETATM   17  C   UNL     1     -11.313  12.352  65.146  1.00  0.00    -0.367 A  
ENDROOT
BRANCH   6  18
HETATM   18  C   UNL     1     -10.513   9.685  70.597  1.00  0.00    -0.379 C  
BRANCH  18  19
HETATM   19  C   UNL     1     -11.515   8.537  70.816  1.00  0.00    -0.253 C  
BRANCH  19  20
HETATM   20  N   UNL     1     -11.786   8.159  72.220  1.00  0.00    -0.358 NA 
HETATM   21  C   UNL     1     -12.651   6.987  72.341  1.00  0.00     0.126 C  
HETATM   22  C   UNL     1     -10.507   7.893  72.891  1.00  0.00    -0.355 C  
ENDBRANCH  19  20
ENDBRANCH  18  19
ENDBRANCH   6  18
TORSDOF 3
ENDMDL
MODEL       82
REMARK 921   NORMALIZED FREE ENERGY PREDICTED BY IDOCK:   -4.42 KCAL/MOL
REMARK 922        TOTAL FREE ENERGY PREDICTED BY IDOCK:   -5.50 KCAL/MOL
REMARK 923 INTER-LIGAND FREE ENERGY PREDICTED BY IDOCK:   -5.14 KCAL/MOL
REMARK 924 INTRA-LIGAND FREE ENERGY PREDICTED BY IDOCK:   -0.36 KCAL/MOL
REMARK 927      BINDING AFFINITY PREDICTED BY RF-SCORE:    0.00 PKD
ROOT
HETATM    1  C   UNL     1      -8.564   9.650  64.472  1.00  0.00    -0.205 C  
HETATM    2  C   UNL     1      -9.786   9.767  65.417  1.00  0.00    -0.383 C  
HETATM    3  C   UNL     1     -10.620  11.020  65.113  1.00  0.00    -0.226 A  
HETATM    4  C   UNL     1      -9.381   9.545  66.864  1.00  0.00    -0.185 C  
HETATM    5  C   UNL     1     -11.266  11.755  66.105  1.00  0.00    -0.363 A  
HETATM    6  C   UNL     1      -9.734   8.551  67.716  1.00  0.00    -0.199 C  
HETATM    7  C   UNL     1     -12.076  12.834  65.742  1.00  0.00    -0.505 A  
HETATM    8  C   UNL     1      -9.009   8.634  69.048  1.00  0.00    -0.142 C  
HETATM    9  C   UNL     1      -8.428  10.406  67.590  1.00  0.00    -0.114 A  
HETATM   10  C   UNL     1      -8.181   9.859  68.856  1.00  0.00    -0.118 A  
HETATM   11  C   UNL     1      -7.798  11.585  67.217  1.00  0.00    -0.153 A  
HETATM   12  C   UNL     1     -12.238  13.151  64.402  1.00  0.00    -0.462 A  
HETATM   13  C   UNL     1     -11.583  12.372  63.471  1.00  0.00    -0.497 A  
HETATM   14  C   UNL     1      -6.906  12.186  68.109  1.00  0.00    -0.075 A  
HETATM   15  C   UNL     1      -7.290  10.437  69.748  1.00  0.00    -0.157 A  
HETATM   16  N   UNL     1     -10.799  11.321  63.796  1.00  0.00    -0.381 NA 
HETATM   17  C   UNL     1      -6.647  11.611  69.365  1.00  0.00    -0.115 A  
ENDROOT
BRANCH   6  18
HETATM   18  C   UNL     1     -10.698   7.406  67.528  1.00  0.00    -0.310 C  
BRANCH  18  19
HETATM   19  C   UNL     1     -10.061   6.267  66.711  1.00  0.00    -0.180 C  
BRANCH  19  20
HETATM   20  N   UNL     1      -9.598   5.088  67.474  1.00  0.00    -0.138 NA 
HETATM   21  C   UNL     1      -8.141   4.997  67.559  1.00  0.00    -0.099 C  
HETATM   22  C   UNL     1     -10.163   5.154  68.829  1.00  0.00    -0.132 C  
ENDBRANCH  19  20
ENDBRANCH  18  19
ENDBRANCH   6  18
TORSDOF 3
ENDMDL
MODEL       83
REMARK 921   NORMALIZED FREE ENERGY PREDICTED BY IDOCK:   -4.42 KCAL/MOL
REMARK 922        TOTAL FREE ENERGY PREDICTED BY IDOCK:   -5.49 KCAL/MOL
REMARK 923 INTER-LIGAND FREE ENERGY PREDICTED BY IDOCK:   -5.25 KCAL/MOL
REMARK 924 INTRA-LIGAND FREE ENERGY PREDICTED BY IDOCK:   -0.24 KCAL/MOL
REMARK 927      BINDING AFFINITY PREDICTED BY RF-SCORE:    0.00 PKD
ROOT
HETATM    1  C   UNL     1      -8.171   9.607  70.564  1.00  0.00    -0.139 C  
HETATM    2  C   UNL     1      -9.622   9.327  70.100  1.00  0.00    -0.254 C  
HETATM    3  C   UNL     1     -10.286   8.229  70.944  1.00  0.00    -0.191 A  
HETATM    4  C   UNL     1      -9.692   9.171  68.590  1.00  0.00    -0.164 C  
HETATM    5  C   UNL     1     -11.188   7.310  70.411  1.00  0.00    -0.302 A  
HETATM    6  C   UNL     1     -10.319   9.947  67.671  1.00  0.00    -0.275 C  
HETATM    7  C   UNL     1     -11.816   6.394  71.258  1.00  0.00    -0.333 A  
HETATM    8  C   UNL     1     -10.042   9.506  66.244  1.00  0.00    -0.327 C  
HETATM    9  C   UNL     1      -8.989   8.112  67.842  1.00  0.00    -0.133 A  
HETATM   10  C   UNL     1      -9.162   8.324  66.467  1.00  0.00    -0.236 A  
HETATM   11  C   UNL     1      -8.242   7.028  68.281  1.00  0.00    -0.124 A  
HETATM   12  C   UNL     1     -11.545   6.420  72.619  1.00  0.00    -0.193 A  
HETATM   13  C   UNL     1     -10.654   7.366  73.081  1.00  0.00    -0.374 A  
HETATM   14  C   UNL     1      -7.655   6.184  67.334  1.00  0.00    -0.090 A  
HETATM   15  C   UNL     1      -8.577   7.502  65.516  1.00  0.00    -0.102 A  
HETATM   16  N   UNL     1     -10.039   8.266  72.283  1.00  0.00    -0.271 NA 
HETATM   17  C   UNL     1      -7.815   6.424  65.959  1.00  0.00    -0.103 A  
ENDROOT
BRANCH   6  18
HETATM   18  C   UNL     1     -11.208  11.151  67.859  1.00  0.00    -0.365 C  
BRANCH  18  19
HETATM   19  C   UNL     1     -10.486  12.447  67.448  1.00  0.00    -0.215 C  
BRANCH  19  20
HETATM   20  N   UNL     1     -11.186  13.714  67.751  1.00  0.00    -0.274 NA 
HETATM   21  C   UNL     1     -12.040  14.173  66.656  1.00  0.00    -0.451 C  
HETATM   22  C   UNL     1     -12.001  13.524  68.959  1.00  0.00    -0.335 C  
ENDBRANCH  19  20
ENDBRANCH  18  19
ENDBRANCH   6  18
TORSDOF 3
ENDMDL
MODEL       84
REMARK 921   NORMALIZED FREE ENERGY PREDICTED BY IDOCK:   -4.37 KCAL/MOL
REMARK 922        TOTAL FREE ENERGY PREDICTED BY IDOCK:   -5.43 KCAL/MOL
REMARK 923 INTER-LIGAND FREE ENERGY PREDICTED BY IDOCK:   -4.96 KCAL/MOL
REMARK 924 INTRA-LIGAND FREE ENERGY PREDICTED BY IDOCK:   -0.47 KCAL/MOL
REMARK 927      BINDING AFFINITY PREDICTED BY RF-SCORE:    0.00 PKD
ROOT
HETATM    1  C   UNL     1      -7.804  10.281  70.029  1.00  0.00    -0.056 C  
HETATM    2  C   UNL     1      -8.359   8.839  69.929  1.00  0.00    -0.125 C  
HETATM    3  C   UNL     1      -8.633   8.435  68.474  1.00  0.00    -0.136 A  
HETATM    4  C   UNL     1      -9.482   8.615  70.928  1.00  0.00    -0.242 C  
HETATM    5  C   UNL     1      -9.696   7.612  68.106  1.00  0.00    -0.168 A  
HETATM    6  C   UNL     1      -9.532   7.784  71.999  1.00  0.00    -0.212 C  
HETATM    7  C   UNL     1      -9.831   7.220  66.772  1.00  0.00    -0.281 A  
HETATM    8  C   UNL     1     -10.803   7.952  72.813  1.00  0.00    -0.451 C  
HETATM    9  C   UNL     1     -10.752   9.365  70.915  1.00  0.00    -0.393 A  
HETATM   10  C   UNL     1     -11.514   9.006  72.035  1.00  0.00    -0.408 A  
HETATM   11  C   UNL     1     -11.249  10.301  70.018  1.00  0.00    -0.376 A  
HETATM   12  C   UNL     1      -8.899   7.641  65.835  1.00  0.00    -0.163 A  
HETATM   13  C   UNL     1      -7.863   8.440  66.270  1.00  0.00    -0.098 A  
HETATM   14  C   UNL     1     -12.494  10.884  70.271  1.00  0.00    -0.383 A  
HETATM   15  C   UNL     1     -12.746   9.584  72.305  1.00  0.00    -0.388 A  
HETATM   16  N   UNL     1      -7.708   8.829  67.555  1.00  0.00    -0.100 NA 
HETATM   17  C   UNL     1     -13.234  10.534  71.412  1.00  0.00    -0.441 A  
ENDROOT
BRANCH   6  18
HETATM   18  C   UNL     1      -8.532   6.766  72.487  1.00  0.00    -0.122 C  
BRANCH  18  19
HETATM   19  C   UNL     1      -7.669   7.333  73.628  1.00  0.00    -0.105 C  
BRANCH  19  20
HETATM   20  N   UNL     1      -6.693   8.381  73.258  1.00  0.00    -0.161 NA 
HETATM   21  C   UNL     1      -5.954   8.907  74.404  1.00  0.00    -0.117 C  
HETATM   22  C   UNL     1      -5.747   7.819  72.283  1.00  0.00    -0.036 C  
ENDBRANCH  19  20
ENDBRANCH  18  19
ENDBRANCH   6  18
TORSDOF 3
ENDMDL
MODEL       85
REMARK 921   NORMALIZED FREE ENERGY PREDICTED BY IDOCK:   -4.36 KCAL/MOL
REMARK 922        TOTAL FREE ENERGY PREDICTED BY IDOCK:   -5.42 KCAL/MOL
REMARK 923 INTER-LIGAND FREE ENERGY PREDICTED BY IDOCK:   -5.17 KCAL/MOL
REMARK 924 INTRA-LIGAND FREE ENERGY PREDICTED BY IDOCK:   -0.25 KCAL/MOL
REMARK 927      BINDING AFFINITY PREDICTED BY RF-SCORE:    0.00 PKD
ROOT
HETATM    1  C   UNL     1      -7.857   9.885  70.229  1.00  0.00    -0.151 C  
HETATM    2  C   UNL     1      -8.638   9.072  69.167  1.00  0.00    -0.133 C  
HETATM    3  C   UNL     1      -8.955   9.917  67.925  1.00  0.00    -0.128 A  
HETATM    4  C   UNL     1      -9.795   8.317  69.799  1.00  0.00    -0.187 C  
HETATM    5  C   UNL     1     -10.134   9.773  67.194  1.00  0.00    -0.267 A  
HETATM    6  C   UNL     1      -9.993   6.980  69.913  1.00  0.00    -0.183 C  
HETATM    7  C   UNL     1     -10.314  10.519  66.028  1.00  0.00    -0.279 A  
HETATM    8  C   UNL     1     -11.230   6.638  70.725  1.00  0.00    -0.366 C  
HETATM    9  C   UNL     1     -10.926   8.972  70.483  1.00  0.00    -0.295 A  
HETATM   10  C   UNL     1     -11.750   7.995  71.056  1.00  0.00    -0.295 A  
HETATM   11  C   UNL     1     -11.253  10.314  70.623  1.00  0.00    -0.406 A  
HETATM   12  C   UNL     1      -9.314  11.381  65.603  1.00  0.00    -0.242 A  
HETATM   13  C   UNL     1      -8.167  11.464  66.364  1.00  0.00    -0.124 A  
HETATM   14  C   UNL     1     -12.389  10.659  71.359  1.00  0.00    -0.455 A  
HETATM   15  C   UNL     1     -12.875   8.322  71.799  1.00  0.00    -0.362 A  
HETATM   16  N   UNL     1      -7.967  10.749  67.493  1.00  0.00    -0.109 NA 
HETATM   17  C   UNL     1     -13.191   9.670  71.951  1.00  0.00    -0.538 A  
ENDROOT
BRANCH   6  18
HETATM   18  C   UNL     1      -9.178   5.827  69.382  1.00  0.00    -0.144 C  
BRANCH  18  19
HETATM   19  C   UNL     1      -9.938   4.495  69.519  1.00  0.00    -0.165 C  
BRANCH  19  20
HETATM   20  N   UNL     1      -9.134   3.315  69.902  1.00  0.00    -0.113 NA 
HETATM   21  C   UNL     1      -9.333   2.914  71.294  1.00  0.00    -0.138 C  
HETATM   22  C   UNL     1      -9.488   2.197  69.017  1.00  0.00    -0.086 C  
ENDBRANCH  19  20
ENDBRANCH  18  19
ENDBRANCH   6  18
TORSDOF 3
ENDMDL
MODEL       86
REMARK 921   NORMALIZED FREE ENERGY PREDICTED BY IDOCK:   -4.36 KCAL/MOL
REMARK 922        TOTAL FREE ENERGY PREDICTED BY IDOCK:   -5.42 KCAL/MOL
REMARK 923 INTER-LIGAND FREE ENERGY PREDICTED BY IDOCK:   -4.92 KCAL/MOL
REMARK 924 INTRA-LIGAND FREE ENERGY PREDICTED BY IDOCK:   -0.49 KCAL/MOL
REMARK 927      BINDING AFFINITY PREDICTED BY RF-SCORE:    0.00 PKD
ROOT
HETATM    1  C   UNL     1     -10.304   8.463  67.194  1.00  0.00    -0.381 C  
HETATM    2  C   UNL     1      -9.642   8.918  68.519  1.00  0.00    -0.165 C  
HETATM    3  C   UNL     1     -10.499   8.551  69.738  1.00  0.00    -0.220 A  
HETATM    4  C   UNL     1      -9.162  10.357  68.424  1.00  0.00    -0.147 C  
HETATM    5  C   UNL     1     -10.583   9.356  70.873  1.00  0.00    -0.390 A  
HETATM    6  C   UNL     1      -7.899  10.850  68.469  1.00  0.00    -0.126 C  
HETATM    7  C   UNL     1     -11.317   8.914  71.975  1.00  0.00    -0.427 A  
HETATM    8  C   UNL     1      -7.844  12.346  68.217  1.00  0.00    -0.150 C  
HETATM    9  C   UNL     1     -10.056  11.506  68.193  1.00  0.00    -0.201 A  
HETATM   10  C   UNL     1      -9.289  12.668  68.037  1.00  0.00    -0.209 A  
HETATM   11  C   UNL     1     -11.441  11.583  68.116  1.00  0.00    -0.385 A  
HETATM   12  C   UNL     1     -11.940   7.675  71.934  1.00  0.00    -0.331 A  
HETATM   13  C   UNL     1     -11.804   6.923  70.786  1.00  0.00    -0.377 A  
HETATM   14  C   UNL     1     -12.035  12.820  67.855  1.00  0.00    -0.320 A  
HETATM   15  C   UNL     1      -9.863  13.901  67.767  1.00  0.00    -0.237 A  
HETATM   16  N   UNL     1     -11.095   7.326  69.708  1.00  0.00    -0.221 NA 
HETATM   17  C   UNL     1     -11.251  13.971  67.674  1.00  0.00    -0.317 A  
ENDROOT
BRANCH   6  18
HETATM   18  C   UNL     1      -6.588  10.144  68.709  1.00  0.00    -0.052 C  
BRANCH  18  19
HETATM   19  C   UNL     1      -5.821   9.927  67.391  1.00  0.00    -0.050 C  
BRANCH  19  20
HETATM   20  N   UNL     1      -6.613   9.445  66.240  1.00  0.00    -0.070 NA 
HETATM   21  C   UNL     1      -6.099   9.914  64.954  1.00  0.00    -0.103 C  
HETATM   22  C   UNL     1      -6.622   7.976  66.256  1.00  0.00    -0.047 C  
ENDBRANCH  19  20
ENDBRANCH  18  19
ENDBRANCH   6  18
TORSDOF 3
ENDMDL
MODEL       87
REMARK 921   NORMALIZED FREE ENERGY PREDICTED BY IDOCK:   -4.35 KCAL/MOL
REMARK 922        TOTAL FREE ENERGY PREDICTED BY IDOCK:   -5.41 KCAL/MOL
REMARK 923 INTER-LIGAND FREE ENERGY PREDICTED BY IDOCK:   -5.17 KCAL/MOL
REMARK 924 INTRA-LIGAND FREE ENERGY PREDICTED BY IDOCK:   -0.24 KCAL/MOL
REMARK 927      BINDING AFFINITY PREDICTED BY RF-SCORE:    0.00 PKD
ROOT
HETATM    1  C   UNL     1      -9.077  10.855  68.820  1.00  0.00    -0.174 C  
HETATM    2  C   UNL     1      -9.845   9.963  67.813  1.00  0.00    -0.184 C  
HETATM    3  C   UNL     1     -10.291   8.640  68.452  1.00  0.00    -0.201 A  
HETATM    4  C   UNL     1      -9.107   9.873  66.489  1.00  0.00    -0.179 C  
HETATM    5  C   UNL     1     -10.333   7.438  67.747  1.00  0.00    -0.273 A  
HETATM    6  C   UNL     1      -9.476  10.320  65.262  1.00  0.00    -0.296 C  
HETATM    7  C   UNL     1     -10.829   6.293  68.372  1.00  0.00    -0.394 A  
HETATM    8  C   UNL     1      -8.389  10.134  64.218  1.00  0.00    -0.171 C  
HETATM    9  C   UNL     1      -7.756   9.299  66.340  1.00  0.00    -0.093 A  
HETATM   10  C   UNL     1      -7.318   9.480  65.022  1.00  0.00    -0.110 A  
HETATM   11  C   UNL     1      -6.932   8.659  67.256  1.00  0.00    -0.075 A  
HETATM   12  C   UNL     1     -11.288   6.368  69.680  1.00  0.00    -0.479 A  
HETATM   13  C   UNL     1     -11.232   7.592  70.313  1.00  0.00    -0.236 A  
HETATM   14  C   UNL     1      -5.667   8.233  66.843  1.00  0.00    -0.041 A  
HETATM   15  C   UNL     1      -6.061   9.072  64.600  1.00  0.00    -0.066 A  
HETATM   16  N   UNL     1     -10.761   8.715  69.728  1.00  0.00    -0.228 NA 
HETATM   17  C   UNL     1      -5.230   8.445  65.525  1.00  0.00    -0.031 A  
ENDROOT
BRANCH   6  18
HETATM   18  C   UNL     1     -10.761  10.968  64.810  1.00  0.00    -0.304 C  
BRANCH  18  19
HETATM   19  C   UNL     1     -10.521  12.411  64.330  1.00  0.00    -0.363 C  
BRANCH  19  20
HETATM   20  N   UNL     1     -11.685  13.112  63.746  1.00  0.00    -0.457 NA 
HETATM   21  C   UNL     1     -12.768  12.206  63.367  1.00  0.00    -0.381 C  
HETATM   22  C   UNL     1     -12.184  14.089  64.723  1.00  0.00    -0.433 C  
ENDBRANCH  19  20
ENDBRANCH  18  19
ENDBRANCH   6  18
TORSDOF 3
ENDMDL
MODEL       88
REMARK 921   NORMALIZED FREE ENERGY PREDICTED BY IDOCK:   -4.34 KCAL/MOL
REMARK 922        TOTAL FREE ENERGY PREDICTED BY IDOCK:   -5.40 KCAL/MOL
REMARK 923 INTER-LIGAND FREE ENERGY PREDICTED BY IDOCK:   -5.15 KCAL/MOL
REMARK 924 INTRA-LIGAND FREE ENERGY PREDICTED BY IDOCK:   -0.25 KCAL/MOL
REMARK 927      BINDING AFFINITY PREDICTED BY RF-SCORE:    0.00 PKD
ROOT
HETATM    1  C   UNL     1      -9.668  15.053  65.667  1.00  0.00    -0.344 C  
HETATM    2  C   UNL     1      -9.676  15.207  67.209  1.00  0.00    -0.210 C  
HETATM    3  C   UNL     1      -8.553  16.135  67.693  1.00  0.00    -0.173 A  
HETATM    4  C   UNL     1      -9.793  13.855  67.892  1.00  0.00    -0.228 C  
HETATM    5  C   UNL     1      -7.873  15.936  68.893  1.00  0.00    -0.198 A  
HETATM    6  C   UNL     1     -10.794  13.361  68.662  1.00  0.00    -0.287 C  
HETATM    7  C   UNL     1      -6.922  16.870  69.307  1.00  0.00    -0.211 A  
HETATM    8  C   UNL     1     -10.571  11.911  69.056  1.00  0.00    -0.152 C  
HETATM    9  C   UNL     1      -8.791  12.780  67.761  1.00  0.00    -0.187 A  
HETATM   10  C   UNL     1      -9.257  11.630  68.411  1.00  0.00    -0.182 A  
HETATM   11  C   UNL     1      -7.554  12.759  67.130  1.00  0.00    -0.050 A  
HETATM   12  C   UNL     1      -6.677  17.991  68.527  1.00  0.00    -0.225 A  
HETATM   13  C   UNL     1      -7.396  18.135  67.359  1.00  0.00    -0.210 A  
HETATM   14  C   UNL     1      -6.812  11.575  67.139  1.00  0.00    -0.139 A  
HETATM   15  C   UNL     1      -8.537  10.444  68.418  1.00  0.00    -0.128 A  
HETATM   16  N   UNL     1      -8.325  17.248  66.940  1.00  0.00    -0.215 NA 
HETATM   17  C   UNL     1      -7.304  10.422  67.771  1.00  0.00    -0.087 A  
ENDROOT
BRANCH   6  18
HETATM   18  C   UNL     1     -12.060  14.019  69.151  1.00  0.00    -0.375 C  
BRANCH  18  19
HETATM   19  C   UNL     1     -12.445  13.518  70.555  1.00  0.00    -0.302 C  
BRANCH  19  20
HETATM   20  N   UNL     1     -13.367  14.375  71.331  1.00  0.00    -0.340 NA 
HETATM   21  C   UNL     1     -13.680  13.831  72.652  1.00  0.00    -0.454 C  
HETATM   22  C   UNL     1     -12.759  15.704  71.482  1.00  0.00    -0.457 C  
ENDBRANCH  19  20
ENDBRANCH  18  19
ENDBRANCH   6  18
TORSDOF 3
ENDMDL
MODEL       89
REMARK 921   NORMALIZED FREE ENERGY PREDICTED BY IDOCK:   -4.32 KCAL/MOL
REMARK 922        TOTAL FREE ENERGY PREDICTED BY IDOCK:   -5.38 KCAL/MOL
REMARK 923 INTER-LIGAND FREE ENERGY PREDICTED BY IDOCK:   -5.12 KCAL/MOL
REMARK 924 INTRA-LIGAND FREE ENERGY PREDICTED BY IDOCK:   -0.26 KCAL/MOL
REMARK 927      BINDING AFFINITY PREDICTED BY RF-SCORE:    0.00 PKD
ROOT
HETATM    1  C   UNL     1     -10.840  14.134  68.854  1.00  0.00    -0.276 C  
HETATM    2  C   UNL     1     -10.162  14.591  67.538  1.00  0.00    -0.232 C  
HETATM    3  C   UNL     1     -10.720  13.840  66.321  1.00  0.00    -0.285 A  
HETATM    4  C   UNL     1      -8.651  14.632  67.688  1.00  0.00    -0.182 C  
HETATM    5  C   UNL     1      -9.933  13.488  65.226  1.00  0.00    -0.206 A  
HETATM    6  C   UNL     1      -7.807  15.694  67.640  1.00  0.00    -0.173 C  
HETATM    7  C   UNL     1     -10.530  12.880  64.119  1.00  0.00    -0.429 A  
HETATM    8  C   UNL     1      -6.371  15.316  67.958  1.00  0.00    -0.155 C  
HETATM    9  C   UNL     1      -7.824  13.448  67.988  1.00  0.00    -0.148 A  
HETATM   10  C   UNL     1      -6.495  13.848  68.181  1.00  0.00    -0.125 A  
HETATM   11  C   UNL     1      -8.160  12.105  68.096  1.00  0.00    -0.161 A  
HETATM   12  C   UNL     1     -11.898  12.648  64.117  1.00  0.00    -0.483 A  
HETATM   13  C   UNL     1     -12.619  13.035  65.227  1.00  0.00    -0.457 A  
HETATM   14  C   UNL     1      -7.162  11.184  68.424  1.00  0.00    -0.083 A  
HETATM   15  C   UNL     1      -5.496  12.946  68.517  1.00  0.00    -0.061 A  
HETATM   16  N   UNL     1     -12.066  13.630  66.308  1.00  0.00    -0.419 NA 
HETATM   17  C   UNL     1      -5.839  11.602  68.641  1.00  0.00    -0.046 A  
ENDROOT
BRANCH   6  18
HETATM   18  C   UNL     1      -8.087  17.145  67.343  1.00  0.00    -0.193 C  
BRANCH  18  19
HETATM   19  C   UNL     1      -6.856  18.023  67.634  1.00  0.00    -0.191 C  
BRANCH  19  20
HETATM   20  N   UNL     1      -6.932  18.887  68.832  1.00  0.00    -0.302 NA 
HETATM   21  C   UNL     1      -5.890  19.912  68.866  1.00  0.00    -0.240 C  
HETATM   22  C   UNL     1      -8.252  19.530  68.865  1.00  0.00    -0.274 C  
ENDBRANCH  19  20
ENDBRANCH  18  19
ENDBRANCH   6  18
TORSDOF 3
ENDMDL
MODEL       90
REMARK 921   NORMALIZED FREE ENERGY PREDICTED BY IDOCK:   -4.29 KCAL/MOL
REMARK 922        TOTAL FREE ENERGY PREDICTED BY IDOCK:   -5.35 KCAL/MOL
REMARK 923 INTER-LIGAND FREE ENERGY PREDICTED BY IDOCK:   -5.01 KCAL/MOL
REMARK 924 INTRA-LIGAND FREE ENERGY PREDICTED BY IDOCK:   -0.33 KCAL/MOL
REMARK 927      BINDING AFFINITY PREDICTED BY RF-SCORE:    0.00 PKD
ROOT
HETATM    1  C   UNL     1     -12.967   6.950  71.491  1.00  0.00    -0.362 C  
HETATM    2  C   UNL     1     -11.605   7.681  71.587  1.00  0.00    -0.301 C  
HETATM    3  C   UNL     1     -11.666   9.080  70.959  1.00  0.00    -0.296 A  
HETATM    4  C   UNL     1     -10.467   6.777  71.142  1.00  0.00    -0.239 C  
HETATM    5  C   UNL     1     -10.592   9.650  70.277  1.00  0.00    -0.333 A  
HETATM    6  C   UNL     1      -9.429   6.280  71.859  1.00  0.00    -0.160 C  
HETATM    7  C   UNL     1     -10.695  10.961  69.807  1.00  0.00    -0.193 A  
HETATM    8  C   UNL     1      -8.573   5.313  71.060  1.00  0.00    -0.127 C  
HETATM    9  C   UNL     1     -10.348   6.218  69.782  1.00  0.00    -0.260 A  
HETATM   10  C   UNL     1      -9.262   5.334  69.738  1.00  0.00    -0.167 A  
HETATM   11  C   UNL     1     -11.105   6.433  68.638  1.00  0.00    -0.393 A  
HETATM   12  C   UNL     1     -11.856  11.684  70.037  1.00  0.00    -0.435 A  
HETATM   13  C   UNL     1     -12.874  11.066  70.733  1.00  0.00    -0.266 A  
HETATM   14  C   UNL     1     -10.778   5.737  67.472  1.00  0.00    -0.320 A  
HETATM   15  C   UNL     1      -8.932   4.628  68.590  1.00  0.00    -0.142 A  
HETATM   16  N   UNL     1     -12.797   9.801  71.202  1.00  0.00    -0.347 NA 
HETATM   17  C   UNL     1      -9.703   4.833  67.449  1.00  0.00    -0.209 A  
ENDROOT
BRANCH   6  18
HETATM   18  C   UNL     1      -9.029   6.530  73.292  1.00  0.00    -0.138 C  
BRANCH  18  19
HETATM   19  C   UNL     1      -8.861   5.209  74.064  1.00  0.00    -0.117 C  
BRANCH  19  20
HETATM   20  N   UNL     1      -7.488   4.869  74.497  1.00  0.00    -0.088 NA 
HETATM   21  C   UNL     1      -6.984   3.638  73.888  1.00  0.00    -0.047 C  
HETATM   22  C   UNL     1      -6.597   5.984  74.151  1.00  0.00    -0.075 C  
ENDBRANCH  19  20
ENDBRANCH  18  19
ENDBRANCH   6  18
TORSDOF 3
ENDMDL
MODEL       91
REMARK 921   NORMALIZED FREE ENERGY PREDICTED BY IDOCK:   -4.28 KCAL/MOL
REMARK 922        TOTAL FREE ENERGY PREDICTED BY IDOCK:   -5.33 KCAL/MOL
REMARK 923 INTER-LIGAND FREE ENERGY PREDICTED BY IDOCK:   -5.05 KCAL/MOL
REMARK 924 INTRA-LIGAND FREE ENERGY PREDICTED BY IDOCK:   -0.29 KCAL/MOL
REMARK 927      BINDING AFFINITY PREDICTED BY RF-SCORE:    0.00 PKD
ROOT
HETATM    1  C   UNL     1     -12.429   7.215  70.889  1.00  0.00    -0.302 C  
HETATM    2  C   UNL     1     -10.928   7.343  70.527  1.00  0.00    -0.270 C  
HETATM    3  C   UNL     1     -10.074   7.680  71.758  1.00  0.00    -0.173 A  
HETATM    4  C   UNL     1     -10.734   8.214  69.297  1.00  0.00    -0.141 C  
HETATM    5  C   UNL     1      -8.951   8.502  71.696  1.00  0.00    -0.285 A  
HETATM    6  C   UNL     1     -10.255   7.882  68.072  1.00  0.00    -0.256 C  
HETATM    7  C   UNL     1      -8.176   8.694  72.841  1.00  0.00     0.011 A  
HETATM    8  C   UNL     1     -10.337   9.029  67.080  1.00  0.00    -0.342 C  
HETATM    9  C   UNL     1     -11.122   9.635  69.229  1.00  0.00    -0.149 A  
HETATM   10  C   UNL     1     -10.924  10.108  67.925  1.00  0.00    -0.335 A  
HETATM   11  C   UNL     1     -11.617  10.493  70.203  1.00  0.00    -0.408 A  
HETATM   12  C   UNL     1      -8.524   8.053  74.021  1.00  0.00    -0.312 A  
HETATM   13  C   UNL     1      -9.638   7.241  74.009  1.00  0.00    -0.243 A  
HETATM   14  C   UNL     1     -11.932  11.807  69.848  1.00  0.00    -0.405 A  
HETATM   15  C   UNL     1     -11.242  11.406  67.556  1.00  0.00    -0.356 A  
HETATM   16  N   UNL     1     -10.401   7.035  72.913  1.00  0.00    -0.218 NA 
HETATM   17  C   UNL     1     -11.753  12.259  68.530  1.00  0.00    -0.381 A  
ENDROOT
BRANCH   6  18
HETATM   18  C   UNL     1      -9.688   6.578  67.570  1.00  0.00    -0.141 C  
BRANCH  18  19
HETATM   19  C   UNL     1      -9.076   6.738  66.167  1.00  0.00    -0.109 C  
BRANCH  19  20
HETATM   20  N   UNL     1      -7.603   6.852  66.100  1.00  0.00    -0.090 NA 
HETATM   21  C   UNL     1      -6.913   5.857  66.920  1.00  0.00    -0.068 C  
HETATM   22  C   UNL     1      -7.182   6.707  64.700  1.00  0.00    -0.071 C  
ENDBRANCH  19  20
ENDBRANCH  18  19
ENDBRANCH   6  18
TORSDOF 3
ENDMDL
MODEL       92
REMARK 921   NORMALIZED FREE ENERGY PREDICTED BY IDOCK:   -4.27 KCAL/MOL
REMARK 922        TOTAL FREE ENERGY PREDICTED BY IDOCK:   -5.32 KCAL/MOL
REMARK 923 INTER-LIGAND FREE ENERGY PREDICTED BY IDOCK:   -4.98 KCAL/MOL
REMARK 924 INTRA-LIGAND FREE ENERGY PREDICTED BY IDOCK:   -0.34 KCAL/MOL
REMARK 927      BINDING AFFINITY PREDICTED BY RF-SCORE:    0.00 PKD
ROOT
HETATM    1  C   UNL     1      -8.141  10.074  69.494  1.00  0.00    -0.166 C  
HETATM    2  C   UNL     1      -9.558   9.643  69.041  1.00  0.00    -0.168 C  
HETATM    3  C   UNL     1      -9.960   8.290  69.647  1.00  0.00    -0.193 A  
HETATM    4  C   UNL     1      -9.723   9.800  67.539  1.00  0.00    -0.192 C  
HETATM    5  C   UNL     1     -10.737   7.358  68.962  1.00  0.00    -0.164 A  
HETATM    6  C   UNL     1     -10.543  10.627  66.843  1.00  0.00    -0.311 C  
HETATM    7  C   UNL     1     -11.133   6.186  69.610  1.00  0.00    -0.489 A  
HETATM    8  C   UNL     1     -10.312  10.555  65.344  1.00  0.00    -0.292 C  
HETATM    9  C   UNL     1      -8.917   9.068  66.544  1.00  0.00    -0.177 A  
HETATM   10  C   UNL     1      -9.233   9.531  65.260  1.00  0.00    -0.307 A  
HETATM   11  C   UNL     1      -7.967   8.067  66.699  1.00  0.00    -0.102 A  
HETATM   12  C   UNL     1     -10.761   5.971  70.929  1.00  0.00    -0.329 A  
HETATM   13  C   UNL     1     -10.005   6.942  71.552  1.00  0.00    -0.177 A  
HETATM   14  C   UNL     1      -7.327   7.563  65.564  1.00  0.00    -0.071 A  
HETATM   15  C   UNL     1      -8.599   9.048  64.125  1.00  0.00    -0.165 A  
HETATM   16  N   UNL     1      -9.615   8.086  70.949  1.00  0.00    -0.160 NA 
HETATM   17  C   UNL     1      -7.634   8.056  64.285  1.00  0.00    -0.118 A  
ENDROOT
BRANCH   6  18
HETATM   18  C   UNL     1     -11.601  11.584  67.332  1.00  0.00    -0.307 C  
BRANCH  18  19
HETATM   19  C   UNL     1     -10.978  12.906  67.817  1.00  0.00    -0.243 C  
BRANCH  19  20
HETATM   20  N   UNL     1     -10.509  13.837  66.768  1.00  0.00    -0.269 NA 
HETATM   21  C   UNL     1     -11.603  14.446  66.012  1.00  0.00    -0.363 C  
HETATM   22  C   UNL     1      -9.706  14.891  67.400  1.00  0.00    -0.217 C  
ENDBRANCH  19  20
ENDBRANCH  18  19
ENDBRANCH   6  18
TORSDOF 3
ENDMDL
MODEL       93
REMARK 921   NORMALIZED FREE ENERGY PREDICTED BY IDOCK:   -4.25 KCAL/MOL
REMARK 922        TOTAL FREE ENERGY PREDICTED BY IDOCK:   -5.29 KCAL/MOL
REMARK 923 INTER-LIGAND FREE ENERGY PREDICTED BY IDOCK:   -5.07 KCAL/MOL
REMARK 924 INTRA-LIGAND FREE ENERGY PREDICTED BY IDOCK:   -0.22 KCAL/MOL
REMARK 927      BINDING AFFINITY PREDICTED BY RF-SCORE:    0.00 PKD
ROOT
HETATM    1  C   UNL     1     -10.270  12.992  65.413  1.00  0.00    -0.301 C  
HETATM    2  C   UNL     1      -9.848  12.520  66.827  1.00  0.00    -0.232 C  
HETATM    3  C   UNL     1      -8.551  13.201  67.289  1.00  0.00    -0.210 A  
HETATM    4  C   UNL     1      -9.907  11.006  66.939  1.00  0.00    -0.222 C  
HETATM    5  C   UNL     1      -7.596  12.553  68.071  1.00  0.00    -0.127 A  
HETATM    6  C   UNL     1     -10.707  10.228  67.710  1.00  0.00    -0.324 C  
HETATM    7  C   UNL     1      -6.482  13.264  68.523  1.00  0.00    -0.085 A  
HETATM    8  C   UNL     1     -10.528   8.746  67.434  1.00  0.00    -0.349 C  
HETATM    9  C   UNL     1      -9.087  10.091  66.123  1.00  0.00    -0.188 A  
HETATM   10  C   UNL     1      -9.470   8.768  66.383  1.00  0.00    -0.291 A  
HETATM   11  C   UNL     1      -8.073  10.345  65.209  1.00  0.00    -0.152 A  
HETATM   12  C   UNL     1      -6.348  14.607  68.201  1.00  0.00    -0.144 A  
HETATM   13  C   UNL     1      -7.338  15.190  67.437  1.00  0.00    -0.205 A  
HETATM   14  C   UNL     1      -7.476   9.269  64.548  1.00  0.00    -0.102 A  
HETATM   15  C   UNL     1      -8.894   7.691  65.727  1.00  0.00    -0.134 A  
HETATM   16  N   UNL     1      -8.427  14.525  66.993  1.00  0.00    -0.215 NA 
HETATM   17  C   UNL     1      -7.889   7.950  64.799  1.00  0.00    -0.125 A  
ENDROOT
BRANCH   6  18
HETATM   18  C   UNL     1     -11.724  10.615  68.755  1.00  0.00    -0.259 C  
BRANCH  18  19
HETATM   19  C   UNL     1     -11.463   9.886  70.086  1.00  0.00    -0.248 C  
BRANCH  19  20
HETATM   20  N   UNL     1     -12.616   9.761  71.004  1.00  0.00    -0.322 NA 
HETATM   21  C   UNL     1     -12.368   8.839  72.112  1.00  0.00    -0.389 C  
HETATM   22  C   UNL     1     -12.938  11.091  71.539  1.00  0.00    -0.448 C  
ENDBRANCH  19  20
ENDBRANCH  18  19
ENDBRANCH   6  18
TORSDOF 3
ENDMDL
MODEL       94
REMARK 921   NORMALIZED FREE ENERGY PREDICTED BY IDOCK:   -4.23 KCAL/MOL
REMARK 922        TOTAL FREE ENERGY PREDICTED BY IDOCK:   -5.26 KCAL/MOL
REMARK 923 INTER-LIGAND FREE ENERGY PREDICTED BY IDOCK:   -5.00 KCAL/MOL
REMARK 924 INTRA-LIGAND FREE ENERGY PREDICTED BY IDOCK:   -0.26 KCAL/MOL
REMARK 927      BINDING AFFINITY PREDICTED BY RF-SCORE:    0.00 PKD
ROOT
HETATM    1  C   UNL     1     -10.952   7.043  72.056  1.00  0.00    -0.264 C  
HETATM    2  C   UNL     1     -10.161   8.224  71.441  1.00  0.00    -0.263 C  
HETATM    3  C   UNL     1     -11.086   9.390  71.062  1.00  0.00    -0.344 A  
HETATM    4  C   UNL     1      -9.194   7.738  70.374  1.00  0.00    -0.156 C  
HETATM    5  C   UNL     1     -10.865  10.197  69.947  1.00  0.00    -0.347 A  
HETATM    6  C   UNL     1      -7.838   7.771  70.359  1.00  0.00    -0.090 C  
HETATM    7  C   UNL     1     -11.702  11.290  69.714  1.00  0.00    -0.422 A  
HETATM    8  C   UNL     1      -7.248   7.070  69.148  1.00  0.00    -0.090 C  
HETATM    9  C   UNL     1      -9.615   7.057  69.136  1.00  0.00    -0.149 A  
HETATM   10  C   UNL     1      -8.480   6.633  68.432  1.00  0.00    -0.125 A  
HETATM   11  C   UNL     1     -10.879   6.800  68.620  1.00  0.00    -0.277 A  
HETATM   12  C   UNL     1     -12.731  11.568  70.602  1.00  0.00    -0.259 A  
HETATM   13  C   UNL     1     -12.884  10.739  71.693  1.00  0.00    -0.457 A  
HETATM   14  C   UNL     1     -10.987   6.097  67.417  1.00  0.00    -0.409 A  
HETATM   15  C   UNL     1      -8.572   5.925  67.242  1.00  0.00    -0.106 A  
HETATM   16  N   UNL     1     -12.084   9.678  71.943  1.00  0.00    -0.359 NA 
HETATM   17  C   UNL     1      -9.841   5.655  66.736  1.00  0.00    -0.185 A  
ENDROOT
BRANCH   6  18
HETATM   18  C   UNL     1      -6.869   8.370  71.347  1.00  0.00    -0.069 C  
BRANCH  18  19
HETATM   19  C   UNL     1      -5.972   9.428  70.679  1.00  0.00    -0.061 C  
BRANCH  19  20
HETATM   20  N   UNL     1      -6.569  10.766  70.479  1.00  0.00    -0.321 NA 
HETATM   21  C   UNL     1      -5.603  11.853  70.629  1.00  0.00    -0.149 C  
HETATM   22  C   UNL     1      -7.161  10.821  69.135  1.00  0.00    -0.101 C  
ENDBRANCH  19  20
ENDBRANCH  18  19
ENDBRANCH   6  18
TORSDOF 3
ENDMDL
MODEL       95
REMARK 921   NORMALIZED FREE ENERGY PREDICTED BY IDOCK:   -4.20 KCAL/MOL
REMARK 922        TOTAL FREE ENERGY PREDICTED BY IDOCK:   -5.23 KCAL/MOL
REMARK 923 INTER-LIGAND FREE ENERGY PREDICTED BY IDOCK:   -4.77 KCAL/MOL
REMARK 924 INTRA-LIGAND FREE ENERGY PREDICTED BY IDOCK:   -0.46 KCAL/MOL
REMARK 927      BINDING AFFINITY PREDICTED BY RF-SCORE:    0.00 PKD
ROOT
HETATM    1  C   UNL     1     -10.609   7.769  67.265  1.00  0.00    -0.376 C  
HETATM    2  C   UNL     1      -9.875   8.288  68.527  1.00  0.00    -0.188 C  
HETATM    3  C   UNL     1     -10.753   8.172  69.781  1.00  0.00    -0.229 A  
HETATM    4  C   UNL     1      -9.223   9.635  68.265  1.00  0.00    -0.131 C  
HETATM    5  C   UNL     1     -10.719   9.107  70.815  1.00  0.00    -0.327 A  
HETATM    6  C   UNL     1      -7.909   9.970  68.251  1.00  0.00    -0.089 C  
HETATM    7  C   UNL     1     -11.484   8.890  71.962  1.00  0.00    -0.431 A  
HETATM    8  C   UNL     1      -7.675  11.409  67.826  1.00  0.00    -0.115 C  
HETATM    9  C   UNL     1      -9.974  10.852  67.903  1.00  0.00    -0.195 A  
HETATM   10  C   UNL     1      -9.071  11.884  67.612  1.00  0.00    -0.179 A  
HETATM   11  C   UNL     1     -11.339  11.090  67.819  1.00  0.00    -0.365 A  
HETATM   12  C   UNL     1     -12.256   7.741  72.066  1.00  0.00    -0.342 A  
HETATM   13  C   UNL     1     -12.231   6.850  71.013  1.00  0.00    -0.377 A  
HETATM   14  C   UNL     1     -11.781  12.354  67.417  1.00  0.00    -0.417 A  
HETATM   15  C   UNL     1      -9.494  13.139  67.201  1.00  0.00    -0.239 A  
HETATM   16  N   UNL     1     -11.495   7.036  69.895  1.00  0.00    -0.217 NA 
HETATM   17  C   UNL     1     -10.864  13.370  67.102  1.00  0.00    -0.284 A  
ENDROOT
BRANCH   6  18
HETATM   18  C   UNL     1      -6.691   9.140  68.570  1.00  0.00    -0.059 C  
BRANCH  18  19
HETATM   19  C   UNL     1      -6.690   8.692  70.043  1.00  0.00    -0.039 C  
BRANCH  19  20
HETATM   20  N   UNL     1      -6.473   7.251  70.293  1.00  0.00    -0.041 NA 
HETATM   21  C   UNL     1      -7.443   6.678  71.225  1.00  0.00    -0.084 C  
HETATM   22  C   UNL     1      -6.546   6.535  69.012  1.00  0.00    -0.047 C  
ENDBRANCH  19  20
ENDBRANCH  18  19
ENDBRANCH   6  18
TORSDOF 3
ENDMDL
MODEL       96
REMARK 921   NORMALIZED FREE ENERGY PREDICTED BY IDOCK:   -4.18 KCAL/MOL
REMARK 922        TOTAL FREE ENERGY PREDICTED BY IDOCK:   -5.21 KCAL/MOL
REMARK 923 INTER-LIGAND FREE ENERGY PREDICTED BY IDOCK:   -4.97 KCAL/MOL
REMARK 924 INTRA-LIGAND FREE ENERGY PREDICTED BY IDOCK:   -0.24 KCAL/MOL
REMARK 927      BINDING AFFINITY PREDICTED BY RF-SCORE:    0.00 PKD
ROOT
HETATM    1  C   UNL     1     -11.340   6.200  70.388  1.00  0.00    -0.399 C  
HETATM    2  C   UNL     1     -10.103   7.093  70.656  1.00  0.00    -0.198 C  
HETATM    3  C   UNL     1      -9.505   6.832  72.046  1.00  0.00    -0.141 A  
HETATM    4  C   UNL     1     -10.382   8.540  70.287  1.00  0.00    -0.218 C  
HETATM    5  C   UNL     1      -8.933   7.838  72.822  1.00  0.00    -0.236 A  
HETATM    6  C   UNL     1      -9.822   9.308  69.320  1.00  0.00    -0.172 C  
HETATM    7  C   UNL     1      -8.334   7.509  74.040  1.00  0.00    -0.239 A  
HETATM    8  C   UNL     1     -10.473  10.675  69.206  1.00  0.00    -0.252 C  
HETATM    9  C   UNL     1     -11.420   9.364  70.934  1.00  0.00    -0.382 A  
HETATM   10  C   UNL     1     -11.502  10.602  70.282  1.00  0.00    -0.422 A  
HETATM   11  C   UNL     1     -12.257   9.099  72.010  1.00  0.00    -0.443 A  
HETATM   12  C   UNL     1      -8.302   6.186  74.454  1.00  0.00    -0.117 A  
HETATM   13  C   UNL     1      -8.873   5.238  73.630  1.00  0.00    -0.122 A  
HETATM   14  C   UNL     1     -13.183  10.069  72.401  1.00  0.00    -0.263 A  
HETATM   15  C   UNL     1     -12.423  11.571  70.652  1.00  0.00    -0.405 A  
HETATM   16  N   UNL     1      -9.454   5.531  72.446  1.00  0.00    -0.144 NA 
HETATM   17  C   UNL     1     -13.271  11.295  71.721  1.00  0.00    -0.480 A  
ENDROOT
BRANCH   6  18
HETATM   18  C   UNL     1      -8.695   9.001  68.366  1.00  0.00    -0.130 C  
BRANCH  18  19
HETATM   19  C   UNL     1      -7.400   8.653  69.123  1.00  0.00    -0.076 C  
BRANCH  19  20
HETATM   20  N   UNL     1      -6.242   9.541  68.889  1.00  0.00    -0.043 NA 
HETATM   21  C   UNL     1      -5.698  10.112  70.120  1.00  0.00    -0.054 C  
HETATM   22  C   UNL     1      -5.193   8.774  68.202  1.00  0.00    -0.034 C  
ENDBRANCH  19  20
ENDBRANCH  18  19
ENDBRANCH   6  18
TORSDOF 3
ENDMDL
MODEL       97
REMARK 921   NORMALIZED FREE ENERGY PREDICTED BY IDOCK:   -4.17 KCAL/MOL
REMARK 922        TOTAL FREE ENERGY PREDICTED BY IDOCK:   -5.20 KCAL/MOL
REMARK 923 INTER-LIGAND FREE ENERGY PREDICTED BY IDOCK:   -4.81 KCAL/MOL
REMARK 924 INTRA-LIGAND FREE ENERGY PREDICTED BY IDOCK:   -0.40 KCAL/MOL
REMARK 927      BINDING AFFINITY PREDICTED BY RF-SCORE:    0.00 PKD
ROOT
HETATM    1  C   UNL     1     -10.856   6.319  68.240  1.00  0.00    -0.397 C  
HETATM    2  C   UNL     1     -10.846   7.371  69.376  1.00  0.00    -0.184 C  
HETATM    3  C   UNL     1      -9.533   8.166  69.403  1.00  0.00    -0.162 A  
HETATM    4  C   UNL     1     -11.307   6.761  70.689  1.00  0.00    -0.384 C  
HETATM    5  C   UNL     1      -8.941   8.607  70.585  1.00  0.00    -0.199 A  
HETATM    6  C   UNL     1     -12.411   7.037  71.429  1.00  0.00    -0.419 C  
HETATM    7  C   UNL     1      -7.791   9.397  70.524  1.00  0.00    -0.185 A  
HETATM    8  C   UNL     1     -12.563   6.112  72.623  1.00  0.00     0.328 C  
HETATM    9  C   UNL     1     -10.605   5.659  71.373  1.00  0.00    -0.317 A  
HETATM   10  C   UNL     1     -11.354   5.252  72.486  1.00  0.00    -0.245 A  
HETATM   11  C   UNL     1      -9.404   5.024  71.084  1.00  0.00    -0.199 A  
HETATM   12  C   UNL     1      -7.262   9.745  69.290  1.00  0.00    -0.072 A  
HETATM   13  C   UNL     1      -7.907   9.288  68.160  1.00  0.00    -0.095 A  
HETATM   14  C   UNL     1      -8.984   3.972  71.901  1.00  0.00    -0.156 A  
HETATM   15  C   UNL     1     -10.954   4.202  73.299  1.00  0.00    -0.324 A  
HETATM   16  N   UNL     1      -9.023   8.527  68.192  1.00  0.00    -0.142 NA 
HETATM   17  C   UNL     1      -9.757   3.557  72.997  1.00  0.00    -0.174 A  
ENDROOT
BRANCH   6  18
HETATM   18  C   UNL     1     -13.477   8.085  71.229  1.00  0.00    -0.178 C  
BRANCH  18  19
HETATM   19  C   UNL     1     -13.220   9.320  72.112  1.00  0.00    -0.461 C  
BRANCH  19  20
HETATM   20  N   UNL     1     -12.529  10.457  71.468  1.00  0.00    -0.398 NA 
HETATM   21  C   UNL     1     -12.569  10.399  70.008  1.00  0.00    -0.060 C  
HETATM   22  C   UNL     1     -13.154  11.706  71.924  1.00  0.00    -0.385 C  
ENDBRANCH  19  20
ENDBRANCH  18  19
ENDBRANCH   6  18
TORSDOF 3
ENDMDL
MODEL       98
REMARK 921   NORMALIZED FREE ENERGY PREDICTED BY IDOCK:   -4.17 KCAL/MOL
REMARK 922        TOTAL FREE ENERGY PREDICTED BY IDOCK:   -5.20 KCAL/MOL
REMARK 923 INTER-LIGAND FREE ENERGY PREDICTED BY IDOCK:   -4.86 KCAL/MOL
REMARK 924 INTRA-LIGAND FREE ENERGY PREDICTED BY IDOCK:   -0.34 KCAL/MOL
REMARK 927      BINDING AFFINITY PREDICTED BY RF-SCORE:    0.00 PKD
ROOT
HETATM    1  C   UNL     1      -7.413  10.613  69.394  1.00  0.00    -0.135 C  
HETATM    2  C   UNL     1      -7.905   9.146  69.449  1.00  0.00    -0.095 C  
HETATM    3  C   UNL     1      -8.161   8.580  68.045  1.00  0.00    -0.120 A  
HETATM    4  C   UNL     1      -9.018   8.981  70.470  1.00  0.00    -0.249 C  
HETATM    5  C   UNL     1      -9.188   7.678  67.770  1.00  0.00    -0.141 A  
HETATM    6  C   UNL     1      -9.032   8.265  71.623  1.00  0.00    -0.235 C  
HETATM    7  C   UNL     1      -9.306   7.143  66.486  1.00  0.00    -0.208 A  
HETATM    8  C   UNL     1     -10.309   8.463  72.420  1.00  0.00    -0.399 C  
HETATM    9  C   UNL     1     -10.319   9.670  70.385  1.00  0.00    -0.350 A  
HETATM   10  C   UNL     1     -11.064   9.399  71.539  1.00  0.00    -0.446 A  
HETATM   11  C   UNL     1     -10.856  10.484  69.396  1.00  0.00    -0.291 A  
HETATM   12  C   UNL     1      -8.393   7.502  65.505  1.00  0.00    -0.137 A  
HETATM   13  C   UNL     1      -7.392   8.387  65.849  1.00  0.00    -0.073 A  
HETATM   14  C   UNL     1     -12.124  11.037  69.592  1.00  0.00    -0.411 A  
HETATM   15  C   UNL     1     -12.320   9.948  71.752  1.00  0.00    -0.456 A  
HETATM   16  N   UNL     1      -7.254   8.914  67.085  1.00  0.00    -0.082 NA 
HETATM   17  C   UNL     1     -12.849  10.777  70.767  1.00  0.00    -0.408 A  
ENDROOT
BRANCH   6  18
HETATM   18  C   UNL     1      -7.989   7.348  72.210  1.00  0.00    -0.110 C  
BRANCH  18  19
HETATM   19  C   UNL     1      -8.636   6.236  73.056  1.00  0.00    -0.121 C  
BRANCH  19  20
HETATM   20  N   UNL     1      -8.661   4.884  72.457  1.00  0.00    -0.119 NA 
HETATM   21  C   UNL     1      -7.994   3.878  73.283  1.00  0.00    -0.088 C  
HETATM   22  C   UNL     1     -10.061   4.490  72.244  1.00  0.00    -0.191 C  
ENDBRANCH  19  20
ENDBRANCH  18  19
ENDBRANCH   6  18
TORSDOF 3
ENDMDL
MODEL       99
REMARK 921   NORMALIZED FREE ENERGY PREDICTED BY IDOCK:   -4.16 KCAL/MOL
REMARK 922        TOTAL FREE ENERGY PREDICTED BY IDOCK:   -5.18 KCAL/MOL
REMARK 923 INTER-LIGAND FREE ENERGY PREDICTED BY IDOCK:   -4.92 KCAL/MOL
REMARK 924 INTRA-LIGAND FREE ENERGY PREDICTED BY IDOCK:   -0.27 KCAL/MOL
REMARK 927      BINDING AFFINITY PREDICTED BY RF-SCORE:    0.00 PKD
ROOT
HETATM    1  C   UNL     1      -7.813  10.622  68.962  1.00  0.00    -0.137 C  
HETATM    2  C   UNL     1      -8.842  10.636  67.805  1.00  0.00    -0.133 C  
HETATM    3  C   UNL     1      -9.836  11.798  67.942  1.00  0.00    -0.183 A  
HETATM    4  C   UNL     1      -9.429   9.252  67.579  1.00  0.00    -0.160 C  
HETATM    5  C   UNL     1     -11.173  11.697  67.563  1.00  0.00    -0.355 A  
HETATM    6  C   UNL     1      -9.318   8.433  66.503  1.00  0.00    -0.259 C  
HETATM    7  C   UNL     1     -11.996  12.822  67.639  1.00  0.00    -0.331 A  
HETATM    8  C   UNL     1      -9.963   7.077  66.730  1.00  0.00    -0.266 C  
HETATM    9  C   UNL     1     -10.212   8.518  68.591  1.00  0.00    -0.217 A  
HETATM   10  C   UNL     1     -10.497   7.232  68.113  1.00  0.00    -0.244 A  
HETATM   11  C   UNL     1     -10.663   8.900  69.847  1.00  0.00    -0.236 A  
HETATM   12  C   UNL     1     -11.469  14.029  68.076  1.00  0.00    -0.342 A  
HETATM   13  C   UNL     1     -10.134  14.064  68.420  1.00  0.00    -0.236 A  
HETATM   14  C   UNL     1     -11.373   7.976  70.619  1.00  0.00    -0.256 A  
HETATM   15  C   UNL     1     -11.191   6.301  68.872  1.00  0.00    -0.387 A  
HETATM   16  N   UNL     1      -9.317  12.990  68.350  1.00  0.00    -0.187 NA 
HETATM   17  C   UNL     1     -11.628   6.682  70.138  1.00  0.00    -0.446 A  
ENDROOT
BRANCH   6  18
HETATM   18  C   UNL     1      -8.655   8.665  65.169  1.00  0.00    -0.200 C  
BRANCH  18  19
HETATM   19  C   UNL     1      -7.133   8.451  65.257  1.00  0.00    -0.075 C  
BRANCH  19  20
HETATM   20  N   UNL     1      -6.402   8.387  63.972  1.00  0.00    -0.071 NA 
HETATM   21  C   UNL     1      -7.237   7.939  62.859  1.00  0.00    -0.091 C  
HETATM   22  C   UNL     1      -5.863   9.721  63.672  1.00  0.00    -0.108 C  
ENDBRANCH  19  20
ENDBRANCH  18  19
ENDBRANCH   6  18
TORSDOF 3
ENDMDL
MODEL      100
REMARK 921   NORMALIZED FREE ENERGY PREDICTED BY IDOCK:   -4.10 KCAL/MOL
REMARK 922        TOTAL FREE ENERGY PREDICTED BY IDOCK:   -5.11 KCAL/MOL
REMARK 923 INTER-LIGAND FREE ENERGY PREDICTED BY IDOCK:   -4.80 KCAL/MOL
REMARK 924 INTRA-LIGAND FREE ENERGY PREDICTED BY IDOCK:   -0.31 KCAL/MOL
REMARK 927      BINDING AFFINITY PREDICTED BY RF-SCORE:    0.00 PKD
ROOT
HETATM    1  C   UNL     1      -8.461   8.233  69.850  1.00  0.00    -0.127 C  
HETATM    2  C   UNL     1      -9.860   7.625  69.581  1.00  0.00    -0.181 C  
HETATM    3  C   UNL     1     -10.942   8.286  70.448  1.00  0.00    -0.239 A  
HETATM    4  C   UNL     1      -9.807   6.106  69.587  1.00  0.00    -0.196 C  
HETATM    5  C   UNL     1     -12.032   7.584  70.959  1.00  0.00    -0.317 A  
HETATM    6  C   UNL     1     -10.033   5.231  68.575  1.00  0.00    -0.227 C  
HETATM    7  C   UNL     1     -13.020   8.271  71.668  1.00  0.00    -0.357 A  
HETATM    8  C   UNL     1      -9.758   3.792  68.973  1.00  0.00    -0.094 C  
HETATM    9  C   UNL     1      -9.416   5.304  70.761  1.00  0.00    -0.221 A  
HETATM   10  C   UNL     1      -9.352   3.952  70.398  1.00  0.00    -0.231 A  
HETATM   11  C   UNL     1      -9.126   5.679  72.066  1.00  0.00    -0.145 A  
HETATM   12  C   UNL     1     -12.912   9.643  71.841  1.00  0.00    -0.527 A  
HETATM   13  C   UNL     1     -11.816  10.278  71.295  1.00  0.00    -0.335 A  
HETATM   14  C   UNL     1      -8.750   4.695  72.983  1.00  0.00    -0.113 A  
HETATM   15  C   UNL     1      -8.969   2.965  71.295  1.00  0.00    -0.161 A  
HETATM   16  N   UNL     1     -10.850   9.636  70.601  1.00  0.00    -0.295 NA 
HETATM   17  C   UNL     1      -8.664   3.347  72.599  1.00  0.00    -0.094 A  
ENDROOT
BRANCH   6  18
HETATM   18  C   UNL     1     -10.487   5.479  67.159  1.00  0.00    -0.321 C  
BRANCH  18  19
HETATM   19  C   UNL     1      -9.299   5.836  66.246  1.00  0.00    -0.156 C  
BRANCH  19  20
HETATM   20  N   UNL     1      -8.832   4.774  65.328  1.00  0.00    -0.144 NA 
HETATM   21  C   UNL     1      -9.928   4.020  64.720  1.00  0.00    -0.205 C  
HETATM   22  C   UNL     1      -8.019   5.391  64.271  1.00  0.00    -0.118 C  
ENDBRANCH  19  20
ENDBRANCH  18  19
ENDBRANCH   6  18
TORSDOF 3
ENDMDL
MODEL      101
REMARK 921   NORMALIZED FREE ENERGY PREDICTED BY IDOCK:   -4.08 KCAL/MOL
REMARK 922        TOTAL FREE ENERGY PREDICTED BY IDOCK:   -5.09 KCAL/MOL
REMARK 923 INTER-LIGAND FREE ENERGY PREDICTED BY IDOCK:   -4.78 KCAL/MOL
REMARK 924 INTRA-LIGAND FREE ENERGY PREDICTED BY IDOCK:   -0.31 KCAL/MOL
REMARK 927      BINDING AFFINITY PREDICTED BY RF-SCORE:    0.00 PKD
ROOT
HETATM    1  C   UNL     1     -10.466   5.364  67.581  1.00  0.00    -0.217 C  
HETATM    2  C   UNL     1      -9.789   6.366  68.549  1.00  0.00    -0.145 C  
HETATM    3  C   UNL     1      -8.273   6.443  68.317  1.00  0.00    -0.116 A  
HETATM    4  C   UNL     1     -10.256   6.145  69.978  1.00  0.00    -0.250 C  
HETATM    5  C   UNL     1      -7.360   6.636  69.352  1.00  0.00    -0.092 A  
HETATM    6  C   UNL     1     -10.972   6.964  70.788  1.00  0.00    -0.297 C  
HETATM    7  C   UNL     1      -6.004   6.781  69.053  1.00  0.00    -0.022 A  
HETATM    8  C   UNL     1     -11.332   6.312  72.111  1.00  0.00    -0.343 C  
HETATM    9  C   UNL     1     -10.035   4.895  70.729  1.00  0.00    -0.292 A  
HETATM   10  C   UNL     1     -10.692   4.974  71.964  1.00  0.00    -0.205 A  
HETATM   11  C   UNL     1      -9.323   3.748  70.402  1.00  0.00    -0.235 A  
HETATM   12  C   UNL     1      -5.585   6.746  67.731  1.00  0.00    -0.015 A  
HETATM   13  C   UNL     1      -6.543   6.567  66.755  1.00  0.00    -0.048 A  
HETATM   14  C   UNL     1      -9.304   2.685  71.307  1.00  0.00    -0.207 A  
HETATM   15  C   UNL     1     -10.690   3.922  72.869  1.00  0.00    -0.208 A  
HETATM   16  N   UNL     1      -7.861   6.430  67.019  1.00  0.00    -0.103 NA 
HETATM   17  C   UNL     1      -9.990   2.767  72.530  1.00  0.00    -0.229 A  
ENDROOT
BRANCH   6  18
HETATM   18  C   UNL     1     -11.457   8.374  70.562  1.00  0.00    -0.189 C  
BRANCH  18  19
HETATM   19  C   UNL     1     -11.518   9.163  71.883  1.00  0.00    -0.353 C  
BRANCH  19  20
HETATM   20  N   UNL     1     -12.752   9.939  72.129  1.00  0.00    -0.345 NA 
HETATM   21  C   UNL     1     -12.908  11.073  71.219  1.00  0.00    -0.425 C  
HETATM   22  C   UNL     1     -13.907   9.042  71.993  1.00  0.00    -0.444 C  
ENDBRANCH  19  20
ENDBRANCH  18  19
ENDBRANCH   6  18
TORSDOF 3
ENDMDL
MODEL      102
REMARK 921   NORMALIZED FREE ENERGY PREDICTED BY IDOCK:   -4.07 KCAL/MOL
REMARK 922        TOTAL FREE ENERGY PREDICTED BY IDOCK:   -5.08 KCAL/MOL
REMARK 923 INTER-LIGAND FREE ENERGY PREDICTED BY IDOCK:   -4.75 KCAL/MOL
REMARK 924 INTRA-LIGAND FREE ENERGY PREDICTED BY IDOCK:   -0.34 KCAL/MOL
REMARK 927      BINDING AFFINITY PREDICTED BY RF-SCORE:    0.00 PKD
ROOT
HETATM    1  C   UNL     1      -7.335   6.680  70.979  1.00  0.00    -0.079 C  
HETATM    2  C   UNL     1      -8.822   7.052  71.204  1.00  0.00    -0.141 C  
HETATM    3  C   UNL     1      -9.497   6.107  72.209  1.00  0.00    -0.149 A  
HETATM    4  C   UNL     1      -9.537   7.274  69.882  1.00  0.00    -0.163 C  
HETATM    5  C   UNL     1     -10.831   5.718  72.100  1.00  0.00    -0.296 A  
HETATM    6  C   UNL     1     -10.083   8.408  69.376  1.00  0.00    -0.198 C  
HETATM    7  C   UNL     1     -11.398   4.924  73.099  1.00  0.00    -0.395 A  
HETATM    8  C   UNL     1     -10.601   8.229  67.960  1.00  0.00    -0.188 C  
HETATM    9  C   UNL     1      -9.701   6.231  68.853  1.00  0.00    -0.144 A  
HETATM   10  C   UNL     1     -10.292   6.792  67.713  1.00  0.00    -0.245 A  
HETATM   11  C   UNL     1      -9.375   4.881  68.863  1.00  0.00    -0.180 A  
HETATM   12  C   UNL     1     -10.633   4.546  74.192  1.00  0.00    -0.335 A  
HETATM   13  C   UNL     1      -9.325   4.979  74.245  1.00  0.00    -0.122 A  
HETATM   14  C   UNL     1      -9.621   4.118  67.719  1.00  0.00    -0.208 A  
HETATM   15  C   UNL     1     -10.532   6.050  66.566  1.00  0.00    -0.227 A  
HETATM   16  N   UNL     1      -8.755   5.752  73.294  1.00  0.00    -0.119 NA 
HETATM   17  C   UNL     1     -10.189   4.700  66.574  1.00  0.00    -0.273 A  
ENDROOT
BRANCH   6  18
HETATM   18  C   UNL     1     -10.229   9.776  69.994  1.00  0.00    -0.308 C  
BRANCH  18  19
HETATM   19  C   UNL     1     -11.233  10.640  69.209  1.00  0.00    -0.273 C  
BRANCH  19  20
HETATM   20  N   UNL     1     -10.677  11.804  68.487  1.00  0.00    -0.211 NA 
HETATM   21  C   UNL     1      -9.216  11.790  68.418  1.00  0.00    -0.175 C  
HETATM   22  C   UNL     1     -11.229  11.821  67.126  1.00  0.00    -0.316 C  
ENDBRANCH  19  20
ENDBRANCH  18  19
ENDBRANCH   6  18
TORSDOF 3
ENDMDL
MODEL      103
REMARK 921   NORMALIZED FREE ENERGY PREDICTED BY IDOCK:   -4.07 KCAL/MOL
REMARK 922        TOTAL FREE ENERGY PREDICTED BY IDOCK:   -5.08 KCAL/MOL
REMARK 923 INTER-LIGAND FREE ENERGY PREDICTED BY IDOCK:   -4.79 KCAL/MOL
REMARK 924 INTRA-LIGAND FREE ENERGY PREDICTED BY IDOCK:   -0.29 KCAL/MOL
REMARK 927      BINDING AFFINITY PREDICTED BY RF-SCORE:    0.00 PKD
ROOT
HETATM    1  C   UNL     1      -9.610  18.115  68.551  1.00  0.00    -0.349 C  
HETATM    2  C   UNL     1      -8.348  17.513  67.886  1.00  0.00    -0.229 C  
HETATM    3  C   UNL     1      -7.684  18.508  66.924  1.00  0.00    -0.227 A  
HETATM    4  C   UNL     1      -8.624  16.118  67.350  1.00  0.00    -0.196 C  
HETATM    5  C   UNL     1      -7.058  18.114  65.742  1.00  0.00    -0.256 A  
HETATM    6  C   UNL     1      -8.102  14.927  67.735  1.00  0.00    -0.162 C  
HETATM    7  C   UNL     1      -6.403  19.067  64.961  1.00  0.00    -0.283 A  
HETATM    8  C   UNL     1      -8.737  13.749  67.018  1.00  0.00    -0.212 C  
HETATM    9  C   UNL     1      -9.615  15.826  66.298  1.00  0.00    -0.343 A  
HETATM   10  C   UNL     1      -9.711  14.438  66.124  1.00  0.00    -0.335 A  
HETATM   11  C   UNL     1     -10.400  16.670  65.524  1.00  0.00    -0.268 A  
HETATM   12  C   UNL     1      -6.371  20.391  65.375  1.00  0.00    -0.290 A  
HETATM   13  C   UNL     1      -6.997  20.710  66.562  1.00  0.00    -0.231 A  
HETATM   14  C   UNL     1     -11.290  16.110  64.604  1.00  0.00    -0.287 A  
HETATM   15  C   UNL     1     -10.597  13.868  65.223  1.00  0.00    -0.372 A  
HETATM   16  N   UNL     1      -7.632  19.805  67.339  1.00  0.00    -0.259 NA 
HETATM   17  C   UNL     1     -11.394  14.717  64.460  1.00  0.00    -0.309 A  
ENDROOT
BRANCH   6  18
HETATM   18  C   UNL     1      -7.030  14.618  68.750  1.00  0.00    -0.102 C  
BRANCH  18  19
HETATM   19  C   UNL     1      -7.255  13.239  69.398  1.00  0.00     0.230 C  
BRANCH  19  20
HETATM   20  N   UNL     1      -6.048  12.415  69.628  1.00  0.00    -0.124 NA 
HETATM   21  C   UNL     1      -6.346  10.991  69.775  1.00  0.00    -0.124 C  
HETATM   22  C   UNL     1      -5.126  12.607  68.501  1.00  0.00    -0.059 C  
ENDBRANCH  19  20
ENDBRANCH  18  19
ENDBRANCH   6  18
TORSDOF 3
ENDMDL
MODEL      104
REMARK 921   NORMALIZED FREE ENERGY PREDICTED BY IDOCK:   -4.06 KCAL/MOL
REMARK 922        TOTAL FREE ENERGY PREDICTED BY IDOCK:   -5.07 KCAL/MOL
REMARK 923 INTER-LIGAND FREE ENERGY PREDICTED BY IDOCK:   -4.72 KCAL/MOL
REMARK 924 INTRA-LIGAND FREE ENERGY PREDICTED BY IDOCK:   -0.35 KCAL/MOL
REMARK 927      BINDING AFFINITY PREDICTED BY RF-SCORE:    0.00 PKD
ROOT
HETATM    1  C   UNL     1      -7.489   6.971  70.117  1.00  0.00    -0.086 C  
HETATM    2  C   UNL     1      -8.852   7.256  69.440  1.00  0.00    -0.137 C  
HETATM    3  C   UNL     1      -9.982   7.389  70.471  1.00  0.00    -0.184 A  
HETATM    4  C   UNL     1      -9.092   6.310  68.275  1.00  0.00    -0.113 C  
HETATM    5  C   UNL     1     -11.282   6.951  70.226  1.00  0.00    -0.363 A  
HETATM    6  C   UNL     1      -9.198   6.583  66.950  1.00  0.00    -0.153 C  
HETATM    7  C   UNL     1     -12.275   7.182  71.180  1.00  0.00    -0.405 A  
HETATM    8  C   UNL     1      -9.319   5.329  66.101  1.00  0.00    -0.164 C  
HETATM    9  C   UNL     1      -9.192   4.846  68.415  1.00  0.00    -0.157 A  
HETATM   10  C   UNL     1      -9.290   4.264  67.144  1.00  0.00    -0.187 A  
HETATM   11  C   UNL     1      -9.200   4.036  69.543  1.00  0.00    -0.220 A  
HETATM   12  C   UNL     1     -11.960   7.857  72.350  1.00  0.00    -0.373 A  
HETATM   13  C   UNL     1     -10.657   8.277  72.521  1.00  0.00    -0.337 A  
HETATM   14  C   UNL     1      -9.280   2.651  69.379  1.00  0.00    -0.198 A  
HETATM   15  C   UNL     1      -9.359   2.890  66.965  1.00  0.00    -0.132 A  
HETATM   16  N   UNL     1      -9.680   8.069  71.611  1.00  0.00    -0.163 NA 
HETATM   17  C   UNL     1      -9.351   2.080  68.098  1.00  0.00    -0.248 A  
ENDROOT
BRANCH   6  18
HETATM   18  C   UNL     1      -9.196   7.906  66.226  1.00  0.00    -0.231 C  
BRANCH  18  19
HETATM   19  C   UNL     1     -10.400   8.771  66.640  1.00  0.00    -0.228 C  
BRANCH  19  20
HETATM   20  N   UNL     1     -10.121  10.196  66.922  1.00  0.00    -0.213 NA 
HETATM   21  C   UNL     1     -11.070  10.790  67.863  1.00  0.00    -0.308 C  
HETATM   22  C   UNL     1      -8.760  10.310  67.464  1.00  0.00    -0.125 C  
ENDBRANCH  19  20
ENDBRANCH  18  19
ENDBRANCH   6  18
TORSDOF 3
ENDMDL
MODEL      105
REMARK 921   NORMALIZED FREE ENERGY PREDICTED BY IDOCK:   -4.05 KCAL/MOL
REMARK 922        TOTAL FREE ENERGY PREDICTED BY IDOCK:   -5.06 KCAL/MOL
REMARK 923 INTER-LIGAND FREE ENERGY PREDICTED BY IDOCK:   -4.73 KCAL/MOL
REMARK 924 INTRA-LIGAND FREE ENERGY PREDICTED BY IDOCK:   -0.33 KCAL/MOL
REMARK 927      BINDING AFFINITY PREDICTED BY RF-SCORE:    0.00 PKD
ROOT
HETATM    1  C   UNL     1     -14.149   9.390  70.497  1.00  0.00     0.709 C  
HETATM    2  C   UNL     1     -12.632   9.511  70.210  1.00  0.00     0.308 C  
HETATM    3  C   UNL     1     -11.792   8.838  71.305  1.00  0.00    -0.303 A  
HETATM    4  C   UNL     1     -12.259  10.935  69.834  1.00  0.00    -0.408 C  
HETATM    5  C   UNL     1     -10.557   9.333  71.721  1.00  0.00    -0.286 A  
HETATM    6  C   UNL     1     -11.781  11.421  68.661  1.00  0.00    -0.394 C  
HETATM    7  C   UNL     1      -9.813   8.620  72.662  1.00  0.00    -0.184 A  
HETATM    8  C   UNL     1     -11.649  12.933  68.664  1.00  0.00    -0.353 C  
HETATM    9  C   UNL     1     -12.428  12.091  70.734  1.00  0.00    -0.372 A  
HETATM   10  C   UNL     1     -12.106  13.267  70.043  1.00  0.00    -0.385 A  
HETATM   11  C   UNL     1     -12.832  12.163  72.060  1.00  0.00    -0.256 A  
HETATM   12  C   UNL     1     -10.303   7.421  73.160  1.00  0.00    -0.384 A  
HETATM   13  C   UNL     1     -11.524   6.980  72.694  1.00  0.00    -0.211 A  
HETATM   14  C   UNL     1     -12.932  13.417  72.668  1.00  0.00    -0.217 A  
HETATM   15  C   UNL     1     -12.211  14.519  70.629  1.00  0.00    -0.401 A  
HETATM   16  N   UNL     1     -12.260   7.650  71.780  1.00  0.00    -0.300 NA 
HETATM   17  C   UNL     1     -12.632  14.589  71.955  1.00  0.00    -0.413 A  
ENDROOT
BRANCH   6  18
HETATM   18  C   UNL     1     -11.393  10.698  67.396  1.00  0.00    -0.185 C  
BRANCH  18  19
HETATM   19  C   UNL     1     -10.241  11.419  66.671  1.00  0.00    -0.222 C  
BRANCH  19  20
HETATM   20  N   UNL     1      -9.043  10.607  66.369  1.00  0.00    -0.161 NA 
HETATM   21  C   UNL     1      -7.880  10.979  67.173  1.00  0.00    -0.135 C  
HETATM   22  C   UNL     1      -9.364   9.192  66.600  1.00  0.00    -0.177 C  
ENDBRANCH  19  20
ENDBRANCH  18  19
ENDBRANCH   6  18
TORSDOF 3
ENDMDL
MODEL      106
REMARK 921   NORMALIZED FREE ENERGY PREDICTED BY IDOCK:   -4.01 KCAL/MOL
REMARK 922        TOTAL FREE ENERGY PREDICTED BY IDOCK:   -5.01 KCAL/MOL
REMARK 923 INTER-LIGAND FREE ENERGY PREDICTED BY IDOCK:   -4.86 KCAL/MOL
REMARK 924 INTRA-LIGAND FREE ENERGY PREDICTED BY IDOCK:   -0.15 KCAL/MOL
REMARK 927      BINDING AFFINITY PREDICTED BY RF-SCORE:    0.00 PKD
ROOT
HETATM    1  C   UNL     1      -7.938   7.024  70.242  1.00  0.00    -0.117 C  
HETATM    2  C   UNL     1      -9.296   6.824  69.525  1.00  0.00    -0.146 C  
HETATM    3  C   UNL     1     -10.474   7.257  70.410  1.00  0.00    -0.220 A  
HETATM    4  C   UNL     1      -9.382   5.446  68.891  1.00  0.00    -0.161 C  
HETATM    5  C   UNL     1     -11.707   6.607  70.397  1.00  0.00    -0.446 A  
HETATM    6  C   UNL     1      -9.465   5.103  67.581  1.00  0.00    -0.145 C  
HETATM    7  C   UNL     1     -12.757   7.110  71.167  1.00  0.00    -0.363 A  
HETATM    8  C   UNL     1      -9.412   3.601  67.364  1.00  0.00    -0.238 C  
HETATM    9  C   UNL     1      -9.324   4.187  69.655  1.00  0.00    -0.241 A  
HETATM   10  C   UNL     1      -9.306   3.105  68.765  1.00  0.00    -0.231 A  
HETATM   11  C   UNL     1      -9.287   3.951  71.023  1.00  0.00    -0.222 A  
HETATM   12  C   UNL     1     -12.565   8.257  71.923  1.00  0.00    -0.379 A  
HETATM   13  C   UNL     1     -11.325   8.860  71.878  1.00  0.00    -0.376 A  
HETATM   14  C   UNL     1      -9.206   2.633  71.479  1.00  0.00    -0.185 A  
HETATM   15  C   UNL     1      -9.215   1.792  69.203  1.00  0.00    -0.188 A  
HETATM   16  N   UNL     1     -10.295   8.395  71.137  1.00  0.00    -0.204 NA 
HETATM   17  C   UNL     1      -9.161   1.559  70.575  1.00  0.00    -0.154 A  
ENDROOT
BRANCH   6  18
HETATM   18  C   UNL     1      -9.581   5.972  66.354  1.00  0.00    -0.168 C  
BRANCH  18  19
HETATM   19  C   UNL     1      -8.499   7.067  66.340  1.00  0.00    -0.130 C  
BRANCH  19  20
HETATM   20  N   UNL     1      -8.926   8.409  65.890  1.00  0.00    -0.181 NA 
HETATM   21  C   UNL     1      -9.982   8.983  66.722  1.00  0.00    -0.263 C  
HETATM   22  C   UNL     1      -7.759   9.302  65.897  1.00  0.00    -0.098 C  
ENDBRANCH  19  20
ENDBRANCH  18  19
ENDBRANCH   6  18
TORSDOF 3
ENDMDL
MODEL      107
REMARK 921   NORMALIZED FREE ENERGY PREDICTED BY IDOCK:   -4.00 KCAL/MOL
REMARK 922        TOTAL FREE ENERGY PREDICTED BY IDOCK:   -5.01 KCAL/MOL
REMARK 923 INTER-LIGAND FREE ENERGY PREDICTED BY IDOCK:   -4.70 KCAL/MOL
REMARK 924 INTRA-LIGAND FREE ENERGY PREDICTED BY IDOCK:   -0.30 KCAL/MOL
REMARK 927      BINDING AFFINITY PREDICTED BY RF-SCORE:    0.00 PKD
ROOT
HETATM    1  C   UNL     1     -11.065   6.691  67.814  1.00  0.00    -0.332 C  
HETATM    2  C   UNL     1      -9.994   7.738  68.208  1.00  0.00    -0.201 C  
HETATM    3  C   UNL     1      -8.837   7.100  68.989  1.00  0.00    -0.131 A  
HETATM    4  C   UNL     1     -10.636   8.974  68.817  1.00  0.00    -0.196 C  
HETATM    5  C   UNL     1      -8.167   7.760  70.019  1.00  0.00    -0.121 A  
HETATM    6  C   UNL     1     -10.666  10.248  68.352  1.00  0.00    -0.263 C  
HETATM    7  C   UNL     1      -7.069   7.147  70.626  1.00  0.00    -0.066 A  
HETATM    8  C   UNL     1     -11.521  11.165  69.210  1.00  0.00    -0.363 C  
HETATM    9  C   UNL     1     -11.429   8.958  70.060  1.00  0.00     0.021 A  
HETATM   10  C   UNL     1     -11.978  10.229  70.276  1.00  0.00    -0.348 A  
HETATM   11  C   UNL     1     -11.684   7.937  70.966  1.00  0.00    -0.293 A  
HETATM   12  C   UNL     1      -6.650   5.899  70.189  1.00  0.00    -0.047 A  
HETATM   13  C   UNL     1      -7.348   5.310  69.155  1.00  0.00    -0.062 A  
HETATM   14  C   UNL     1     -12.507   8.198  72.064  1.00  0.00    -0.375 A  
HETATM   15  C   UNL     1     -12.806  10.500  71.356  1.00  0.00    -0.551 A  
HETATM   16  N   UNL     1      -8.410   5.884  68.548  1.00  0.00    -0.108 NA 
HETATM   17  C   UNL     1     -13.072   9.470  72.254  1.00  0.00    -0.492 A  
ENDROOT
BRANCH   6  18
HETATM   18  C   UNL     1     -10.007  10.857  67.140  1.00  0.00    -0.221 C  
BRANCH  18  19
HETATM   19  C   UNL     1      -9.509  12.284  67.432  1.00  0.00    -0.181 C  
BRANCH  19  20
HETATM   20  N   UNL     1      -8.043  12.480  67.445  1.00  0.00    -0.171 NA 
HETATM   21  C   UNL     1      -7.574  13.217  68.617  1.00  0.00    -0.094 C  
HETATM   22  C   UNL     1      -7.393  11.163  67.404  1.00  0.00    -0.108 C  
ENDBRANCH  19  20
ENDBRANCH  18  19
ENDBRANCH   6  18
TORSDOF 3
ENDMDL
MODEL      108
REMARK 921   NORMALIZED FREE ENERGY PREDICTED BY IDOCK:   -3.99 KCAL/MOL
REMARK 922        TOTAL FREE ENERGY PREDICTED BY IDOCK:   -4.99 KCAL/MOL
REMARK 923 INTER-LIGAND FREE ENERGY PREDICTED BY IDOCK:   -4.48 KCAL/MOL
REMARK 924 INTRA-LIGAND FREE ENERGY PREDICTED BY IDOCK:   -0.51 KCAL/MOL
REMARK 927      BINDING AFFINITY PREDICTED BY RF-SCORE:    0.00 PKD
ROOT
HETATM    1  C   UNL     1     -10.960   6.679  67.011  1.00  0.00    -0.463 C  
HETATM    2  C   UNL     1      -9.540   7.292  66.929  1.00  0.00    -0.225 C  
HETATM    3  C   UNL     1      -8.809   7.215  68.277  1.00  0.00    -0.127 A  
HETATM    4  C   UNL     1      -9.568   8.646  66.238  1.00  0.00    -0.322 C  
HETATM    5  C   UNL     1      -7.934   8.205  68.719  1.00  0.00    -0.115 A  
HETATM    6  C   UNL     1      -9.012   9.026  65.061  1.00  0.00    -0.198 C  
HETATM    7  C   UNL     1      -7.242   8.024  69.918  1.00  0.00    -0.061 A  
HETATM    8  C   UNL     1      -9.378  10.447  64.671  1.00  0.00    -0.304 C  
HETATM    9  C   UNL     1     -10.307   9.814  66.754  1.00  0.00    -0.289 A  
HETATM   10  C   UNL     1     -10.228  10.859  65.824  1.00  0.00    -0.318 A  
HETATM   11  C   UNL     1     -11.012   9.998  67.936  1.00  0.00    -0.311 A  
HETATM   12  C   UNL     1      -7.421   6.856  70.645  1.00  0.00    -0.082 A  
HETATM   13  C   UNL     1      -8.290   5.910  70.142  1.00  0.00    -0.118 A  
HETATM   14  C   UNL     1     -11.650  11.221  68.158  1.00  0.00    -0.359 A  
HETATM   15  C   UNL     1     -10.866  12.074  66.026  1.00  0.00    -0.329 A  
HETATM   16  N   UNL     1      -8.968   6.060  68.982  1.00  0.00    -0.124 NA 
HETATM   17  C   UNL     1     -11.585  12.250  67.205  1.00  0.00    -0.423 A  
ENDROOT
BRANCH   6  18
HETATM   18  C   UNL     1      -8.127   8.258  64.112  1.00  0.00    -0.136 C  
BRANCH  18  19
HETATM   19  C   UNL     1      -6.695   8.130  64.663  1.00  0.00    -0.067 C  
BRANCH  19  20
HETATM   20  N   UNL     1      -6.158   6.758  64.788  1.00  0.00    -0.035 NA 
HETATM   21  C   UNL     1      -5.968   6.341  66.176  1.00  0.00    -0.029 C  
HETATM   22  C   UNL     1      -7.081   5.829  64.121  1.00  0.00    -0.053 C  
ENDBRANCH  19  20
ENDBRANCH  18  19
ENDBRANCH   6  18
TORSDOF 3
ENDMDL
MODEL      109
REMARK 921   NORMALIZED FREE ENERGY PREDICTED BY IDOCK:   -3.85 KCAL/MOL
REMARK 922        TOTAL FREE ENERGY PREDICTED BY IDOCK:   -4.83 KCAL/MOL
REMARK 923 INTER-LIGAND FREE ENERGY PREDICTED BY IDOCK:   -4.43 KCAL/MOL
REMARK 924 INTRA-LIGAND FREE ENERGY PREDICTED BY IDOCK:   -0.40 KCAL/MOL
REMARK 927      BINDING AFFINITY PREDICTED BY RF-SCORE:    0.00 PKD
ROOT
HETATM    1  C   UNL     1      -8.848  12.341  68.144  1.00  0.00    -0.187 C  
HETATM    2  C   UNL     1      -9.733  11.070  68.133  1.00  0.00    -0.180 C  
HETATM    3  C   UNL     1     -10.736  11.067  69.296  1.00  0.00    -0.222 A  
HETATM    4  C   UNL     1      -8.891   9.818  67.948  1.00  0.00    -0.122 C  
HETATM    5  C   UNL     1     -11.120   9.902  69.958  1.00  0.00    -0.335 A  
HETATM    6  C   UNL     1      -8.875   8.934  66.919  1.00  0.00    -0.141 C  
HETATM    7  C   UNL     1     -12.101   9.969  70.950  1.00  0.00    -0.448 A  
HETATM    8  C   UNL     1      -7.794   7.878  67.071  1.00  0.00    -0.108 C  
HETATM    9  C   UNL     1      -7.851   9.382  68.898  1.00  0.00    -0.083 A  
HETATM   10  C   UNL     1      -7.183   8.268  68.374  1.00  0.00    -0.092 A  
HETATM   11  C   UNL     1      -7.478   9.887  70.137  1.00  0.00    -0.178 A  
HETATM   12  C   UNL     1     -12.689  11.188  71.254  1.00  0.00    -0.531 A  
HETATM   13  C   UNL     1     -12.273  12.298  70.549  1.00  0.00    -0.300 A  
HETATM   14  C   UNL     1      -6.421   9.282  70.821  1.00  0.00    -0.079 A  
HETATM   15  C   UNL     1      -6.124   7.664  69.037  1.00  0.00    -0.035 A  
HETATM   16  N   UNL     1     -11.331  12.259  69.582  1.00  0.00    -0.189 NA 
HETATM   17  C   UNL     1      -5.742   8.182  70.271  1.00  0.00    -0.022 A  
ENDROOT
BRANCH   6  18
HETATM   18  C   UNL     1      -9.736   8.864  65.684  1.00  0.00    -0.107 C  
BRANCH  18  19
HETATM   19  C   UNL     1      -9.026   9.492  64.470  1.00  0.00    -0.212 C  
BRANCH  19  20
HETATM   20  N   UNL     1      -9.389  10.888  64.145  1.00  0.00    -0.227 NA 
HETATM   21  C   UNL     1      -9.285  11.190  62.718  1.00  0.00    -0.348 C  
HETATM   22  C   UNL     1     -10.766  11.133  64.596  1.00  0.00    -0.280 C  
ENDBRANCH  19  20
ENDBRANCH  18  19
ENDBRANCH   6  18
TORSDOF 3
ENDMDL
MODEL      110
REMARK 921   NORMALIZED FREE ENERGY PREDICTED BY IDOCK:   -3.83 KCAL/MOL
REMARK 922        TOTAL FREE ENERGY PREDICTED BY IDOCK:   -4.80 KCAL/MOL
REMARK 923 INTER-LIGAND FREE ENERGY PREDICTED BY IDOCK:   -4.30 KCAL/MOL
REMARK 924 INTRA-LIGAND FREE ENERGY PREDICTED BY IDOCK:   -0.50 KCAL/MOL
REMARK 927      BINDING AFFINITY PREDICTED BY RF-SCORE:    0.00 PKD
ROOT
HETATM    1  C   UNL     1     -10.695   7.140  66.959  1.00  0.00    -0.420 C  
HETATM    2  C   UNL     1      -9.506   6.758  67.875  1.00  0.00    -0.118 C  
HETATM    3  C   UNL     1      -9.383   5.237  68.041  1.00  0.00    -0.117 A  
HETATM    4  C   UNL     1      -9.505   7.591  69.145  1.00  0.00    -0.150 C  
HETATM    5  C   UNL     1      -8.964   4.638  69.228  1.00  0.00    -0.140 A  
HETATM    6  C   UNL     1      -8.601   8.506  69.577  1.00  0.00    -0.131 C  
HETATM    7  C   UNL     1      -8.796   3.253  69.277  1.00  0.00    -0.156 A  
HETATM    8  C   UNL     1      -9.038   9.205  70.852  1.00  0.00    -0.316 C  
HETATM    9  C   UNL     1     -10.593   7.570  70.140  1.00  0.00    -0.241 A  
HETATM   10  C   UNL     1     -10.342   8.537  71.123  1.00  0.00    -0.273 A  
HETATM   11  C   UNL     1     -11.737   6.787  70.224  1.00  0.00    -0.397 A  
HETATM   12  C   UNL     1      -9.033   2.492  68.142  1.00  0.00    -0.195 A  
HETATM   13  C   UNL     1      -9.430   3.150  66.996  1.00  0.00    -0.094 A  
HETATM   14  C   UNL     1     -12.628   7.003  71.279  1.00  0.00    -0.418 A  
HETATM   15  C   UNL     1     -11.222   8.770  72.169  1.00  0.00    -0.408 A  
HETATM   16  N   UNL     1      -9.594   4.489  66.922  1.00  0.00    -0.175 NA 
HETATM   17  C   UNL     1     -12.376   7.995  72.241  1.00  0.00    -0.336 A  
ENDROOT
BRANCH   6  18
HETATM   18  C   UNL     1      -7.281   8.924  68.980  1.00  0.00    -0.072 C  
BRANCH  18  19
HETATM   19  C   UNL     1      -6.276   7.757  68.973  1.00  0.00    -0.036 C  
BRANCH  19  20
HETATM   20  N   UNL     1      -5.668   7.420  67.668  1.00  0.00    -0.032 NA 
HETATM   21  C   UNL     1      -5.779   6.002  67.332  1.00  0.00    -0.016 C  
HETATM   22  C   UNL     1      -6.322   8.221  66.624  1.00  0.00    -0.055 C  
ENDBRANCH  19  20
ENDBRANCH  18  19
ENDBRANCH   6  18
TORSDOF 3
ENDMDL
MODEL      111
REMARK 921   NORMALIZED FREE ENERGY PREDICTED BY IDOCK:   -3.83 KCAL/MOL
REMARK 922        TOTAL FREE ENERGY PREDICTED BY IDOCK:   -4.80 KCAL/MOL
REMARK 923 INTER-LIGAND FREE ENERGY PREDICTED BY IDOCK:   -4.49 KCAL/MOL
REMARK 924 INTRA-LIGAND FREE ENERGY PREDICTED BY IDOCK:   -0.30 KCAL/MOL
REMARK 927      BINDING AFFINITY PREDICTED BY RF-SCORE:    0.00 PKD
ROOT
HETATM    1  C   UNL     1      -6.656   7.091  70.843  1.00  0.00    -0.048 C  
HETATM    2  C   UNL     1      -8.152   6.689  70.873  1.00  0.00    -0.119 C  
HETATM    3  C   UNL     1      -8.336   5.174  70.708  1.00  0.00    -0.113 A  
HETATM    4  C   UNL     1      -8.977   7.586  69.965  1.00  0.00    -0.144 C  
HETATM    5  C   UNL     1      -9.413   4.615  70.021  1.00  0.00    -0.242 A  
HETATM    6  C   UNL     1      -9.956   8.469  70.283  1.00  0.00    -0.196 C  
HETATM    7  C   UNL     1      -9.558   3.227  69.985  1.00  0.00    -0.182 A  
HETATM    8  C   UNL     1     -10.448   9.256  69.082  1.00  0.00    -0.231 C  
HETATM    9  C   UNL     1      -8.780   7.679  68.507  1.00  0.00    -0.128 A  
HETATM   10  C   UNL     1      -9.614   8.679  67.990  1.00  0.00    -0.168 A  
HETATM   11  C   UNL     1      -7.948   6.968  67.652  1.00  0.00    -0.114 A  
HETATM   12  C   UNL     1      -8.639   2.423  70.645  1.00  0.00    -0.100 A  
HETATM   13  C   UNL     1      -7.607   3.042  71.318  1.00  0.00    -0.044 A  
HETATM   14  C   UNL     1      -7.945   7.290  66.292  1.00  0.00    -0.110 A  
HETATM   15  C   UNL     1      -9.613   9.017  66.644  1.00  0.00    -0.274 A  
HETATM   16  N   UNL     1      -7.448   4.383  71.372  1.00  0.00    -0.058 NA 
HETATM   17  C   UNL     1      -8.766   8.314  65.792  1.00  0.00    -0.196 A  
ENDROOT
BRANCH   6  18
HETATM   18  C   UNL     1     -10.591   8.778  71.616  1.00  0.00    -0.401 C  
BRANCH  18  19
HETATM   19  C   UNL     1     -12.051   8.292  71.666  1.00  0.00    -0.306 C  
BRANCH  19  20
HETATM   20  N   UNL     1     -13.032   9.216  72.276  1.00  0.00    -0.415 NA 
HETATM   21  C   UNL     1     -13.029  10.542  71.661  1.00  0.00    -0.476 C  
HETATM   22  C   UNL     1     -14.372   8.625  72.156  1.00  0.00    -0.427 C  
ENDBRANCH  19  20
ENDBRANCH  18  19
ENDBRANCH   6  18
TORSDOF 3
ENDMDL
MODEL      112
REMARK 921   NORMALIZED FREE ENERGY PREDICTED BY IDOCK:   -3.75 KCAL/MOL
REMARK 922        TOTAL FREE ENERGY PREDICTED BY IDOCK:   -4.70 KCAL/MOL
REMARK 923 INTER-LIGAND FREE ENERGY PREDICTED BY IDOCK:   -4.41 KCAL/MOL
REMARK 924 INTRA-LIGAND FREE ENERGY PREDICTED BY IDOCK:   -0.29 KCAL/MOL
REMARK 927      BINDING AFFINITY PREDICTED BY RF-SCORE:    0.00 PKD
ROOT
HETATM    1  C   UNL     1      -6.955   5.795  69.559  1.00  0.00    -0.063 C  
HETATM    2  C   UNL     1      -8.377   5.452  70.066  1.00  0.00    -0.107 C  
HETATM    3  C   UNL     1      -8.394   4.141  70.866  1.00  0.00    -0.078 A  
HETATM    4  C   UNL     1      -9.403   5.591  68.953  1.00  0.00    -0.154 C  
HETATM    5  C   UNL     1      -9.465   3.251  70.834  1.00  0.00    -0.234 A  
HETATM    6  C   UNL     1     -10.440   6.458  68.839  1.00  0.00    -0.264 C  
HETATM    7  C   UNL     1      -9.444   2.121  71.655  1.00  0.00    -0.194 A  
HETATM    8  C   UNL     1     -11.157   6.342  67.506  1.00  0.00    -0.401 C  
HETATM    9  C   UNL     1      -9.386   4.787  67.717  1.00  0.00    -0.163 A  
HETATM   10  C   UNL     1     -10.388   5.245  66.852  1.00  0.00    -0.303 A  
HETATM   11  C   UNL     1      -8.576   3.727  67.330  1.00  0.00    -0.110 A  
HETATM   12  C   UNL     1      -8.366   1.907  72.501  1.00  0.00    -0.054 A  
HETATM   13  C   UNL     1      -7.347   2.837  72.495  1.00  0.00    -0.044 A  
HETATM   14  C   UNL     1      -8.766   3.159  66.068  1.00  0.00    -0.129 A  
HETATM   15  C   UNL     1     -10.581   4.698  65.592  1.00  0.00    -0.241 A  
HETATM   16  N   UNL     1      -7.347   3.940  71.714  1.00  0.00    -0.053 NA 
HETATM   17  C   UNL     1      -9.757   3.647  65.200  1.00  0.00    -0.157 A  
ENDROOT
BRANCH   6  18
HETATM   18  C   UNL     1     -10.952   7.493  69.808  1.00  0.00    -0.195 C  
BRANCH  18  19
HETATM   19  C   UNL     1     -11.869   6.860  70.871  1.00  0.00    -0.376 C  
BRANCH  19  20
HETATM   20  N   UNL     1     -12.595   7.795  71.757  1.00  0.00    -0.321 NA 
HETATM   21  C   UNL     1     -12.320   9.199  71.455  1.00  0.00    -0.333 C  
HETATM   22  C   UNL     1     -14.036   7.542  71.629  1.00  0.00    -0.440 C  
ENDBRANCH  19  20
ENDBRANCH  18  19
ENDBRANCH   6  18
TORSDOF 3
ENDMDL
MODEL      113
REMARK 921   NORMALIZED FREE ENERGY PREDICTED BY IDOCK:   -3.73 KCAL/MOL
REMARK 922        TOTAL FREE ENERGY PREDICTED BY IDOCK:   -4.69 KCAL/MOL
REMARK 923 INTER-LIGAND FREE ENERGY PREDICTED BY IDOCK:   -4.34 KCAL/MOL
REMARK 924 INTRA-LIGAND FREE ENERGY PREDICTED BY IDOCK:   -0.35 KCAL/MOL
REMARK 927      BINDING AFFINITY PREDICTED BY RF-SCORE:    0.00 PKD
ROOT
HETATM    1  C   UNL     1     -10.638   8.636  66.996  1.00  0.00    -0.293 C  
HETATM    2  C   UNL     1      -9.476   8.724  68.015  1.00  0.00    -0.158 C  
HETATM    3  C   UNL     1      -8.128   8.962  67.320  1.00  0.00    -0.104 A  
HETATM    4  C   UNL     1      -9.541   7.585  69.018  1.00  0.00    -0.153 C  
HETATM    5  C   UNL     1      -6.932   8.415  67.784  1.00  0.00    -0.075 A  
HETATM    6  C   UNL     1      -9.755   7.625  70.357  1.00  0.00    -0.179 C  
HETATM    7  C   UNL     1      -5.734   8.745  67.148  1.00  0.00    -0.042 A  
HETATM    8  C   UNL     1      -9.863   6.242  70.976  1.00  0.00    -0.206 C  
HETATM    9  C   UNL     1      -9.432   6.161  68.650  1.00  0.00    -0.128 A  
HETATM   10  C   UNL     1      -9.654   5.370  69.785  1.00  0.00    -0.225 A  
HETATM   11  C   UNL     1      -9.164   5.552  67.431  1.00  0.00    -0.110 A  
HETATM   12  C   UNL     1      -5.746   9.623  66.074  1.00  0.00    -0.056 A  
HETATM   13  C   UNL     1      -6.961  10.141  65.677  1.00  0.00    -0.125 A  
HETATM   14  C   UNL     1      -9.148   4.157  67.362  1.00  0.00    -0.163 A  
HETATM   15  C   UNL     1      -9.652   3.984  69.730  1.00  0.00    -0.280 A  
HETATM   16  N   UNL     1      -8.133   9.841  66.279  1.00  0.00    -0.112 NA 
HETATM   17  C   UNL     1      -9.399   3.377  68.502  1.00  0.00    -0.231 A  
ENDROOT
BRANCH   6  18
HETATM   18  C   UNL     1      -9.912   8.806  71.282  1.00  0.00    -0.333 C  
BRANCH  18  19
HETATM   19  C   UNL     1     -11.051   8.578  72.293  1.00  0.00    -0.360 C  
BRANCH  19  20
HETATM   20  N   UNL     1     -12.384   9.089  71.909  1.00  0.00    -0.359 NA 
HETATM   21  C   UNL     1     -12.329  10.083  70.837  1.00  0.00    -0.341 C  
HETATM   22  C   UNL     1     -13.217   7.957  71.482  1.00  0.00    -0.306 C  
ENDBRANCH  19  20
ENDBRANCH  18  19
ENDBRANCH   6  18
TORSDOF 3
ENDMDL
MODEL      114
REMARK 921   NORMALIZED FREE ENERGY PREDICTED BY IDOCK:   -3.71 KCAL/MOL
REMARK 922        TOTAL FREE ENERGY PREDICTED BY IDOCK:   -4.66 KCAL/MOL
REMARK 923 INTER-LIGAND FREE ENERGY PREDICTED BY IDOCK:   -4.35 KCAL/MOL
REMARK 924 INTRA-LIGAND FREE ENERGY PREDICTED BY IDOCK:   -0.31 KCAL/MOL
REMARK 927      BINDING AFFINITY PREDICTED BY RF-SCORE:    0.00 PKD
ROOT
HETATM    1  C   UNL     1      -7.328  12.782  68.007  1.00  0.00    -0.117 C  
HETATM    2  C   UNL     1      -8.342  11.645  68.286  1.00  0.00    -0.159 C  
HETATM    3  C   UNL     1      -7.667  10.430  68.939  1.00  0.00    -0.111 A  
HETATM    4  C   UNL     1      -9.213  11.378  67.070  1.00  0.00    -0.174 C  
HETATM    5  C   UNL     1      -8.058   9.118  68.675  1.00  0.00    -0.102 A  
HETATM    6  C   UNL     1     -10.549  11.547  66.912  1.00  0.00    -0.284 C  
HETATM    7  C   UNL     1      -7.453   8.069  69.371  1.00  0.00    -0.096 A  
HETATM    8  C   UNL     1     -11.011  11.272  65.491  1.00  0.00    -0.199 C  
HETATM    9  C   UNL     1      -8.687  10.920  65.770  1.00  0.00    -0.196 A  
HETATM   10  C   UNL     1      -9.729  10.890  64.834  1.00  0.00    -0.318 A  
HETATM   11  C   UNL     1      -7.406  10.548  65.385  1.00  0.00    -0.084 A  
HETATM   12  C   UNL     1      -6.484   8.346  70.324  1.00  0.00    -0.035 A  
HETATM   13  C   UNL     1      -6.156   9.667  70.546  1.00  0.00    -0.072 A  
HETATM   14  C   UNL     1      -7.182  10.176  64.057  1.00  0.00    -0.106 A  
HETATM   15  C   UNL     1      -9.520  10.533  63.510  1.00  0.00    -0.352 A  
HETATM   16  N   UNL     1      -6.730  10.700  69.890  1.00  0.00    -0.135 NA 
HETATM   17  C   UNL     1      -8.230  10.176  63.122  1.00  0.00    -0.160 A  
ENDROOT
BRANCH   6  18
HETATM   18  C   UNL     1     -11.600  11.969  67.907  1.00  0.00    -0.405 C  
BRANCH  18  19
HETATM   19  C   UNL     1     -11.846  10.872  68.960  1.00  0.00    -0.299 C  
BRANCH  19  20
HETATM   20  N   UNL     1     -12.011  11.326  70.357  1.00  0.00    -0.360 NA 
HETATM   21  C   UNL     1     -12.428  12.724  70.460  1.00  0.00    -0.202 C  
HETATM   22  C   UNL     1     -13.008  10.471  71.015  1.00  0.00    -0.383 C  
ENDBRANCH  19  20
ENDBRANCH  18  19
ENDBRANCH   6  18
TORSDOF 3
ENDMDL
MODEL      115
REMARK 921   NORMALIZED FREE ENERGY PREDICTED BY IDOCK:   -3.71 KCAL/MOL
REMARK 922        TOTAL FREE ENERGY PREDICTED BY IDOCK:   -4.66 KCAL/MOL
REMARK 923 INTER-LIGAND FREE ENERGY PREDICTED BY IDOCK:   -4.36 KCAL/MOL
REMARK 924 INTRA-LIGAND FREE ENERGY PREDICTED BY IDOCK:   -0.30 KCAL/MOL
REMARK 927      BINDING AFFINITY PREDICTED BY RF-SCORE:    0.00 PKD
ROOT
HETATM    1  C   UNL     1     -10.337   6.594  67.309  1.00  0.00    -0.296 C  
HETATM    2  C   UNL     1      -9.353   6.260  68.458  1.00  0.00    -0.121 C  
HETATM    3  C   UNL     1      -9.392   4.770  68.824  1.00  0.00    -0.134 A  
HETATM    4  C   UNL     1      -9.489   7.253  69.600  1.00  0.00    -0.155 C  
HETATM    5  C   UNL     1      -9.228   4.308  70.129  1.00  0.00    -0.205 A  
HETATM    6  C   UNL     1      -8.593   8.157  70.070  1.00  0.00    -0.129 C  
HETATM    7  C   UNL     1      -9.191   2.934  70.371  1.00  0.00    -0.211 A  
HETATM    8  C   UNL     1      -9.171   9.045  71.157  1.00  0.00    -0.326 C  
HETATM    9  C   UNL     1     -10.725   7.435  70.385  1.00  0.00    -0.250 A  
HETATM   10  C   UNL     1     -10.556   8.505  71.274  1.00  0.00    -0.296 A  
HETATM   11  C   UNL     1     -11.930   6.746  70.361  1.00  0.00    -0.343 A  
HETATM   12  C   UNL     1      -9.303   2.046  69.311  1.00  0.00    -0.176 A  
HETATM   13  C   UNL     1      -9.446   2.570  68.043  1.00  0.00    -0.147 A  
HETATM   14  C   UNL     1     -12.960   7.158  71.211  1.00  0.00    -0.378 A  
HETATM   15  C   UNL     1     -11.573   8.932  72.115  1.00  0.00    -0.400 A  
HETATM   16  N   UNL     1      -9.480   3.896  67.783  1.00  0.00    -0.185 NA 
HETATM   17  C   UNL     1     -12.786   8.250  72.077  1.00  0.00    -0.376 A  
ENDROOT
BRANCH   6  18
HETATM   18  C   UNL     1      -7.161   8.405  69.668  1.00  0.00    -0.057 C  
BRANCH  18  19
HETATM   19  C   UNL     1      -6.248   8.533  70.901  1.00  0.00    -0.036 C  
BRANCH  19  20
HETATM   20  N   UNL     1      -6.326   7.440  71.894  1.00  0.00    -0.040 NA 
HETATM   21  C   UNL     1      -5.340   6.385  71.662  1.00  0.00    -0.027 C  
HETATM   22  C   UNL     1      -6.128   8.007  73.235  1.00  0.00    -0.072 C  
ENDBRANCH  19  20
ENDBRANCH  18  19
ENDBRANCH   6  18
TORSDOF 3
ENDMDL
MODEL      116
REMARK 921   NORMALIZED FREE ENERGY PREDICTED BY IDOCK:   -3.69 KCAL/MOL
REMARK 922        TOTAL FREE ENERGY PREDICTED BY IDOCK:   -4.64 KCAL/MOL
REMARK 923 INTER-LIGAND FREE ENERGY PREDICTED BY IDOCK:   -4.28 KCAL/MOL
REMARK 924 INTRA-LIGAND FREE ENERGY PREDICTED BY IDOCK:   -0.36 KCAL/MOL
REMARK 927      BINDING AFFINITY PREDICTED BY RF-SCORE:    0.00 PKD
ROOT
HETATM    1  C   UNL     1     -12.008  11.445  68.198  1.00  0.00    -0.201 C  
HETATM    2  C   UNL     1     -10.588  11.531  68.811  1.00  0.00    -0.241 C  
HETATM    3  C   UNL     1     -10.036  12.963  68.765  1.00  0.00     0.002 A  
HETATM    4  C   UNL     1      -9.691  10.431  68.269  1.00  0.00    -0.162 C  
HETATM    5  C   UNL     1      -8.686  13.246  68.558  1.00  0.00    -0.059 A  
HETATM    6  C   UNL     1      -9.119   9.386  68.918  1.00  0.00    -0.140 C  
HETATM    7  C   UNL     1      -8.246  14.569  68.613  1.00  0.00    -0.152 A  
HETATM    8  C   UNL     1      -8.387   8.442  67.979  1.00  0.00    -0.128 C  
HETATM    9  C   UNL     1      -9.333  10.291  66.845  1.00  0.00    -0.183 A  
HETATM   10  C   UNL     1      -8.600   9.111  66.664  1.00  0.00    -0.135 A  
HETATM   11  C   UNL     1      -9.605  11.105  65.753  1.00  0.00    -0.255 A  
HETATM   12  C   UNL     1      -9.152  15.584  68.888  1.00  0.00    -0.219 A  
HETATM   13  C   UNL     1     -10.469  15.233  69.098  1.00  0.00    -0.247 A  
HETATM   14  C   UNL     1      -9.159  10.709  64.489  1.00  0.00    -0.243 A  
HETATM   15  C   UNL     1      -8.160   8.700  65.415  1.00  0.00    -0.121 A  
HETATM   16  N   UNL     1     -10.919  13.959  69.055  1.00  0.00    -0.255 NA 
HETATM   17  C   UNL     1      -8.448   9.510  64.319  1.00  0.00    -0.193 A  
ENDROOT
BRANCH   6  18
HETATM   18  C   UNL     1      -9.121   9.033  70.384  1.00  0.00    -0.242 C  
BRANCH  18  19
HETATM   19  C   UNL     1     -10.120   7.901  70.686  1.00  0.00    -0.194 C  
BRANCH  19  20
HETATM   20  N   UNL     1     -11.088   8.151  71.775  1.00  0.00    -0.256 NA 
HETATM   21  C   UNL     1     -11.582   9.527  71.798  1.00  0.00    -0.312 C  
HETATM   22  C   UNL     1     -12.221   7.229  71.617  1.00  0.00    -0.343 C  
ENDBRANCH  19  20
ENDBRANCH  18  19
ENDBRANCH   6  18
TORSDOF 3
ENDMDL
MODEL      117
REMARK 921   NORMALIZED FREE ENERGY PREDICTED BY IDOCK:   -3.60 KCAL/MOL
REMARK 922        TOTAL FREE ENERGY PREDICTED BY IDOCK:   -4.53 KCAL/MOL
REMARK 923 INTER-LIGAND FREE ENERGY PREDICTED BY IDOCK:   -4.22 KCAL/MOL
REMARK 924 INTRA-LIGAND FREE ENERGY PREDICTED BY IDOCK:   -0.31 KCAL/MOL
REMARK 927      BINDING AFFINITY PREDICTED BY RF-SCORE:    0.00 PKD
ROOT
HETATM    1  C   UNL     1     -10.657   8.871  67.138  1.00  0.00    -0.301 C  
HETATM    2  C   UNL     1     -10.487   9.847  68.329  1.00  0.00    -0.246 C  
HETATM    3  C   UNL     1     -10.724  11.304  67.908  1.00  0.00    -0.207 A  
HETATM    4  C   UNL     1      -9.210   9.553  69.099  1.00  0.00    -0.163 C  
HETATM    5  C   UNL     1     -10.016  12.373  68.454  1.00  0.00    -0.210 A  
HETATM    6  C   UNL     1      -9.051   9.117  70.373  1.00  0.00    -0.270 C  
HETATM    7  C   UNL     1     -10.347  13.677  68.081  1.00  0.00    -0.245 A  
HETATM    8  C   UNL     1      -7.600   8.834  70.720  1.00  0.00    -0.097 C  
HETATM    9  C   UNL     1      -7.859   9.647  68.513  1.00  0.00    -0.085 A  
HETATM   10  C   UNL     1      -6.917   9.195  69.446  1.00  0.00    -0.052 A  
HETATM   11  C   UNL     1      -7.435  10.087  67.266  1.00  0.00    -0.091 A  
HETATM   12  C   UNL     1     -11.384  13.894  67.186  1.00  0.00    -0.346 A  
HETATM   13  C   UNL     1     -12.054  12.792  66.696  1.00  0.00    -0.246 A  
HETATM   14  C   UNL     1      -6.072  10.041  66.962  1.00  0.00    -0.055 A  
HETATM   15  C   UNL     1      -5.562   9.134  69.154  1.00  0.00    -0.036 A  
HETATM   16  N   UNL     1     -11.756  11.521  67.045  1.00  0.00    -0.550 NA 
HETATM   17  C   UNL     1      -5.141   9.559  67.897  1.00  0.00    -0.036 A  
ENDROOT
BRANCH   6  18
HETATM   18  C   UNL     1     -10.077   8.868  71.450  1.00  0.00    -0.379 C  
BRANCH  18  19
HETATM   19  C   UNL     1     -10.308   7.361  71.665  1.00  0.00    -0.196 C  
BRANCH  19  20
HETATM   20  N   UNL     1      -9.841   6.800  72.951  1.00  0.00    -0.162 NA 
HETATM   21  C   UNL     1     -10.898   6.114  73.694  1.00  0.00    -0.126 C  
HETATM   22  C   UNL     1      -8.744   5.861  72.684  1.00  0.00    -0.122 C  
ENDBRANCH  19  20
ENDBRANCH  18  19
ENDBRANCH   6  18
TORSDOF 3
ENDMDL
MODEL      118
REMARK 921   NORMALIZED FREE ENERGY PREDICTED BY IDOCK:   -3.60 KCAL/MOL
REMARK 922        TOTAL FREE ENERGY PREDICTED BY IDOCK:   -4.53 KCAL/MOL
REMARK 923 INTER-LIGAND FREE ENERGY PREDICTED BY IDOCK:   -4.32 KCAL/MOL
REMARK 924 INTRA-LIGAND FREE ENERGY PREDICTED BY IDOCK:   -0.21 KCAL/MOL
REMARK 927      BINDING AFFINITY PREDICTED BY RF-SCORE:    0.00 PKD
ROOT
HETATM    1  C   UNL     1     -10.650   8.205  68.728  1.00  0.00    -0.149 C  
HETATM    2  C   UNL     1     -10.078   8.260  67.289  1.00  0.00    -0.315 C  
HETATM    3  C   UNL     1      -9.555   6.891  66.833  1.00  0.00    -0.162 A  
HETATM    4  C   UNL     1      -9.143   9.445  67.117  1.00  0.00    -0.148 C  
HETATM    5  C   UNL     1      -8.440   6.745  66.009  1.00  0.00    -0.143 A  
HETATM    6  C   UNL     1      -9.275  10.541  66.329  1.00  0.00    -0.192 C  
HETATM    7  C   UNL     1      -8.075   5.471  65.568  1.00  0.00    -0.120 A  
HETATM    8  C   UNL     1      -8.165  11.555  66.543  1.00  0.00    -0.129 C  
HETATM    9  C   UNL     1      -7.894   9.622  67.881  1.00  0.00    -0.087 A  
HETATM   10  C   UNL     1      -7.335  10.870  67.575  1.00  0.00    -0.096 A  
HETATM   11  C   UNL     1      -7.254   8.787  68.788  1.00  0.00    -0.075 A  
HETATM   12  C   UNL     1      -8.833   4.371  65.941  1.00  0.00    -0.120 A  
HETATM   13  C   UNL     1      -9.933   4.588  66.745  1.00  0.00    -0.215 A  
HETATM   14  C   UNL     1      -6.075   9.227  69.395  1.00  0.00    -0.037 A  
HETATM   15  C   UNL     1      -6.172  11.324  68.177  1.00  0.00    -0.049 A  
HETATM   16  N   UNL     1     -10.310   5.811  67.180  1.00  0.00    -0.212 NA 
HETATM   17  C   UNL     1      -5.541  10.492  69.098  1.00  0.00    -0.041 A  
ENDROOT
BRANCH   6  18
HETATM   18  C   UNL     1     -10.339  10.890  65.319  1.00  0.00    -0.334 C  
BRANCH  18  19
HETATM   19  C   UNL     1     -11.019  12.228  65.662  1.00  0.00    -0.299 C  
BRANCH  19  20
HETATM   20  N   UNL     1     -12.399  12.412  65.163  1.00  0.00    -0.570 NA 
HETATM   21  C   UNL     1     -12.914  13.762  65.386  1.00  0.00    -0.312 C  
HETATM   22  C   UNL     1     -12.424  12.111  63.725  1.00  0.00    -0.514 C  
ENDBRANCH  19  20
ENDBRANCH  18  19
ENDBRANCH   6  18
TORSDOF 3
ENDMDL
MODEL      119
REMARK 921   NORMALIZED FREE ENERGY PREDICTED BY IDOCK:   -3.57 KCAL/MOL
REMARK 922        TOTAL FREE ENERGY PREDICTED BY IDOCK:   -4.50 KCAL/MOL
REMARK 923 INTER-LIGAND FREE ENERGY PREDICTED BY IDOCK:   -4.25 KCAL/MOL
REMARK 924 INTRA-LIGAND FREE ENERGY PREDICTED BY IDOCK:   -0.25 KCAL/MOL
REMARK 927      BINDING AFFINITY PREDICTED BY RF-SCORE:    0.00 PKD
ROOT
HETATM    1  C   UNL     1     -10.645   9.787  66.814  1.00  0.00    -0.208 C  
HETATM    2  C   UNL     1      -9.962   8.932  67.910  1.00  0.00    -0.223 C  
HETATM    3  C   UNL     1      -8.627   9.543  68.358  1.00  0.00    -0.120 A  
HETATM    4  C   UNL     1      -9.951   7.461  67.528  1.00  0.00    -0.225 C  
HETATM    5  C   UNL     1      -7.527   8.769  68.723  1.00  0.00    -0.084 A  
HETATM    6  C   UNL     1     -10.575   6.411  68.119  1.00  0.00    -0.314 C  
HETATM    7  C   UNL     1      -6.374   9.396  69.200  1.00  0.00    -0.042 A  
HETATM    8  C   UNL     1     -10.400   5.115  67.347  1.00  0.00    -0.209 C  
HETATM    9  C   UNL     1      -9.261   6.928  66.339  1.00  0.00    -0.186 A  
HETATM   10  C   UNL     1      -9.548   5.563  66.209  1.00  0.00    -0.173 A  
HETATM   11  C   UNL     1      -8.436   7.548  65.409  1.00  0.00    -0.105 A  
HETATM   12  C   UNL     1      -6.343  10.778  69.318  1.00  0.00    -0.061 A  
HETATM   13  C   UNL     1      -7.472  11.482  68.954  1.00  0.00    -0.106 A  
HETATM   14  C   UNL     1      -7.931   6.794  64.346  1.00  0.00    -0.096 A  
HETATM   15  C   UNL     1      -9.063   4.804  65.153  1.00  0.00    -0.155 A  
HETATM   16  N   UNL     1      -8.600  10.898  68.495  1.00  0.00    -0.145 NA 
HETATM   17  C   UNL     1      -8.249   5.432  64.214  1.00  0.00    -0.129 A  
ENDROOT
BRANCH   6  18
HETATM   18  C   UNL     1     -11.400   6.355  69.380  1.00  0.00    -0.443 C  
BRANCH  18  19
HETATM   19  C   UNL     1     -10.600   6.858  70.595  1.00  0.00    -0.222 C  
BRANCH  19  20
HETATM   20  N   UNL     1     -11.384   7.448  71.701  1.00  0.00    -0.251 NA 
HETATM   21  C   UNL     1     -11.216   8.897  71.812  1.00  0.00    -0.362 C  
HETATM   22  C   UNL     1     -12.804   7.136  71.490  1.00  0.00    -0.391 C  
ENDBRANCH  19  20
ENDBRANCH  18  19
ENDBRANCH   6  18
TORSDOF 3
ENDMDL
MODEL      120
REMARK 921   NORMALIZED FREE ENERGY PREDICTED BY IDOCK:   -3.47 KCAL/MOL
REMARK 922        TOTAL FREE ENERGY PREDICTED BY IDOCK:   -4.38 KCAL/MOL
REMARK 923 INTER-LIGAND FREE ENERGY PREDICTED BY IDOCK:   -4.10 KCAL/MOL
REMARK 924 INTRA-LIGAND FREE ENERGY PREDICTED BY IDOCK:   -0.28 KCAL/MOL
REMARK 927      BINDING AFFINITY PREDICTED BY RF-SCORE:    0.00 PKD
ROOT
HETATM    1  C   UNL     1      -7.537   5.429  71.079  1.00  0.00    -0.090 C  
HETATM    2  C   UNL     1      -8.845   5.736  70.308  1.00  0.00    -0.145 C  
HETATM    3  C   UNL     1      -8.976   4.873  69.045  1.00  0.00    -0.102 A  
HETATM    4  C   UNL     1      -9.042   7.234  70.141  1.00  0.00    -0.148 C  
HETATM    5  C   UNL     1      -9.560   5.340  67.869  1.00  0.00    -0.161 A  
HETATM    6  C   UNL     1     -10.008   8.039  70.649  1.00  0.00    -0.198 C  
HETATM    7  C   UNL     1      -9.720   4.469  66.789  1.00  0.00    -0.224 A  
HETATM    8  C   UNL     1      -9.772   9.506  70.337  1.00  0.00    -0.328 C  
HETATM    9  C   UNL     1      -8.112   8.105  69.398  1.00  0.00    -0.116 A  
HETATM   10  C   UNL     1      -8.515   9.439  69.538  1.00  0.00    -0.152 A  
HETATM   11  C   UNL     1      -6.986   7.803  68.644  1.00  0.00    -0.067 A  
HETATM   12  C   UNL     1      -9.311   3.148  66.906  1.00  0.00    -0.163 A  
HETATM   13  C   UNL     1      -8.756   2.748  68.103  1.00  0.00    -0.103 A  
HETATM   14  C   UNL     1      -6.263   8.848  68.062  1.00  0.00    -0.051 A  
HETATM   15  C   UNL     1      -7.802  10.488  68.976  1.00  0.00    -0.129 A  
HETATM   16  N   UNL     1      -8.595   3.570  69.164  1.00  0.00    -0.069 NA 
HETATM   17  C   UNL     1      -6.664  10.183  68.233  1.00  0.00    -0.054 A  
ENDROOT
BRANCH   6  18
HETATM   18  C   UNL     1     -11.230   7.697  71.464  1.00  0.00    -0.277 C  
BRANCH  18  19
HETATM   19  C   UNL     1     -11.822   8.949  72.136  1.00  0.00    -0.347 C  
BRANCH  19  20
HETATM   20  N   UNL     1     -13.162   9.372  71.675  1.00  0.00    -0.375 NA 
HETATM   21  C   UNL     1     -14.250   8.740  72.421  1.00  0.00    -0.385 C  
HETATM   22  C   UNL     1     -13.265  10.832  71.804  1.00  0.00    -0.418 C  
ENDBRANCH  19  20
ENDBRANCH  18  19
ENDBRANCH   6  18
TORSDOF 3
ENDMDL
MODEL      121
REMARK 921   NORMALIZED FREE ENERGY PREDICTED BY IDOCK:   -3.38 KCAL/MOL
REMARK 922        TOTAL FREE ENERGY PREDICTED BY IDOCK:   -4.27 KCAL/MOL
REMARK 923 INTER-LIGAND FREE ENERGY PREDICTED BY IDOCK:   -4.02 KCAL/MOL
REMARK 924 INTRA-LIGAND FREE ENERGY PREDICTED BY IDOCK:   -0.25 KCAL/MOL
REMARK 927      BINDING AFFINITY PREDICTED BY RF-SCORE:    0.00 PKD
ROOT
HETATM    1  C   UNL     1      -8.813  11.784  68.101  1.00  0.00    -0.169 C  
HETATM    2  C   UNL     1      -9.539  10.438  68.345  1.00  0.00    -0.153 C  
HETATM    3  C   UNL     1     -10.558  10.542  69.490  1.00  0.00    -0.246 A  
HETATM    4  C   UNL     1      -8.550   9.286  68.407  1.00  0.00    -0.124 C  
HETATM    5  C   UNL     1     -10.813   9.492  70.370  1.00  0.00    -0.338 A  
HETATM    6  C   UNL     1      -8.406   8.226  67.573  1.00  0.00    -0.130 C  
HETATM    7  C   UNL     1     -11.814   9.632  71.333  1.00  0.00    -0.484 A  
HETATM    8  C   UNL     1      -7.210   7.360  67.927  1.00  0.00    -0.091 C  
HETATM    9  C   UNL     1      -7.485   9.174  69.421  1.00  0.00    -0.077 A  
HETATM   10  C   UNL     1      -6.677   8.069  69.124  1.00  0.00    -0.048 A  
HETATM   11  C   UNL     1      -7.200   9.954  70.534  1.00  0.00    -0.099 A  
HETATM   12  C   UNL     1     -12.551  10.806  71.393  1.00  0.00    -0.516 A  
HETATM   13  C   UNL     1     -12.257  11.799  70.481  1.00  0.00    -0.347 A  
HETATM   14  C   UNL     1      -6.091   9.629  71.321  1.00  0.00    -0.035 A  
HETATM   15  C   UNL     1      -5.567   7.740  69.889  1.00  0.00    -0.023 A  
HETATM   16  N   UNL     1     -11.297  11.685  69.537  1.00  0.00    -0.266 NA 
HETATM   17  C   UNL     1      -5.275   8.533  70.996  1.00  0.00    -0.028 A  
ENDROOT
BRANCH   6  18
HETATM   18  C   UNL     1      -9.228   7.810  66.379  1.00  0.00    -0.229 C  
BRANCH  18  19
HETATM   19  C   UNL     1      -8.886   6.376  65.937  1.00  0.00    -0.131 C  
BRANCH  19  20
HETATM   20  N   UNL     1      -9.963   5.371  66.070  1.00  0.00    -0.124 NA 
HETATM   21  C   UNL     1      -9.510   4.007  65.804  1.00  0.00    -0.178 C  
HETATM   22  C   UNL     1     -10.511   5.447  67.431  1.00  0.00    -0.189 C  
ENDBRANCH  19  20
ENDBRANCH  18  19
ENDBRANCH   6  18
TORSDOF 3
ENDMDL
MODEL      122
REMARK 921   NORMALIZED FREE ENERGY PREDICTED BY IDOCK:   -3.37 KCAL/MOL
REMARK 922        TOTAL FREE ENERGY PREDICTED BY IDOCK:   -4.26 KCAL/MOL
REMARK 923 INTER-LIGAND FREE ENERGY PREDICTED BY IDOCK:   -4.00 KCAL/MOL
REMARK 924 INTRA-LIGAND FREE ENERGY PREDICTED BY IDOCK:   -0.26 KCAL/MOL
REMARK 927      BINDING AFFINITY PREDICTED BY RF-SCORE:    0.00 PKD
ROOT
HETATM    1  C   UNL     1      -9.695  13.937  65.925  1.00  0.00    -0.237 C  
HETATM    2  C   UNL     1      -9.085  14.004  67.347  1.00  0.00    -0.209 C  
HETATM    3  C   UNL     1     -10.116  14.465  68.386  1.00  0.00    -0.244 A  
HETATM    4  C   UNL     1      -7.749  14.728  67.335  1.00  0.00    -0.230 C  
HETATM    5  C   UNL     1      -9.781  15.260  69.481  1.00  0.00    -0.224 A  
HETATM    6  C   UNL     1      -6.508  14.255  67.611  1.00  0.00    -0.151 C  
HETATM    7  C   UNL     1     -10.757  15.569  70.430  1.00  0.00    -0.342 A  
HETATM    8  C   UNL     1      -5.419  15.284  67.365  1.00  0.00     0.181 C  
HETATM    9  C   UNL     1      -7.584  16.138  66.934  1.00  0.00    -0.275 A  
HETATM   10  C   UNL     1      -6.220  16.458  66.917  1.00  0.00    -0.079 A  
HETATM   11  C   UNL     1      -8.522  17.106  66.599  1.00  0.00    -0.284 A  
HETATM   12  C   UNL     1     -12.043  15.069  70.280  1.00  0.00    -0.378 A  
HETATM   13  C   UNL     1     -12.302  14.276  69.182  1.00  0.00    -0.130 A  
HETATM   14  C   UNL     1      -8.076  18.376  66.225  1.00  0.00    -0.249 A  
HETATM   15  C   UNL     1      -5.762  17.711  66.537  1.00  0.00    -0.230 A  
HETATM   16  N   UNL     1     -11.374  13.959  68.254  1.00  0.00    -0.277 NA 
HETATM   17  C   UNL     1      -6.704  18.675  66.186  1.00  0.00    -0.268 A  
ENDROOT
BRANCH   6  18
HETATM   18  C   UNL     1      -6.072  12.895  68.096  1.00  0.00    -0.094 C  
BRANCH  18  19
HETATM   19  C   UNL     1      -6.148  11.849  66.968  1.00  0.00    -0.149 C  
BRANCH  19  20
HETATM   20  N   UNL     1      -5.997  10.434  67.372  1.00  0.00    -0.052 NA 
HETATM   21  C   UNL     1      -5.164   9.661  66.451  1.00  0.00    -0.043 C  
HETATM   22  C   UNL     1      -5.409  10.389  68.717  1.00  0.00    -0.038 C  
ENDBRANCH  19  20
ENDBRANCH  18  19
ENDBRANCH   6  18
TORSDOF 3
ENDMDL
MODEL      123
REMARK 921   NORMALIZED FREE ENERGY PREDICTED BY IDOCK:   -3.29 KCAL/MOL
REMARK 922        TOTAL FREE ENERGY PREDICTED BY IDOCK:   -4.16 KCAL/MOL
REMARK 923 INTER-LIGAND FREE ENERGY PREDICTED BY IDOCK:   -3.79 KCAL/MOL
REMARK 924 INTRA-LIGAND FREE ENERGY PREDICTED BY IDOCK:   -0.38 KCAL/MOL
REMARK 927      BINDING AFFINITY PREDICTED BY RF-SCORE:    0.00 PKD
ROOT
HETATM    1  C   UNL     1     -10.735   9.170  68.914  1.00  0.00    -0.167 C  
HETATM    2  C   UNL     1      -9.484   8.257  68.879  1.00  0.00    -0.151 C  
HETATM    3  C   UNL     1      -9.770   6.930  68.162  1.00  0.00    -0.131 A  
HETATM    4  C   UNL     1      -8.831   8.173  70.248  1.00  0.00    -0.141 C  
HETATM    5  C   UNL     1      -9.190   5.723  68.548  1.00  0.00    -0.126 A  
HETATM    6  C   UNL     1      -7.609   8.605  70.649  1.00  0.00    -0.080 C  
HETATM    7  C   UNL     1      -9.432   4.573  67.795  1.00  0.00    -0.196 A  
HETATM    8  C   UNL     1      -7.387   8.432  72.142  1.00  0.00    -0.127 C  
HETATM    9  C   UNL     1      -9.498   7.623  71.443  1.00  0.00    -0.166 A  
HETATM   10  C   UNL     1      -8.672   7.804  72.560  1.00  0.00    -0.196 A  
HETATM   11  C   UNL     1     -10.733   7.004  71.594  1.00  0.00    -0.244 A  
HETATM   12  C   UNL     1     -10.233   4.648  66.665  1.00  0.00    -0.250 A  
HETATM   13  C   UNL     1     -10.763   5.876  66.331  1.00  0.00    -0.088 A  
HETATM   14  C   UNL     1     -11.133   6.599  72.870  1.00  0.00    -0.263 A  
HETATM   15  C   UNL     1      -9.060   7.416  73.834  1.00  0.00    -0.298 A  
HETATM   16  N   UNL     1     -10.539   7.004  67.040  1.00  0.00    -0.323 NA 
HETATM   17  C   UNL     1     -10.305   6.811  73.985  1.00  0.00    -0.377 A  
ENDROOT
BRANCH   6  18
HETATM   18  C   UNL     1      -6.488   9.224  69.854  1.00  0.00    -0.044 C  
BRANCH  18  19
HETATM   19  C   UNL     1      -6.466  10.755  70.018  1.00  0.00    -0.151 C  
BRANCH  19  20
HETATM   20  N   UNL     1      -6.482  11.551  68.772  1.00  0.00    -0.054 NA 
HETATM   21  C   UNL     1      -7.737  11.428  68.030  1.00  0.00    -0.114 C  
HETATM   22  C   UNL     1      -6.253  12.962  69.112  1.00  0.00    -0.101 C  
ENDBRANCH  19  20
ENDBRANCH  18  19
ENDBRANCH   6  18
TORSDOF 3
ENDMDL
MODEL      124
REMARK 921   NORMALIZED FREE ENERGY PREDICTED BY IDOCK:   -3.20 KCAL/MOL
REMARK 922        TOTAL FREE ENERGY PREDICTED BY IDOCK:   -4.06 KCAL/MOL
REMARK 923 INTER-LIGAND FREE ENERGY PREDICTED BY IDOCK:   -3.76 KCAL/MOL
REMARK 924 INTRA-LIGAND FREE ENERGY PREDICTED BY IDOCK:   -0.30 KCAL/MOL
REMARK 927      BINDING AFFINITY PREDICTED BY RF-SCORE:    0.00 PKD
ROOT
HETATM    1  C   UNL     1     -12.163   6.852  70.497  1.00  0.00    -0.253 C  
HETATM    2  C   UNL     1     -10.629   7.057  70.568  1.00  0.00    -0.245 C  
HETATM    3  C   UNL     1     -10.212   8.423  70.004  1.00  0.00    -0.202 A  
HETATM    4  C   UNL     1      -9.890   5.840  70.038  1.00  0.00    -0.235 C  
HETATM    5  C   UNL     1      -9.023   8.620  69.304  1.00  0.00    -0.145 A  
HETATM    6  C   UNL     1      -9.074   4.974  70.690  1.00  0.00    -0.174 C  
HETATM    7  C   UNL     1      -8.672   9.908  68.895  1.00  0.00    -0.140 A  
HETATM    8  C   UNL     1      -8.629   3.815  69.815  1.00  0.00    -0.106 C  
HETATM    9  C   UNL     1     -10.006   5.350  68.652  1.00  0.00    -0.232 A  
HETATM   10  C   UNL     1      -9.298   4.147  68.525  1.00  0.00    -0.216 A  
HETATM   11  C   UNL     1     -10.667   5.877  67.550  1.00  0.00    -0.359 A  
HETATM   12  C   UNL     1      -9.501  10.976  69.204  1.00  0.00    -0.064 A  
HETATM   13  C   UNL     1     -10.655  10.714  69.914  1.00  0.00    -0.151 A  
HETATM   14  C   UNL     1     -10.632   5.175  66.343  1.00  0.00    -0.336 A  
HETATM   15  C   UNL     1      -9.264   3.434  67.335  1.00  0.00    -0.228 A  
HETATM   16  N   UNL     1     -11.013   9.477  70.324  1.00  0.00    -0.252 NA 
HETATM   17  C   UNL     1      -9.941   3.957  66.237  1.00  0.00    -0.058 A  
ENDROOT
BRANCH   6  18
HETATM   18  C   UNL     1      -8.578   4.991  72.114  1.00  0.00    -0.125 C  
BRANCH  18  19
HETATM   19  C   UNL     1      -7.530   6.098  72.328  1.00  0.00    -0.095 C  
BRANCH  19  20
HETATM   20  N   UNL     1      -6.175   5.655  72.721  1.00  0.00    -0.047 NA 
HETATM   21  C   UNL     1      -5.134   6.625  72.383  1.00  0.00    -0.031 C  
HETATM   22  C   UNL     1      -6.162   5.411  74.170  1.00  0.00    -0.063 C  
ENDBRANCH  19  20
ENDBRANCH  18  19
ENDBRANCH   6  18
TORSDOF 3
ENDMDL
MODEL      125
REMARK 921   NORMALIZED FREE ENERGY PREDICTED BY IDOCK:   -3.13 KCAL/MOL
REMARK 922        TOTAL FREE ENERGY PREDICTED BY IDOCK:   -3.98 KCAL/MOL
REMARK 923 INTER-LIGAND FREE ENERGY PREDICTED BY IDOCK:   -3.71 KCAL/MOL
REMARK 924 INTRA-LIGAND FREE ENERGY PREDICTED BY IDOCK:   -0.27 KCAL/MOL
REMARK 927      BINDING AFFINITY PREDICTED BY RF-SCORE:    0.00 PKD
ROOT
HETATM    1  C   UNL     1      -7.701  14.720  70.044  1.00  0.00     0.303 C  
HETATM    2  C   UNL     1      -7.993  14.037  68.685  1.00  0.00    -0.122 C  
HETATM    3  C   UNL     1      -6.986  12.917  68.385  1.00  0.00    -0.096 A  
HETATM    4  C   UNL     1      -8.220  15.069  67.593  1.00  0.00    -0.181 C  
HETATM    5  C   UNL     1      -6.536  12.632  67.097  1.00  0.00    -0.004 A  
HETATM    6  C   UNL     1      -9.340  15.334  66.876  1.00  0.00    -0.255 C  
HETATM    7  C   UNL     1      -5.685  11.544  66.892  1.00  0.00    -0.131 A  
HETATM    8  C   UNL     1      -9.179  16.532  65.957  1.00  0.00    -0.295 C  
HETATM    9  C   UNL     1      -7.201  16.043  67.161  1.00  0.00    -0.257 A  
HETATM   10  C   UNL     1      -7.767  16.924  66.229  1.00  0.00    -0.332 A  
HETATM   11  C   UNL     1      -5.869  16.192  67.525  1.00  0.00    -0.180 A  
HETATM   12  C   UNL     1      -5.312  10.752  67.969  1.00  0.00    -0.036 A  
HETATM   13  C   UNL     1      -5.807  11.081  69.213  1.00  0.00    -0.043 A  
HETATM   14  C   UNL     1      -5.130  17.239  66.969  1.00  0.00    -0.179 A  
HETATM   15  C   UNL     1      -7.049  17.975  65.677  1.00  0.00    -0.135 A  
HETATM   16  N   UNL     1      -6.634  12.125  69.436  1.00  0.00    -0.108 NA 
HETATM   17  C   UNL     1      -5.718  18.131  66.057  1.00  0.00    -0.226 A  
ENDROOT
BRANCH   6  18
HETATM   18  C   UNL     1     -10.680  14.642  66.875  1.00  0.00    -0.294 C  
BRANCH  18  19
HETATM   19  C   UNL     1     -11.453  14.922  65.573  1.00  0.00    -0.307 C  
BRANCH  19  20
HETATM   20  N   UNL     1     -11.225  13.980  64.456  1.00  0.00    -0.369 NA 
HETATM   21  C   UNL     1     -10.644  12.709  64.888  1.00  0.00    -0.307 C  
HETATM   22  C   UNL     1     -12.506  13.727  63.784  1.00  0.00    -0.159 C  
ENDBRANCH  19  20
ENDBRANCH  18  19
ENDBRANCH   6  18
TORSDOF 3
ENDMDL
MODEL      126
REMARK 921   NORMALIZED FREE ENERGY PREDICTED BY IDOCK:   -3.10 KCAL/MOL
REMARK 922        TOTAL FREE ENERGY PREDICTED BY IDOCK:   -3.94 KCAL/MOL
REMARK 923 INTER-LIGAND FREE ENERGY PREDICTED BY IDOCK:   -3.59 KCAL/MOL
REMARK 924 INTRA-LIGAND FREE ENERGY PREDICTED BY IDOCK:   -0.35 KCAL/MOL
REMARK 927      BINDING AFFINITY PREDICTED BY RF-SCORE:    0.00 PKD
ROOT
HETATM    1  C   UNL     1      -6.509   6.458  68.713  1.00  0.00    -0.046 C  
HETATM    2  C   UNL     1      -7.791   7.242  68.334  1.00  0.00    -0.122 C  
HETATM    3  C   UNL     1      -9.015   6.738  69.112  1.00  0.00    -0.132 A  
HETATM    4  C   UNL     1      -7.934   7.359  66.826  1.00  0.00    -0.115 C  
HETATM    5  C   UNL     1     -10.294   6.694  68.560  1.00  0.00    -0.216 A  
HETATM    6  C   UNL     1      -7.900   8.463  66.039  1.00  0.00    -0.098 C  
HETATM    7  C   UNL     1     -11.372   6.303  69.356  1.00  0.00    -0.448 A  
HETATM    8  C   UNL     1      -7.965   8.130  64.559  1.00  0.00    -0.142 C  
HETATM    9  C   UNL     1      -8.082   6.201  65.924  1.00  0.00    -0.121 A  
HETATM   10  C   UNL     1      -8.066   6.644  64.595  1.00  0.00    -0.088 A  
HETATM   11  C   UNL     1      -8.222   4.846  66.195  1.00  0.00    -0.108 A  
HETATM   12  C   UNL     1     -11.160   5.977  70.688  1.00  0.00    -0.371 A  
HETATM   13  C   UNL     1      -9.872   6.058  71.174  1.00  0.00    -0.179 A  
HETATM   14  C   UNL     1      -8.317   3.951  65.127  1.00  0.00    -0.101 A  
HETATM   15  C   UNL     1      -8.148   5.766  63.524  1.00  0.00    -0.106 A  
HETATM   16  N   UNL     1      -8.813   6.438  70.425  1.00  0.00    -0.150 NA 
HETATM   17  C   UNL     1      -8.272   4.406  63.799  1.00  0.00    -0.100 A  
ENDROOT
BRANCH   6  18
HETATM   18  C   UNL     1      -7.795   9.920  66.413  1.00  0.00    -0.107 C  
BRANCH  18  19
HETATM   19  C   UNL     1      -8.899  10.752  65.735  1.00  0.00    -0.188 C  
BRANCH  19  20
HETATM   20  N   UNL     1      -9.894  11.380  66.632  1.00  0.00    -0.201 NA 
HETATM   21  C   UNL     1     -10.540  10.423  67.529  1.00  0.00    -0.262 C  
HETATM   22  C   UNL     1      -9.223  12.417  67.426  1.00  0.00    -0.184 C  
ENDBRANCH  19  20
ENDBRANCH  18  19
ENDBRANCH   6  18
TORSDOF 3
ENDMDL
MODEL      127
REMARK 921   NORMALIZED FREE ENERGY PREDICTED BY IDOCK:   -3.09 KCAL/MOL
REMARK 922        TOTAL FREE ENERGY PREDICTED BY IDOCK:   -3.93 KCAL/MOL
REMARK 923 INTER-LIGAND FREE ENERGY PREDICTED BY IDOCK:   -3.52 KCAL/MOL
REMARK 924 INTRA-LIGAND FREE ENERGY PREDICTED BY IDOCK:   -0.40 KCAL/MOL
REMARK 927      BINDING AFFINITY PREDICTED BY RF-SCORE:    0.00 PKD
ROOT
HETATM    1  C   UNL     1     -10.682   8.609  67.372  1.00  0.00    -0.212 C  
HETATM    2  C   UNL     1      -9.495   8.319  68.324  1.00  0.00    -0.146 C  
HETATM    3  C   UNL     1      -9.921   8.386  69.798  1.00  0.00    -0.191 A  
HETATM    4  C   UNL     1      -8.267   9.121  67.926  1.00  0.00    -0.112 C  
HETATM    5  C   UNL     1      -9.083   8.864  70.805  1.00  0.00    -0.260 A  
HETATM    6  C   UNL     1      -7.065   8.688  67.471  1.00  0.00    -0.080 C  
HETATM    7  C   UNL     1      -9.509   8.814  72.133  1.00  0.00    -0.309 A  
HETATM    8  C   UNL     1      -6.144   9.828  67.072  1.00  0.00    -0.063 C  
HETATM    9  C   UNL     1      -8.218  10.595  67.917  1.00  0.00    -0.112 A  
HETATM   10  C   UNL     1      -6.991  11.014  67.386  1.00  0.00    -0.086 A  
HETATM   11  C   UNL     1      -9.147  11.541  68.329  1.00  0.00    -0.185 A  
HETATM   12  C   UNL     1     -10.752   8.277  72.437  1.00  0.00    -0.411 A  
HETATM   13  C   UNL     1     -11.523   7.807  71.394  1.00  0.00    -0.260 A  
HETATM   14  C   UNL     1      -8.843  12.896  68.178  1.00  0.00    -0.194 A  
HETATM   15  C   UNL     1      -6.679  12.355  67.220  1.00  0.00    -0.133 A  
HETATM   16  N   UNL     1     -11.131   7.839  70.101  1.00  0.00    -0.242 NA 
HETATM   17  C   UNL     1      -7.620  13.302  67.619  1.00  0.00    -0.171 A  
ENDROOT
BRANCH   6  18
HETATM   18  C   UNL     1      -6.538   7.286  67.298  1.00  0.00    -0.063 C  
BRANCH  18  19
HETATM   19  C   UNL     1      -6.429   6.558  68.650  1.00  0.00    -0.049 C  
BRANCH  19  20
HETATM   20  N   UNL     1      -7.205   5.307  68.790  1.00  0.00    -0.064 NA 
HETATM   21  C   UNL     1      -7.930   5.221  70.057  1.00  0.00    -0.080 C  
HETATM   22  C   UNL     1      -8.157   5.218  67.675  1.00  0.00    -0.100 C  
ENDBRANCH  19  20
ENDBRANCH  18  19
ENDBRANCH   6  18
TORSDOF 3
ENDMDL
MODEL      128
REMARK 921   NORMALIZED FREE ENERGY PREDICTED BY IDOCK:   -3.07 KCAL/MOL
REMARK 922        TOTAL FREE ENERGY PREDICTED BY IDOCK:   -3.91 KCAL/MOL
REMARK 923 INTER-LIGAND FREE ENERGY PREDICTED BY IDOCK:   -3.70 KCAL/MOL
REMARK 924 INTRA-LIGAND FREE ENERGY PREDICTED BY IDOCK:   -0.22 KCAL/MOL
REMARK 927      BINDING AFFINITY PREDICTED BY RF-SCORE:    0.00 PKD
ROOT
HETATM    1  C   UNL     1      -7.031   5.649  70.148  1.00  0.00    -0.065 C  
HETATM    2  C   UNL     1      -8.518   5.516  70.561  1.00  0.00    -0.123 C  
HETATM    3  C   UNL     1      -8.754   4.283  71.445  1.00  0.00    -0.111 A  
HETATM    4  C   UNL     1      -9.435   5.688  69.362  1.00  0.00    -0.169 C  
HETATM    5  C   UNL     1      -9.922   3.524  71.387  1.00  0.00    -0.151 A  
HETATM    6  C   UNL     1     -10.347   6.659  69.105  1.00  0.00    -0.220 C  
HETATM    7  C   UNL     1     -10.099   2.467  72.282  1.00  0.00    -0.225 A  
HETATM    8  C   UNL     1     -10.974   6.526  67.729  1.00  0.00    -0.407 C  
HETATM    9  C   UNL     1      -9.428   4.794  68.189  1.00  0.00    -0.186 A  
HETATM   10  C   UNL     1     -10.301   5.299  67.216  1.00  0.00    -0.254 A  
HETATM   11  C   UNL     1      -8.730   3.619  67.942  1.00  0.00    -0.127 A  
HETATM   12  C   UNL     1      -9.119   2.194  73.225  1.00  0.00    -0.079 A  
HETATM   13  C   UNL     1      -7.995   2.994  73.238  1.00  0.00    -0.064 A  
HETATM   14  C   UNL     1      -8.897   2.982  66.710  1.00  0.00    -0.159 A  
HETATM   15  C   UNL     1     -10.469   4.682  65.985  1.00  0.00    -0.303 A  
HETATM   16  N   UNL     1      -7.803   4.025  72.386  1.00  0.00    -0.079 NA 
HETATM   17  C   UNL     1      -9.755   3.514  65.734  1.00  0.00    -0.056 A  
ENDROOT
BRANCH   6  18
HETATM   18  C   UNL     1     -10.796   7.820  69.957  1.00  0.00    -0.243 C  
BRANCH  18  19
HETATM   19  C   UNL     1     -10.642   9.156  69.207  1.00  0.00    -0.216 C  
BRANCH  19  20
HETATM   20  N   UNL     1      -9.428   9.945  69.510  1.00  0.00    -0.210 NA 
HETATM   21  C   UNL     1      -8.191   9.252  69.153  1.00  0.00    -0.111 C  
HETATM   22  C   UNL     1      -9.501  11.219  68.782  1.00  0.00    -0.139 C  
ENDBRANCH  19  20
ENDBRANCH  18  19
ENDBRANCH   6  18
TORSDOF 3
ENDMDL
MODEL      129
REMARK 921   NORMALIZED FREE ENERGY PREDICTED BY IDOCK:   -2.87 KCAL/MOL
REMARK 922        TOTAL FREE ENERGY PREDICTED BY IDOCK:   -3.67 KCAL/MOL
REMARK 923 INTER-LIGAND FREE ENERGY PREDICTED BY IDOCK:   -3.39 KCAL/MOL
REMARK 924 INTRA-LIGAND FREE ENERGY PREDICTED BY IDOCK:   -0.28 KCAL/MOL
REMARK 927      BINDING AFFINITY PREDICTED BY RF-SCORE:    0.00 PKD
ROOT
HETATM    1  C   UNL     1     -11.222   6.688  68.262  1.00  0.00    -0.208 C  
HETATM    2  C   UNL     1      -9.912   6.425  69.046  1.00  0.00    -0.171 C  
HETATM    3  C   UNL     1      -8.762   7.309  68.543  1.00  0.00    -0.123 A  
HETATM    4  C   UNL     1      -9.634   4.936  69.163  1.00  0.00    -0.231 C  
HETATM    5  C   UNL     1      -7.439   6.875  68.500  1.00  0.00    -0.096 A  
HETATM    6  C   UNL     1      -9.598   4.149  70.267  1.00  0.00    -0.269 C  
HETATM    7  C   UNL     1      -6.436   7.765  68.110  1.00  0.00    -0.054 A  
HETATM    8  C   UNL     1      -9.401   2.680  69.935  1.00  0.00    -0.191 C  
HETATM    9  C   UNL     1      -9.405   4.051  68.006  1.00  0.00    -0.220 A  
HETATM   10  C   UNL     1      -9.302   2.726  68.448  1.00  0.00    -0.252 A  
HETATM   11  C   UNL     1      -9.289   4.334  66.651  1.00  0.00    -0.179 A  
HETATM   12  C   UNL     1      -6.767   9.072  67.785  1.00  0.00    -0.065 A  
HETATM   13  C   UNL     1      -8.094   9.441  67.864  1.00  0.00    -0.103 A  
HETATM   14  C   UNL     1      -9.098   3.279  65.755  1.00  0.00    -0.153 A  
HETATM   15  C   UNL     1      -9.123   1.667  67.570  1.00  0.00    -0.164 A  
HETATM   16  N   UNL     1      -9.081   8.600  68.244  1.00  0.00    -0.141 NA 
HETATM   17  C   UNL     1      -9.024   1.952  66.210  1.00  0.00    -0.099 A  
ENDROOT
BRANCH   6  18
HETATM   18  C   UNL     1      -9.738   4.511  71.725  1.00  0.00    -0.235 C  
BRANCH  18  19
HETATM   19  C   UNL     1      -8.551   5.368  72.204  1.00  0.00    -0.126 C  
BRANCH  19  20
HETATM   20  N   UNL     1      -8.232   5.303  73.646  1.00  0.00    -0.112 NA 
HETATM   21  C   UNL     1      -9.357   4.845  74.461  1.00  0.00    -0.124 C  
HETATM   22  C   UNL     1      -7.092   4.397  73.836  1.00  0.00    -0.067 C  
ENDBRANCH  19  20
ENDBRANCH  18  19
ENDBRANCH   6  18
TORSDOF 3
ENDMDL
MODEL      130
REMARK 921   NORMALIZED FREE ENERGY PREDICTED BY IDOCK:   -2.86 KCAL/MOL
REMARK 922        TOTAL FREE ENERGY PREDICTED BY IDOCK:   -3.66 KCAL/MOL
REMARK 923 INTER-LIGAND FREE ENERGY PREDICTED BY IDOCK:   -3.45 KCAL/MOL
REMARK 924 INTRA-LIGAND FREE ENERGY PREDICTED BY IDOCK:   -0.22 KCAL/MOL
REMARK 927      BINDING AFFINITY PREDICTED BY RF-SCORE:    0.00 PKD
ROOT
HETATM    1  C   UNL     1      -9.261   8.916  71.913  1.00  0.00    -0.240 C  
HETATM    2  C   UNL     1     -10.106   8.089  70.912  1.00  0.00    -0.211 C  
HETATM    3  C   UNL     1     -11.601   8.417  71.025  1.00  0.00    -0.275 A  
HETATM    4  C   UNL     1      -9.719   6.620  70.953  1.00  0.00    -0.190 C  
HETATM    5  C   UNL     1     -12.600   7.460  70.846  1.00  0.00    -0.187 A  
HETATM    6  C   UNL     1      -9.151   5.850  69.991  1.00  0.00    -0.154 C  
HETATM    7  C   UNL     1     -13.940   7.852  70.881  1.00  0.00     0.114 A  
HETATM    8  C   UNL     1      -8.816   4.452  70.481  1.00  0.00    -0.136 C  
HETATM    9  C   UNL     1      -9.857   5.769  72.149  1.00  0.00    -0.181 A  
HETATM   10  C   UNL     1      -9.299   4.510  71.889  1.00  0.00    -0.189 A  
HETATM   11  C   UNL     1     -10.418   6.028  73.393  1.00  0.00    -0.264 A  
HETATM   12  C   UNL     1     -14.260   9.187  71.079  1.00  0.00     0.117 A  
HETATM   13  C   UNL     1     -13.223  10.083  71.233  1.00  0.00    -0.383 A  
HETATM   14  C   UNL     1     -10.388   5.028  74.368  1.00  0.00    -0.321 A  
HETATM   15  C   UNL     1      -9.252   3.511  72.851  1.00  0.00    -0.125 A  
HETATM   16  N   UNL     1     -11.919   9.730  71.198  1.00  0.00    -0.347 NA 
HETATM   17  C   UNL     1      -9.801   3.780  74.103  1.00  0.00    -0.156 A  
ENDROOT
BRANCH   6  18
HETATM   18  C   UNL     1      -8.805   6.180  68.561  1.00  0.00    -0.113 C  
BRANCH  18  19
HETATM   19  C   UNL     1      -7.834   7.372  68.482  1.00  0.00    -0.122 C  
BRANCH  19  20
HETATM   20  N   UNL     1      -6.412   7.083  68.767  1.00  0.00    -0.032 NA 
HETATM   21  C   UNL     1      -5.748   6.352  67.689  1.00  0.00    -0.012 C  
HETATM   22  C   UNL     1      -5.711   8.353  68.999  1.00  0.00    -0.039 C  
ENDBRANCH  19  20
ENDBRANCH  18  19
ENDBRANCH   6  18
TORSDOF 3
ENDMDL
MODEL      131
REMARK 921   NORMALIZED FREE ENERGY PREDICTED BY IDOCK:   -2.82 KCAL/MOL
REMARK 922        TOTAL FREE ENERGY PREDICTED BY IDOCK:   -3.62 KCAL/MOL
REMARK 923 INTER-LIGAND FREE ENERGY PREDICTED BY IDOCK:   -3.33 KCAL/MOL
REMARK 924 INTRA-LIGAND FREE ENERGY PREDICTED BY IDOCK:   -0.28 KCAL/MOL
REMARK 927      BINDING AFFINITY PREDICTED BY RF-SCORE:    0.00 PKD
ROOT
HETATM    1  C   UNL     1      -7.192   6.726  70.871  1.00  0.00    -0.073 C  
HETATM    2  C   UNL     1      -7.885   8.019  70.371  1.00  0.00    -0.091 C  
HETATM    3  C   UNL     1      -9.292   8.175  70.965  1.00  0.00    -0.152 A  
HETATM    4  C   UNL     1      -7.755   8.160  68.863  1.00  0.00    -0.103 C  
HETATM    5  C   UNL     1     -10.352   8.736  70.255  1.00  0.00    -0.227 A  
HETATM    6  C   UNL     1      -7.096   9.098  68.138  1.00  0.00    -0.078 C  
HETATM    7  C   UNL     1     -11.581   8.923  70.892  1.00  0.00    -0.331 A  
HETATM    8  C   UNL     1      -7.116   8.807  66.648  1.00  0.00    -0.081 C  
HETATM    9  C   UNL     1      -8.315   7.195  67.898  1.00  0.00    -0.118 A  
HETATM   10  C   UNL     1      -7.915   7.550  66.603  1.00  0.00    -0.110 A  
HETATM   11  C   UNL     1      -9.117   6.077  68.087  1.00  0.00    -0.118 A  
HETATM   12  C   UNL     1     -11.727   8.563  72.223  1.00  0.00    -0.443 A  
HETATM   13  C   UNL     1     -10.632   8.028  72.870  1.00  0.00    -0.329 A  
HETATM   14  C   UNL     1      -9.484   5.314  66.976  1.00  0.00    -0.137 A  
HETATM   15  C   UNL     1      -8.263   6.797  65.492  1.00  0.00    -0.131 A  
HETATM   16  N   UNL     1      -9.432   7.842  72.278  1.00  0.00    -0.172 NA 
HETATM   17  C   UNL     1      -9.053   5.667  65.686  1.00  0.00    -0.110 A  
ENDROOT
BRANCH   6  18
HETATM   18  C   UNL     1      -6.361  10.336  68.588  1.00  0.00    -0.051 C  
BRANCH  18  19
HETATM   19  C   UNL     1      -7.324  11.525  68.764  1.00  0.00    -0.115 C  
BRANCH  19  20
HETATM   20  N   UNL     1      -6.806  12.854  68.375  1.00  0.00    -0.087 NA 
HETATM   21  C   UNL     1      -7.844  13.745  67.859  1.00  0.00    -0.159 C  
HETATM   22  C   UNL     1      -6.171  13.472  69.548  1.00  0.00    -0.115 C  
ENDBRANCH  19  20
ENDBRANCH  18  19
ENDBRANCH   6  18
TORSDOF 3
ENDMDL
MODEL      132
REMARK 921   NORMALIZED FREE ENERGY PREDICTED BY IDOCK:   -2.77 KCAL/MOL
REMARK 922        TOTAL FREE ENERGY PREDICTED BY IDOCK:   -3.55 KCAL/MOL
REMARK 923 INTER-LIGAND FREE ENERGY PREDICTED BY IDOCK:   -3.34 KCAL/MOL
REMARK 924 INTRA-LIGAND FREE ENERGY PREDICTED BY IDOCK:   -0.21 KCAL/MOL
REMARK 927      BINDING AFFINITY PREDICTED BY RF-SCORE:    0.00 PKD
ROOT
HETATM    1  C   UNL     1      -6.801   6.912  70.246  1.00  0.00    -0.057 C  
HETATM    2  C   UNL     1      -7.946   7.671  69.530  1.00  0.00    -0.125 C  
HETATM    3  C   UNL     1      -9.168   7.847  70.441  1.00  0.00    -0.158 A  
HETATM    4  C   UNL     1      -8.197   7.100  68.144  1.00  0.00    -0.124 C  
HETATM    5  C   UNL     1     -10.477   7.812  69.964  1.00  0.00    -0.230 A  
HETATM    6  C   UNL     1      -8.030   7.679  66.929  1.00  0.00    -0.115 C  
HETATM    7  C   UNL     1     -11.535   8.064  70.840  1.00  0.00    -0.291 A  
HETATM    8  C   UNL     1      -8.284   6.718  65.781  1.00  0.00    -0.135 C  
HETATM    9  C   UNL     1      -8.633   5.713  67.896  1.00  0.00    -0.101 A  
HETATM   10  C   UNL     1      -8.652   5.474  66.515  1.00  0.00    -0.118 A  
HETATM   11  C   UNL     1      -8.995   4.700  68.774  1.00  0.00    -0.143 A  
HETATM   12  C   UNL     1     -11.270   8.360  72.169  1.00  0.00    -0.431 A  
HETATM   13  C   UNL     1      -9.951   8.393  72.572  1.00  0.00    -0.285 A  
HETATM   14  C   UNL     1      -9.345   3.451  68.255  1.00  0.00    -0.239 A  
HETATM   15  C   UNL     1      -8.988   4.236  65.987  1.00  0.00    -0.123 A  
HETATM   16  N   UNL     1      -8.911   8.158  71.742  1.00  0.00    -0.140 NA 
HETATM   17  C   UNL     1      -9.334   3.217  66.870  1.00  0.00    -0.184 A  
ENDROOT
BRANCH   6  18
HETATM   18  C   UNL     1      -7.627   9.088  66.570  1.00  0.00    -0.089 C  
BRANCH  18  19
HETATM   19  C   UNL     1      -6.205   9.406  67.066  1.00  0.00    -0.065 C  
BRANCH  19  20
HETATM   20  N   UNL     1      -5.974  10.777  67.570  1.00  0.00    -0.044 NA 
HETATM   21  C   UNL     1      -5.214  10.808  68.818  1.00  0.00    -0.041 C  
HETATM   22  C   UNL     1      -5.256  11.541  66.541  1.00  0.00    -0.102 C  
ENDBRANCH  19  20
ENDBRANCH  18  19
ENDBRANCH   6  18
TORSDOF 3
ENDMDL
MODEL      133
REMARK 921   NORMALIZED FREE ENERGY PREDICTED BY IDOCK:   -2.60 KCAL/MOL
REMARK 922        TOTAL FREE ENERGY PREDICTED BY IDOCK:   -3.35 KCAL/MOL
REMARK 923 INTER-LIGAND FREE ENERGY PREDICTED BY IDOCK:   -3.07 KCAL/MOL
REMARK 924 INTRA-LIGAND FREE ENERGY PREDICTED BY IDOCK:   -0.29 KCAL/MOL
REMARK 927      BINDING AFFINITY PREDICTED BY RF-SCORE:    0.00 PKD
ROOT
HETATM    1  C   UNL     1      -7.816  18.235  68.713  1.00  0.00    -0.277 C  
HETATM    2  C   UNL     1      -6.851  17.527  67.730  1.00  0.00    -0.183 C  
HETATM    3  C   UNL     1      -6.559  18.393  66.497  1.00  0.00    -0.195 A  
HETATM    4  C   UNL     1      -7.285  16.093  67.477  1.00  0.00    -0.188 C  
HETATM    5  C   UNL     1      -6.370  17.856  65.225  1.00  0.00     0.098 A  
HETATM    6  C   UNL     1      -6.657  14.932  67.791  1.00  0.00    -0.187 C  
HETATM    7  C   UNL     1      -6.025  18.701  64.168  1.00  0.00     0.327 A  
HETATM    8  C   UNL     1      -7.492  13.707  67.465  1.00  0.00    -0.181 C  
HETATM    9  C   UNL     1      -8.573  15.723  66.861  1.00  0.00    -0.279 A  
HETATM   10  C   UNL     1      -8.714  14.329  66.883  1.00  0.00    -0.202 A  
HETATM   11  C   UNL     1      -9.579  16.507  66.310  1.00  0.00    -0.333 A  
HETATM   12  C   UNL     1      -5.860  20.059  64.399  1.00  0.00    -0.289 A  
HETATM   13  C   UNL     1      -6.048  20.521  65.685  1.00  0.00    -0.225 A  
HETATM   14  C   UNL     1     -10.725  15.882  65.813  1.00  0.00    -0.325 A  
HETATM   15  C   UNL     1      -9.851  13.696  66.403  1.00  0.00    -0.302 A  
HETATM   16  N   UNL     1      -6.376  19.724  66.725  1.00  0.00    -0.182 NA 
HETATM   17  C   UNL     1     -10.865  14.485  65.867  1.00  0.00    -0.308 A  
ENDROOT
BRANCH   6  18
HETATM   18  C   UNL     1      -5.302  14.697  68.410  1.00  0.00    -0.108 C  
BRANCH  18  19
HETATM   19  C   UNL     1      -5.421  13.938  69.744  1.00  0.00    -0.098 C  
BRANCH  19  20
HETATM   20  N   UNL     1      -5.212  14.731  70.975  1.00  0.00    -0.129 NA 
HETATM   21  C   UNL     1      -5.316  16.172  70.751  1.00  0.00    -0.117 C  
HETATM   22  C   UNL     1      -6.208  14.320  71.974  1.00  0.00     0.617 C  
ENDBRANCH  19  20
ENDBRANCH  18  19
ENDBRANCH   6  18
TORSDOF 3
ENDMDL
MODEL      134
REMARK 921   NORMALIZED FREE ENERGY PREDICTED BY IDOCK:   -2.51 KCAL/MOL
REMARK 922        TOTAL FREE ENERGY PREDICTED BY IDOCK:   -3.25 KCAL/MOL
REMARK 923 INTER-LIGAND FREE ENERGY PREDICTED BY IDOCK:   -2.84 KCAL/MOL
REMARK 924 INTRA-LIGAND FREE ENERGY PREDICTED BY IDOCK:   -0.41 KCAL/MOL
REMARK 927      BINDING AFFINITY PREDICTED BY RF-SCORE:    0.00 PKD
ROOT
HETATM    1  C   UNL     1      -6.064   6.635  69.596  1.00  0.00    -0.026 C  
HETATM    2  C   UNL     1      -7.291   6.900  68.689  1.00  0.00    -0.094 C  
HETATM    3  C   UNL     1      -8.608   6.785  69.470  1.00  0.00    -0.133 A  
HETATM    4  C   UNL     1      -7.191   6.119  67.390  1.00  0.00    -0.076 C  
HETATM    5  C   UNL     1      -9.778   6.280  68.905  1.00  0.00    -0.144 A  
HETATM    6  C   UNL     1      -7.066   6.573  66.118  1.00  0.00    -0.067 C  
HETATM    7  C   UNL     1     -10.959   6.284  69.652  1.00  0.00    -0.440 A  
HETATM    8  C   UNL     1      -6.877   5.451  65.111  1.00  0.00    -0.049 C  
HETATM    9  C   UNL     1      -7.151   4.647  67.320  1.00  0.00    -0.065 A  
HETATM   10  C   UNL     1      -6.933   4.251  65.993  1.00  0.00    -0.066 A  
HETATM   11  C   UNL     1      -7.289   3.682  68.310  1.00  0.00    -0.054 A  
HETATM   12  C   UNL     1     -10.956   6.804  70.938  1.00  0.00    -0.303 A  
HETATM   13  C   UNL     1      -9.767   7.303  71.429  1.00  0.00    -0.164 A  
HETATM   14  C   UNL     1      -7.179   2.334  67.959  1.00  0.00    -0.048 A  
HETATM   15  C   UNL     1      -6.811   2.918  65.632  1.00  0.00    -0.048 A  
HETATM   16  N   UNL     1      -8.614   7.314  70.725  1.00  0.00    -0.143 NA 
HETATM   17  C   UNL     1      -6.933   1.954  66.630  1.00  0.00    -0.043 A  
ENDROOT
BRANCH   6  18
HETATM   18  C   UNL     1      -7.071   7.983  65.584  1.00  0.00    -0.063 C  
BRANCH  18  19
HETATM   19  C   UNL     1      -8.380   8.292  64.834  1.00  0.00    -0.135 C  
BRANCH  19  20
HETATM   20  N   UNL     1      -9.199   9.401  65.370  1.00  0.00    -0.233 NA 
HETATM   21  C   UNL     1      -9.966   9.026  66.557  1.00  0.00    -0.285 C  
HETATM   22  C   UNL     1      -8.311  10.525  65.697  1.00  0.00    -0.167 C  
ENDBRANCH  19  20
ENDBRANCH  18  19
ENDBRANCH   6  18
TORSDOF 3
ENDMDL
MODEL      135
REMARK 921   NORMALIZED FREE ENERGY PREDICTED BY IDOCK:   -2.49 KCAL/MOL
REMARK 922        TOTAL FREE ENERGY PREDICTED BY IDOCK:   -3.22 KCAL/MOL
REMARK 923 INTER-LIGAND FREE ENERGY PREDICTED BY IDOCK:   -2.86 KCAL/MOL
REMARK 924 INTRA-LIGAND FREE ENERGY PREDICTED BY IDOCK:   -0.36 KCAL/MOL
REMARK 927      BINDING AFFINITY PREDICTED BY RF-SCORE:    0.00 PKD
ROOT
HETATM    1  C   UNL     1      -6.078   5.875  69.833  1.00  0.00    -0.026 C  
HETATM    2  C   UNL     1      -7.139   6.989  70.018  1.00  0.00    -0.070 C  
HETATM    3  C   UNL     1      -7.968   6.776  71.292  1.00  0.00    -0.106 A  
HETATM    4  C   UNL     1      -7.908   7.230  68.729  1.00  0.00    -0.121 C  
HETATM    5  C   UNL     1      -9.321   7.103  71.376  1.00  0.00    -0.155 A  
HETATM    6  C   UNL     1      -7.944   8.333  67.940  1.00  0.00    -0.123 C  
HETATM    7  C   UNL     1      -9.988   6.960  72.594  1.00  0.00    -0.191 A  
HETATM    8  C   UNL     1      -8.749   8.119  66.671  1.00  0.00    -0.152 C  
HETATM    9  C   UNL     1      -8.740   6.209  68.067  1.00  0.00    -0.113 A  
HETATM   10  C   UNL     1      -9.207   6.712  66.846  1.00  0.00    -0.158 A  
HETATM   11  C   UNL     1      -9.092   4.924  68.461  1.00  0.00    -0.143 A  
HETATM   12  C   UNL     1      -9.294   6.511  73.708  1.00  0.00    -0.167 A  
HETATM   13  C   UNL     1      -7.953   6.221  73.560  1.00  0.00    -0.100 A  
HETATM   14  C   UNL     1      -9.886   4.151  67.609  1.00  0.00    -0.122 A  
HETATM   15  C   UNL     1      -9.987   5.952  65.986  1.00  0.00     0.050 A  
HETATM   16  N   UNL     1      -7.285   6.355  72.393  1.00  0.00    -0.082 NA 
HETATM   17  C   UNL     1     -10.324   4.659  66.375  1.00  0.00    -0.264 A  
ENDROOT
BRANCH   6  18
HETATM   18  C   UNL     1      -7.306   9.686  68.131  1.00  0.00    -0.081 C  
BRANCH  18  19
HETATM   19  C   UNL     1      -8.187  10.602  69.000  1.00  0.00    -0.151 C  
BRANCH  19  20
HETATM   20  N   UNL     1      -9.404  11.145  68.359  1.00  0.00    -0.179 NA 
HETATM   21  C   UNL     1     -10.628  10.832  69.097  1.00  0.00    -0.222 C  
HETATM   22  C   UNL     1      -9.264  12.603  68.243  1.00  0.00    -0.184 C  
ENDBRANCH  19  20
ENDBRANCH  18  19
ENDBRANCH   6  18
TORSDOF 3
ENDMDL
MODEL      136
REMARK 921   NORMALIZED FREE ENERGY PREDICTED BY IDOCK:   -2.46 KCAL/MOL
REMARK 922        TOTAL FREE ENERGY PREDICTED BY IDOCK:   -3.19 KCAL/MOL
REMARK 923 INTER-LIGAND FREE ENERGY PREDICTED BY IDOCK:   -2.72 KCAL/MOL
REMARK 924 INTRA-LIGAND FREE ENERGY PREDICTED BY IDOCK:   -0.48 KCAL/MOL
REMARK 927      BINDING AFFINITY PREDICTED BY RF-SCORE:    0.00 PKD
ROOT
HETATM    1  C   UNL     1      -5.889  10.050  67.821  1.00  0.00    -0.042 C  
HETATM    2  C   UNL     1      -7.195   9.235  67.989  1.00  0.00    -0.079 C  
HETATM    3  C   UNL     1      -8.382  10.135  68.363  1.00  0.00    -0.113 A  
HETATM    4  C   UNL     1      -6.965   8.006  68.853  1.00  0.00    -0.062 C  
HETATM    5  C   UNL     1      -9.402   9.722  69.218  1.00  0.00    -0.198 A  
HETATM    6  C   UNL     1      -7.044   6.693  68.524  1.00  0.00    -0.083 C  
HETATM    7  C   UNL     1     -10.492  10.565  69.443  1.00  0.00    -0.264 A  
HETATM    8  C   UNL     1      -6.619   5.777  69.659  1.00  0.00    -0.050 C  
HETATM    9  C   UNL     1      -6.531   8.064  70.262  1.00  0.00    -0.037 A  
HETATM   10  C   UNL     1      -6.294   6.764  70.728  1.00  0.00    -0.043 A  
HETATM   11  C   UNL     1      -6.341   9.144  71.114  1.00  0.00    -0.074 A  
HETATM   12  C   UNL     1     -10.553  11.795  68.804  1.00  0.00    -0.234 A  
HETATM   13  C   UNL     1      -9.517  12.134  67.959  1.00  0.00    -0.201 A  
HETATM   14  C   UNL     1      -5.891   8.906  72.415  1.00  0.00    -0.071 A  
HETATM   15  C   UNL     1      -5.836   6.513  72.013  1.00  0.00    -0.037 A  
HETATM   16  N   UNL     1      -8.455  11.333  67.720  1.00  0.00    -0.123 NA 
HETATM   17  C   UNL     1      -5.632   7.600  72.860  1.00  0.00    -0.043 A  
ENDROOT
BRANCH   6  18
HETATM   18  C   UNL     1      -7.465   6.038  67.232  1.00  0.00    -0.081 C  
BRANCH  18  19
HETATM   19  C   UNL     1      -8.888   5.460  67.336  1.00  0.00    -0.105 C  
BRANCH  19  20
HETATM   20  N   UNL     1      -9.892   6.303  68.020  1.00  0.00    -0.121 NA 
HETATM   21  C   UNL     1     -10.990   6.711  67.145  1.00  0.00    -0.408 C  
HETATM   22  C   UNL     1     -10.432   5.556  69.164  1.00  0.00    -0.244 C  
ENDBRANCH  19  20
ENDBRANCH  18  19
ENDBRANCH   6  18
TORSDOF 3
ENDMDL
MODEL      137
REMARK 921   NORMALIZED FREE ENERGY PREDICTED BY IDOCK:   -2.42 KCAL/MOL
REMARK 922        TOTAL FREE ENERGY PREDICTED BY IDOCK:   -3.14 KCAL/MOL
REMARK 923 INTER-LIGAND FREE ENERGY PREDICTED BY IDOCK:   -2.84 KCAL/MOL
REMARK 924 INTRA-LIGAND FREE ENERGY PREDICTED BY IDOCK:   -0.30 KCAL/MOL
REMARK 927      BINDING AFFINITY PREDICTED BY RF-SCORE:    0.00 PKD
ROOT
HETATM    1  C   UNL     1      -7.039   7.005  69.920  1.00  0.00    -0.070 C  
HETATM    2  C   UNL     1      -8.485   6.512  69.662  1.00  0.00    -0.131 C  
HETATM    3  C   UNL     1      -9.014   5.667  70.829  1.00  0.00    -0.143 A  
HETATM    4  C   UNL     1      -8.620   5.921  68.268  1.00  0.00    -0.113 C  
HETATM    5  C   UNL     1      -9.865   4.578  70.648  1.00  0.00    -0.292 A  
HETATM    6  C   UNL     1      -9.354   6.355  67.214  1.00  0.00    -0.125 C  
HETATM    7  C   UNL     1     -10.372   3.910  71.764  1.00  0.00    -0.027 A  
HETATM    8  C   UNL     1      -9.115   5.538  65.956  1.00  0.00    -0.162 C  
HETATM    9  C   UNL     1      -7.873   4.737  67.804  1.00  0.00    -0.086 A  
HETATM   10  C   UNL     1      -8.132   4.529  66.443  1.00  0.00    -0.103 A  
HETATM   11  C   UNL     1      -7.019   3.875  68.480  1.00  0.00    -0.047 A  
HETATM   12  C   UNL     1     -10.036   4.346  73.038  1.00  0.00    -0.195 A  
HETATM   13  C   UNL     1      -9.202   5.440  73.145  1.00  0.00    -0.132 A  
HETATM   14  C   UNL     1      -6.415   2.831  67.773  1.00  0.00    -0.036 A  
HETATM   15  C   UNL     1      -7.532   3.504  65.726  1.00  0.00    -0.077 A  
HETATM   16  N   UNL     1      -8.702   6.106  72.081  1.00  0.00    -0.131 NA 
HETATM   17  C   UNL     1      -6.664   2.652  66.403  1.00  0.00    -0.043 A  
ENDROOT
BRANCH   6  18
HETATM   18  C   UNL     1     -10.326   7.504  67.114  1.00  0.00    -0.384 C  
BRANCH  18  19
HETATM   19  C   UNL     1      -9.690   8.819  67.601  1.00  0.00    -0.169 C  
BRANCH  19  20
HETATM   20  N   UNL     1      -8.480   9.272  66.881  1.00  0.00    -0.126 NA 
HETATM   21  C   UNL     1      -8.786  10.024  65.665  1.00  0.00    -0.155 C  
HETATM   22  C   UNL     1      -7.681  10.109  67.785  1.00  0.00    -0.090 C  
ENDBRANCH  19  20
ENDBRANCH  18  19
ENDBRANCH   6  18
TORSDOF 3
ENDMDL
MODEL      138
REMARK 921   NORMALIZED FREE ENERGY PREDICTED BY IDOCK:   -2.38 KCAL/MOL
REMARK 922        TOTAL FREE ENERGY PREDICTED BY IDOCK:   -3.09 KCAL/MOL
REMARK 923 INTER-LIGAND FREE ENERGY PREDICTED BY IDOCK:   -2.94 KCAL/MOL
REMARK 924 INTRA-LIGAND FREE ENERGY PREDICTED BY IDOCK:   -0.15 KCAL/MOL
REMARK 927      BINDING AFFINITY PREDICTED BY RF-SCORE:    0.00 PKD
ROOT
HETATM    1  C   UNL     1     -10.578   9.242  68.225  1.00  0.00    -0.237 C  
HETATM    2  C   UNL     1      -9.280   8.732  68.899  1.00  0.00    -0.141 C  
HETATM    3  C   UNL     1      -8.027   9.335  68.248  1.00  0.00    -0.102 A  
HETATM    4  C   UNL     1      -9.308   7.223  69.069  1.00  0.00    -0.148 C  
HETATM    5  C   UNL     1      -6.834   8.628  68.108  1.00  0.00    -0.069 A  
HETATM    6  C   UNL     1      -9.326   6.482  70.205  1.00  0.00    -0.163 C  
HETATM    7  C   UNL     1      -5.712   9.271  67.581  1.00  0.00    -0.041 A  
HETATM    8  C   UNL     1      -9.474   4.995  69.934  1.00  0.00    -0.225 C  
HETATM    9  C   UNL     1      -9.385   6.273  67.944  1.00  0.00    -0.114 A  
HETATM   10  C   UNL     1      -9.517   4.970  68.444  1.00  0.00    -0.178 A  
HETATM   11  C   UNL     1      -9.349   6.480  66.571  1.00  0.00    -0.188 A  
HETATM   12  C   UNL     1      -5.794  10.608  67.219  1.00  0.00    -0.046 A  
HETATM   13  C   UNL     1      -7.000  11.252  67.399  1.00  0.00    -0.101 A  
HETATM   14  C   UNL     1      -9.473   5.380  65.719  1.00  0.00    -0.104 A  
HETATM   15  C   UNL     1      -9.652   3.870  67.611  1.00  0.00    -0.205 A  
HETATM   16  N   UNL     1      -8.098  10.653  67.911  1.00  0.00    -0.110 NA 
HETATM   17  C   UNL     1      -9.631   4.083  66.235  1.00  0.00    -0.211 A  
ENDROOT
BRANCH   6  18
HETATM   18  C   UNL     1      -9.241   6.913  71.648  1.00  0.00    -0.146 C  
BRANCH  18  19
HETATM   19  C   UNL     1      -8.093   7.917  71.864  1.00  0.00    -0.115 C  
BRANCH  19  20
HETATM   20  N   UNL     1      -7.133   7.597  72.942  1.00  0.00    -0.072 NA 
HETATM   21  C   UNL     1      -7.730   7.650  74.276  1.00  0.00    -0.160 C  
HETATM   22  C   UNL     1      -6.590   6.252  72.704  1.00  0.00    -0.064 C  
ENDBRANCH  19  20
ENDBRANCH  18  19
ENDBRANCH   6  18
TORSDOF 3
ENDMDL
MODEL      139
REMARK 921   NORMALIZED FREE ENERGY PREDICTED BY IDOCK:   -2.26 KCAL/MOL
REMARK 922        TOTAL FREE ENERGY PREDICTED BY IDOCK:   -2.96 KCAL/MOL
REMARK 923 INTER-LIGAND FREE ENERGY PREDICTED BY IDOCK:   -2.61 KCAL/MOL
REMARK 924 INTRA-LIGAND FREE ENERGY PREDICTED BY IDOCK:   -0.35 KCAL/MOL
REMARK 927      BINDING AFFINITY PREDICTED BY RF-SCORE:    0.00 PKD
ROOT
HETATM    1  C   UNL     1     -10.203   9.183  66.697  1.00  0.00    -0.328 C  
HETATM    2  C   UNL     1      -9.072   8.372  67.375  1.00  0.00    -0.152 C  
HETATM    3  C   UNL     1      -7.963   9.286  67.914  1.00  0.00    -0.100 A  
HETATM    4  C   UNL     1      -8.639   7.204  66.505  1.00  0.00    -0.130 C  
HETATM    5  C   UNL     1      -6.617   8.923  67.910  1.00  0.00    -0.061 A  
HETATM    6  C   UNL     1      -8.743   5.871  66.735  1.00  0.00    -0.117 C  
HETATM    7  C   UNL     1      -5.675   9.772  68.494  1.00  0.00    -0.039 A  
HETATM    8  C   UNL     1      -8.293   5.035  65.550  1.00  0.00    -0.126 C  
HETATM    9  C   UNL     1      -8.054   7.357  65.160  1.00  0.00    -0.129 A  
HETATM   10  C   UNL     1      -7.882   6.092  64.583  1.00  0.00    -0.112 A  
HETATM   11  C   UNL     1      -7.684   8.491  64.450  1.00  0.00    -0.128 A  
HETATM   12  C   UNL     1      -6.090  10.956  69.084  1.00  0.00    -0.044 A  
HETATM   13  C   UNL     1      -7.439  11.247  69.068  1.00  0.00    -0.116 A  
HETATM   14  C   UNL     1      -7.172   8.342  63.159  1.00  0.00    -0.093 A  
HETATM   15  C   UNL     1      -7.385   5.929  63.298  1.00  0.00    -0.062 A  
HETATM   16  N   UNL     1      -8.370  10.439  68.513  1.00  0.00    -0.118 NA 
HETATM   17  C   UNL     1      -7.030   7.069  62.583  1.00  0.00    -0.057 A  
ENDROOT
BRANCH   6  18
HETATM   18  C   UNL     1      -9.240   5.130  67.951  1.00  0.00    -0.128 C  
BRANCH  18  19
HETATM   19  C   UNL     1      -8.388   5.457  69.191  1.00  0.00    -0.097 C  
BRANCH  19  20
HETATM   20  N   UNL     1      -9.122   5.667  70.458  1.00  0.00    -0.143 NA 
HETATM   21  C   UNL     1      -9.288   7.079  70.797  1.00  0.00    -0.161 C  
HETATM   22  C   UNL     1     -10.443   5.033  70.346  1.00  0.00    -0.167 C  
ENDBRANCH  19  20
ENDBRANCH  18  19
ENDBRANCH   6  18
TORSDOF 3
ENDMDL
MODEL      140
REMARK 921   NORMALIZED FREE ENERGY PREDICTED BY IDOCK:   -2.06 KCAL/MOL
REMARK 922        TOTAL FREE ENERGY PREDICTED BY IDOCK:   -2.72 KCAL/MOL
REMARK 923 INTER-LIGAND FREE ENERGY PREDICTED BY IDOCK:   -2.49 KCAL/MOL
REMARK 924 INTRA-LIGAND FREE ENERGY PREDICTED BY IDOCK:   -0.24 KCAL/MOL
REMARK 927      BINDING AFFINITY PREDICTED BY RF-SCORE:    0.00 PKD
ROOT
HETATM    1  C   UNL     1      -5.547   4.396  67.542  1.00  0.00    -0.017 C  
HETATM    2  C   UNL     1      -6.820   4.604  68.399  1.00  0.00    -0.051 C  
HETATM    3  C   UNL     1      -7.018   3.462  69.406  1.00  0.00    -0.041 A  
HETATM    4  C   UNL     1      -8.011   4.967  67.528  1.00  0.00    -0.095 C  
HETATM    5  C   UNL     1      -8.277   2.984  69.768  1.00  0.00    -0.067 A  
HETATM    6  C   UNL     1      -8.732   6.116  67.487  1.00  0.00    -0.104 C  
HETATM    7  C   UNL     1      -8.380   2.001  70.754  1.00  0.00    -0.074 A  
HETATM    8  C   UNL     1      -9.775   6.115  66.384  1.00  0.00    -0.152 C  
HETATM    9  C   UNL     1      -8.563   4.085  66.483  1.00  0.00    -0.110 A  
HETATM   10  C   UNL     1      -9.572   4.764  65.788  1.00  0.00    -0.187 A  
HETATM   11  C   UNL     1      -8.241   2.782  66.127  1.00  0.00    -0.086 A  
HETATM   12  C   UNL     1      -7.233   1.524  71.371  1.00  0.00    -0.032 A  
HETATM   13  C   UNL     1      -6.021   2.051  70.976  1.00  0.00    -0.017 A  
HETATM   14  C   UNL     1      -8.919   2.187  65.059  1.00  0.00    -0.123 A  
HETATM   15  C   UNL     1     -10.245   4.191  64.719  1.00  0.00    -0.210 A  
HETATM   16  N   UNL     1      -5.896   3.006  70.029  1.00  0.00    -0.018 NA 
HETATM   17  C   UNL     1      -9.909   2.890  64.354  1.00  0.00    -0.105 A  
ENDROOT
BRANCH   6  18
HETATM   18  C   UNL     1      -8.635   7.355  68.341  1.00  0.00    -0.124 C  
BRANCH  18  19
HETATM   19  C   UNL     1     -10.010   8.028  68.509  1.00  0.00    -0.192 C  
BRANCH  19  20
HETATM   20  N   UNL     1     -10.192   8.861  69.717  1.00  0.00    -0.195 NA 
HETATM   21  C   UNL     1     -10.863  10.130  69.441  1.00  0.00    -0.241 C  
HETATM   22  C   UNL     1     -10.974   8.099  70.700  1.00  0.00    -0.244 C  
ENDBRANCH  19  20
ENDBRANCH  18  19
ENDBRANCH   6  18
TORSDOF 3
ENDMDL
MODEL      141
REMARK 921   NORMALIZED FREE ENERGY PREDICTED BY IDOCK:   -1.90 KCAL/MOL
REMARK 922        TOTAL FREE ENERGY PREDICTED BY IDOCK:   -2.54 KCAL/MOL
REMARK 923 INTER-LIGAND FREE ENERGY PREDICTED BY IDOCK:   -2.26 KCAL/MOL
REMARK 924 INTRA-LIGAND FREE ENERGY PREDICTED BY IDOCK:   -0.27 KCAL/MOL
REMARK 927      BINDING AFFINITY PREDICTED BY RF-SCORE:    0.00 PKD
ROOT
HETATM    1  C   UNL     1      -7.809   9.895  70.082  1.00  0.00    -0.186 C  
HETATM    2  C   UNL     1      -8.380   8.477  69.829  1.00  0.00    -0.124 C  
HETATM    3  C   UNL     1      -9.849   8.372  70.264  1.00  0.00    -0.181 A  
HETATM    4  C   UNL     1      -7.432   7.406  70.342  1.00  0.00    -0.085 C  
HETATM    5  C   UNL     1     -10.391   7.212  70.816  1.00  0.00    -0.219 A  
HETATM    6  C   UNL     1      -6.744   6.462  69.654  1.00  0.00    -0.053 C  
HETATM    7  C   UNL     1     -11.756   7.164  71.108  1.00  0.00    -0.350 A  
HETATM    8  C   UNL     1      -5.809   5.656  70.538  1.00  0.00    -0.024 C  
HETATM    9  C   UNL     1      -7.046   7.263  71.758  1.00  0.00    -0.067 A  
HETATM   10  C   UNL     1      -6.071   6.264  71.874  1.00  0.00    -0.041 A  
HETATM   11  C   UNL     1      -7.483   7.931  72.895  1.00  0.00    -0.139 A  
HETATM   12  C   UNL     1     -12.556   8.264  70.834  1.00  0.00     0.055 A  
HETATM   13  C   UNL     1     -11.958   9.373  70.273  1.00  0.00     0.057 A  
HETATM   14  C   UNL     1      -6.915   7.606  74.129  1.00  0.00    -0.123 A  
HETATM   15  C   UNL     1      -5.490   5.938  73.091  1.00  0.00    -0.031 A  
HETATM   16  N   UNL     1     -10.642   9.442  69.976  1.00  0.00    -0.220 NA 
HETATM   17  C   UNL     1      -5.919   6.621  74.226  1.00  0.00    -0.064 A  
ENDROOT
BRANCH   6  18
HETATM   18  C   UNL     1      -6.765   6.122  68.185  1.00  0.00    -0.064 C  
BRANCH  18  19
HETATM   19  C   UNL     1      -7.652   4.894  67.907  1.00  0.00    -0.083 C  
BRANCH  19  20
HETATM   20  N   UNL     1      -8.344   4.863  66.601  1.00  0.00    -0.107 NA 
HETATM   21  C   UNL     1      -8.116   6.068  65.804  1.00  0.00    -0.123 C  
HETATM   22  C   UNL     1      -7.883   3.687  65.851  1.00  0.00    -0.089 C  
ENDBRANCH  19  20
ENDBRANCH  18  19
ENDBRANCH   6  18
TORSDOF 3
ENDMDL
MODEL      142
REMARK 921   NORMALIZED FREE ENERGY PREDICTED BY IDOCK:   -1.45 KCAL/MOL
REMARK 922        TOTAL FREE ENERGY PREDICTED BY IDOCK:   -2.00 KCAL/MOL
REMARK 923 INTER-LIGAND FREE ENERGY PREDICTED BY IDOCK:   -2.88 KCAL/MOL
REMARK 924 INTRA-LIGAND FREE ENERGY PREDICTED BY IDOCK:    0.87 KCAL/MOL
REMARK 927      BINDING AFFINITY PREDICTED BY RF-SCORE:    0.00 PKD
ROOT
HETATM    1  C   UNL     1      -9.073   8.288  71.113  1.00  0.00    -0.198 C  
HETATM    2  C   UNL     1      -8.836   9.042  69.780  1.00  0.00    -0.155 C  
HETATM    3  C   UNL     1     -10.075   9.840  69.351  1.00  0.00    -0.209 A  
HETATM    4  C   UNL     1      -8.212   8.128  68.739  1.00  0.00    -0.125 C  
HETATM    5  C   UNL     1     -10.443  10.003  68.017  1.00  0.00    -0.260 A  
HETATM    6  C   UNL     1      -6.990   8.194  68.153  1.00  0.00    -0.077 C  
HETATM    7  C   UNL     1     -11.536  10.813  67.700  1.00  0.00    -0.234 A  
HETATM    8  C   UNL     1      -6.710   7.009  67.246  1.00  0.00    -0.067 C  
HETATM    9  C   UNL     1      -8.865   6.912  68.218  1.00  0.00    -0.122 A  
HETATM   10  C   UNL     1      -7.978   6.236  67.370  1.00  0.00    -0.109 A  
HETATM   11  C   UNL     1     -10.135   6.394  68.438  1.00  0.00    -0.173 A  
HETATM   12  C   UNL     1     -12.231  11.456  68.714  1.00  0.00    -0.101 A  
HETATM   13  C   UNL     1     -11.803  11.264  70.011  1.00  0.00    -0.367 A  
HETATM   14  C   UNL     1     -10.487   5.188  67.825  1.00  0.00    -0.112 A  
HETATM   15  C   UNL     1      -8.309   5.033  66.764  1.00  0.00    -0.107 A  
HETATM   16  N   UNL     1     -10.746  10.490  70.343  1.00  0.00    -0.131 NA 
HETATM   17  C   UNL     1      -9.577   4.507  67.000  1.00  0.00    -0.210 A  
ENDROOT
BRANCH   6  18
HETATM   18  C   UNL     1      -5.905   9.233  68.284  1.00  0.00    -0.038 C  
BRANCH  18  19
HETATM   19  C   UNL     1      -6.244  10.500  67.479  1.00  0.00    -0.056 C  
BRANCH  19  20
HETATM   20  N   UNL     1      -6.488  11.731  68.261  1.00  0.00    -0.050 NA 
HETATM   21  C   UNL     1      -7.673  11.643  69.114  1.00  0.00     0.074 C  
HETATM   22  C   UNL     1      -5.308  12.002  69.092  1.00  0.00    -0.055 C  
ENDBRANCH  19  20
ENDBRANCH  18  19
ENDBRANCH   6  18
TORSDOF 3
ENDMDL
MODEL      143
REMARK 921   NORMALIZED FREE ENERGY PREDICTED BY IDOCK:   -0.70 KCAL/MOL
REMARK 922        TOTAL FREE ENERGY PREDICTED BY IDOCK:   -1.12 KCAL/MOL
REMARK 923 INTER-LIGAND FREE ENERGY PREDICTED BY IDOCK:   -0.83 KCAL/MOL
REMARK 924 INTRA-LIGAND FREE ENERGY PREDICTED BY IDOCK:   -0.29 KCAL/MOL
REMARK 927      BINDING AFFINITY PREDICTED BY RF-SCORE:    0.00 PKD
ROOT
HETATM    1  C   UNL     1     -10.278  18.046  68.958  1.00  0.00    -0.262 C  
HETATM    2  C   UNL     1     -10.777  16.581  69.034  1.00  0.00    -0.332 C  
HETATM    3  C   UNL     1     -11.085  16.161  70.479  1.00  0.00    -0.322 A  
HETATM    4  C   UNL     1      -9.885  15.656  68.224  1.00  0.00    -0.209 C  
HETATM    5  C   UNL     1     -10.859  14.871  70.954  1.00  0.00     0.015 A  
HETATM    6  C   UNL     1     -10.174  14.932  67.114  1.00  0.00    -0.245 C  
HETATM    7  C   UNL     1     -11.243  14.541  72.255  1.00  0.00     1.021 A  
HETATM    8  C   UNL     1      -8.957  14.226  66.542  1.00  0.00    -0.161 C  
HETATM    9  C   UNL     1      -8.454  15.440  68.510  1.00  0.00    -0.163 A  
HETATM   10  C   UNL     1      -7.898  14.632  67.509  1.00  0.00    -0.212 A  
HETATM   11  C   UNL     1      -7.653  15.893  69.550  1.00  0.00    -0.143 A  
HETATM   12  C   UNL     1     -11.856  15.496  73.053  1.00  0.00    -0.555 A  
HETATM   13  C   UNL     1     -12.064  16.749  72.515  1.00  0.00     0.150 A  
HETATM   14  C   UNL     1      -6.298  15.551  69.557  1.00  0.00    -0.155 A  
HETATM   15  C   UNL     1      -6.553  14.293  67.497  1.00  0.00    -0.098 A  
HETATM   16  N   UNL     1     -11.706  17.091  71.257  1.00  0.00     0.782 NA 
HETATM   17  C   UNL     1      -5.749  14.763  68.532  1.00  0.00    -0.099 A  
ENDROOT
BRANCH   6  18
HETATM   18  C   UNL     1     -11.481  14.749  66.386  1.00  0.00    -0.319 C  
BRANCH  18  19
HETATM   19  C   UNL     1     -11.417  13.559  65.411  1.00  0.00    -0.302 C  
BRANCH  19  20
HETATM   20  N   UNL     1     -11.966  13.787  64.057  1.00  0.00    -0.435 NA 
HETATM   21  C   UNL     1     -13.273  13.162  63.856  1.00  0.00     1.052 C  
HETATM   22  C   UNL     1     -12.078  15.234  63.832  1.00  0.00     0.159 C  
ENDBRANCH  19  20
ENDBRANCH  18  19
ENDBRANCH   6  18
TORSDOF 3
ENDMDL
MODEL      144
REMARK 921   NORMALIZED FREE ENERGY PREDICTED BY IDOCK:   -0.02 KCAL/MOL
REMARK 922        TOTAL FREE ENERGY PREDICTED BY IDOCK:   -0.33 KCAL/MOL
REMARK 923 INTER-LIGAND FREE ENERGY PREDICTED BY IDOCK:   -0.39 KCAL/MOL
REMARK 924 INTRA-LIGAND FREE ENERGY PREDICTED BY IDOCK:    0.06 KCAL/MOL
REMARK 927      BINDING AFFINITY PREDICTED BY RF-SCORE:    0.00 PKD
ROOT
HETATM    1  C   UNL     1      -8.816   9.005  68.443  1.00  0.00    -0.134 C  
HETATM    2  C   UNL     1      -9.551   7.648  68.574  1.00  0.00    -0.149 C  
HETATM    3  C   UNL     1     -10.606   7.679  69.690  1.00  0.00    -0.243 A  
HETATM    4  C   UNL     1      -8.565   6.492  68.592  1.00  0.00    -0.124 C  
HETATM    5  C   UNL     1     -10.891   6.574  70.490  1.00  0.00    -0.323 A  
HETATM    6  C   UNL     1      -8.395   5.489  67.696  1.00  0.00    -0.100 C  
HETATM    7  C   UNL     1     -11.922   6.653  71.428  1.00  0.00    -0.405 A  
HETATM    8  C   UNL     1      -7.211   4.598  68.029  1.00  0.00    -0.065 C  
HETATM    9  C   UNL     1      -7.533   6.311  69.630  1.00  0.00    -0.085 A  
HETATM   10  C   UNL     1      -6.717   5.225  69.288  1.00  0.00    -0.052 A  
HETATM   11  C   UNL     1      -7.284   7.015  70.802  1.00  0.00    -0.071 A  
HETATM   12  C   UNL     1     -12.660   7.823  71.540  1.00  0.00    -0.356 A  
HETATM   13  C   UNL     1     -12.335   8.873  70.706  1.00  0.00     0.005 A  
HETATM   14  C   UNL     1      -6.202   6.635  71.600  1.00  0.00    -0.042 A  
HETATM   15  C   UNL     1      -5.633   4.843  70.065  1.00  0.00    -0.015 A  
HETATM   16  N   UNL     1     -11.345   8.819  69.788  1.00  0.00     0.007 NA 
HETATM   17  C   UNL     1      -5.376   5.561  71.230  1.00  0.00    -0.009 A  
ENDROOT
BRANCH   6  18
HETATM   18  C   UNL     1      -9.178   5.155  66.451  1.00  0.00    -0.141 C  
BRANCH  18  19
HETATM   19  C   UNL     1      -9.621   6.430  65.710  1.00  0.00     0.294 C  
BRANCH  19  20
HETATM   20  N   UNL     1      -9.135   6.588  64.322  1.00  0.00     0.915 NA 
HETATM   21  C   UNL     1      -7.694   6.822  64.242  1.00  0.00    -0.109 C  
HETATM   22  C   UNL     1      -9.475   5.375  63.565  1.00  0.00     0.814 C  
ENDBRANCH  19  20
ENDBRANCH  18  19
ENDBRANCH   6  18
TORSDOF 3
ENDMDL
MODEL      145
REMARK 921   NORMALIZED FREE ENERGY PREDICTED BY IDOCK:    0.25 KCAL/MOL
REMARK 922        TOTAL FREE ENERGY PREDICTED BY IDOCK:   -0.00 KCAL/MOL
REMARK 923 INTER-LIGAND FREE ENERGY PREDICTED BY IDOCK:    0.26 KCAL/MOL
REMARK 924 INTRA-LIGAND FREE ENERGY PREDICTED BY IDOCK:   -0.26 KCAL/MOL
REMARK 927      BINDING AFFINITY PREDICTED BY RF-SCORE:    0.00 PKD
ROOT
HETATM    1  C   UNL     1     -13.266  14.485  66.211  1.00  0.00     1.357 C  
HETATM    2  C   UNL     1     -11.750  14.167  66.219  1.00  0.00    -0.402 C  
HETATM    3  C   UNL     1     -11.386  13.114  65.163  1.00  0.00    -0.296 A  
HETATM    4  C   UNL     1     -11.249  13.925  67.633  1.00  0.00    -0.316 C  
HETATM    5  C   UNL     1     -10.391  12.158  65.362  1.00  0.00    -0.301 A  
HETATM    6  C   UNL     1     -10.364  14.642  68.369  1.00  0.00    -0.237 C  
HETATM    7  C   UNL     1     -10.059  11.287  64.322  1.00  0.00    -0.366 A  
HETATM    8  C   UNL     1     -10.227  14.123  69.790  1.00  0.00     0.467 C  
HETATM    9  C   UNL     1     -11.731  12.832  68.497  1.00  0.00    -0.371 A  
HETATM   10  C   UNL     1     -11.162  12.963  69.771  1.00  0.00    -0.001 A  
HETATM   11  C   UNL     1     -12.600  11.780  68.238  1.00  0.00     1.362 A  
HETATM   12  C   UNL     1     -10.711  11.392  63.102  1.00  0.00    -0.231 A  
HETATM   13  C   UNL     1     -11.674  12.371  62.968  1.00  0.00    -0.017 A  
HETATM   14  C   UNL     1     -12.908  10.889  69.270  1.00  0.00     0.751 A  
HETATM   15  C   UNL     1     -11.467  12.093  70.808  1.00  0.00     0.914 A  
HETATM   16  N   UNL     1     -12.009  13.228  63.957  1.00  0.00    -0.440 NA 
HETATM   17  C   UNL     1     -12.351  11.049  70.549  1.00  0.00    -0.462 A  
ENDROOT
BRANCH   6  18
HETATM   18  C   UNL     1      -9.538  15.847  67.994  1.00  0.00    -0.211 C  
BRANCH  18  19
HETATM   19  C   UNL     1      -8.304  15.985  68.905  1.00  0.00    -0.231 C  
BRANCH  19  20
HETATM   20  N   UNL     1      -7.612  17.291  68.881  1.00  0.00    -0.256 NA 
HETATM   21  C   UNL     1      -6.560  17.364  67.868  1.00  0.00    -0.165 C  
HETATM   22  C   UNL     1      -8.604  18.345  68.631  1.00  0.00    -0.292 C  
ENDBRANCH  19  20
ENDBRANCH  18  19
ENDBRANCH   6  18
TORSDOF 3
ENDMDL
MODEL      146
REMARK 921   NORMALIZED FREE ENERGY PREDICTED BY IDOCK:    1.47 KCAL/MOL
REMARK 922        TOTAL FREE ENERGY PREDICTED BY IDOCK:    1.42 KCAL/MOL
REMARK 923 INTER-LIGAND FREE ENERGY PREDICTED BY IDOCK:   -0.57 KCAL/MOL
REMARK 924 INTRA-LIGAND FREE ENERGY PREDICTED BY IDOCK:    2.00 KCAL/MOL
REMARK 927      BINDING AFFINITY PREDICTED BY RF-SCORE:    0.00 PKD
ROOT
HETATM    1  C   UNL     1      -9.623  16.198  70.141  1.00  0.00     0.647 C  
HETATM    2  C   UNL     1      -9.110  15.367  68.939  1.00  0.00    -0.218 C  
HETATM    3  C   UNL     1      -7.666  14.890  69.154  1.00  0.00    -0.164 A  
HETATM    4  C   UNL     1      -9.416  16.063  67.623  1.00  0.00    -0.216 C  
HETATM    5  C   UNL     1      -6.745  14.781  68.114  1.00  0.00    -0.134 A  
HETATM    6  C   UNL     1     -10.232  15.675  66.611  1.00  0.00    -0.283 C  
HETATM    7  C   UNL     1      -5.476  14.259  68.373  1.00  0.00    -0.108 A  
HETATM    8  C   UNL     1     -10.349  16.723  65.518  1.00  0.00    -0.236 C  
HETATM    9  C   UNL     1      -8.879  17.385  67.251  1.00  0.00    -0.238 A  
HETATM   10  C   UNL     1      -9.449  17.791  66.037  1.00  0.00    -0.084 A  
HETATM   11  C   UNL     1      -7.964  18.211  67.890  1.00  0.00    -0.249 A  
HETATM   12  C   UNL     1      -5.153  13.843  69.657  1.00  0.00    -0.084 A  
HETATM   13  C   UNL     1      -6.118  13.964  70.635  1.00  0.00    -0.131 A  
HETATM   14  C   UNL     1      -7.652  19.446  67.315  1.00  0.00    -0.268 A  
HETATM   15  C   UNL     1      -9.157  19.019  65.460  1.00  0.00     0.940 A  
HETATM   16  N   UNL     1      -7.354  14.460  70.408  1.00  0.00     0.476 NA 
HETATM   17  C   UNL     1      -8.251  19.851  66.112  1.00  0.00    -0.346 A  
ENDROOT
BRANCH   6  18
HETATM   18  C   UNL     1     -11.022  14.403  66.433  1.00  0.00    -0.319 C  
BRANCH  18  19
HETATM   19  C   UNL     1     -12.207  14.340  67.414  1.00  0.00    -0.232 C  
BRANCH  19  20
HETATM   20  N   UNL     1     -12.019  13.507  68.622  1.00  0.00    -0.358 NA 
HETATM   21  C   UNL     1     -12.653  12.194  68.517  1.00  0.00     1.174 C  
HETATM   22  C   UNL     1     -10.578  13.336  68.854  1.00  0.00    -0.140 C  
ENDBRANCH  19  20
ENDBRANCH  18  19
ENDBRANCH   6  18
TORSDOF 3
ENDMDL
MODEL      147
REMARK 921   NORMALIZED FREE ENERGY PREDICTED BY IDOCK:    1.67 KCAL/MOL
REMARK 922        TOTAL FREE ENERGY PREDICTED BY IDOCK:    1.66 KCAL/MOL
REMARK 923 INTER-LIGAND FREE ENERGY PREDICTED BY IDOCK:    1.95 KCAL/MOL
REMARK 924 INTRA-LIGAND FREE ENERGY PREDICTED BY IDOCK:   -0.29 KCAL/MOL
REMARK 927      BINDING AFFINITY PREDICTED BY RF-SCORE:    0.00 PKD
ROOT
HETATM    1  C   UNL     1      -9.416  12.511  68.016  1.00  0.00    -0.209 C  
HETATM    2  C   UNL     1      -8.924  11.131  68.518  1.00  0.00    -0.168 C  
HETATM    3  C   UNL     1      -7.644  11.257  69.357  1.00  0.00     0.050 A  
HETATM    4  C   UNL     1      -8.911  10.112  67.392  1.00  0.00    -0.142 C  
HETATM    5  C   UNL     1      -6.634  10.297  69.341  1.00  0.00    -0.058 A  
HETATM    6  C   UNL     1      -9.648   8.983  67.241  1.00  0.00    -0.206 C  
HETATM    7  C   UNL     1      -5.539  10.438  70.195  1.00  0.00    -0.056 A  
HETATM    8  C   UNL     1      -9.411   8.302  65.904  1.00  0.00    -0.125 C  
HETATM    9  C   UNL     1      -8.080  10.239  66.180  1.00  0.00    -0.133 A  
HETATM   10  C   UNL     1      -8.393   9.203  65.291  1.00  0.00    -0.152 A  
HETATM   11  C   UNL     1      -7.111  11.172  65.833  1.00  0.00     0.123 A  
HETATM   12  C   UNL     1      -5.476  11.522  71.058  1.00  0.00    -0.063 A  
HETATM   13  C   UNL     1      -6.518  12.426  71.034  1.00  0.00     1.712 A  
HETATM   14  C   UNL     1      -6.489  11.067  64.586  1.00  0.00     0.652 A  
HETATM   15  C   UNL     1      -7.792   9.092  64.047  1.00  0.00    -0.133 A  
HETATM   16  N   UNL     1      -7.591  12.308  70.221  1.00  0.00     1.896 NA 
HETATM   17  C   UNL     1      -6.833  10.038  63.695  1.00  0.00    -0.130 A  
ENDROOT
BRANCH   6  18
HETATM   18  C   UNL     1     -10.644   8.340  68.173  1.00  0.00    -0.169 C  
BRANCH  18  19
HETATM   19  C   UNL     1     -10.421   6.819  68.267  1.00  0.00    -0.206 C  
BRANCH  19  20
HETATM   20  N   UNL     1      -9.946   6.303  69.569  1.00  0.00    -0.159 NA 
HETATM   21  C   UNL     1      -9.948   4.843  69.641  1.00  0.00    -0.231 C  
HETATM   22  C   UNL     1      -8.583   6.801  69.803  1.00  0.00    -0.141 C  
ENDBRANCH  19  20
ENDBRANCH  18  19
ENDBRANCH   6  18
TORSDOF 3
ENDMDL
MODEL      148
REMARK 921   NORMALIZED FREE ENERGY PREDICTED BY IDOCK:    5.59 KCAL/MOL
REMARK 922        TOTAL FREE ENERGY PREDICTED BY IDOCK:    6.27 KCAL/MOL
REMARK 923 INTER-LIGAND FREE ENERGY PREDICTED BY IDOCK:    6.58 KCAL/MOL
REMARK 924 INTRA-LIGAND FREE ENERGY PREDICTED BY IDOCK:   -0.31 KCAL/MOL
REMARK 927      BINDING AFFINITY PREDICTED BY RF-SCORE:    0.00 PKD
ROOT
HETATM    1  C   UNL     1     -10.185  17.895  69.852  1.00  0.00     0.706 C  
HETATM    2  C   UNL     1      -9.246  16.803  69.284  1.00  0.00    -0.047 C  
HETATM    3  C   UNL     1      -7.788  17.283  69.225  1.00  0.00     0.075 A  
HETATM    4  C   UNL     1      -9.820  16.193  68.017  1.00  0.00    -0.231 C  
HETATM    5  C   UNL     1      -6.910  16.905  68.211  1.00  0.00    -0.164 A  
HETATM    6  C   UNL     1     -10.243  14.925  67.784  1.00  0.00    -0.236 C  
HETATM    7  C   UNL     1      -5.576  17.314  68.271  1.00  0.00    -0.136 A  
HETATM    8  C   UNL     1     -10.863  14.756  66.409  1.00  0.00    -0.322 C  
HETATM    9  C   UNL     1     -10.078  16.957  66.782  1.00  0.00    -0.294 A  
HETATM   10  C   UNL     1     -10.720  16.131  65.850  1.00  0.00    -0.261 A  
HETATM   11  C   UNL     1      -9.794  18.276  66.450  1.00  0.00    -0.358 A  
HETATM   12  C   UNL     1      -5.138  18.075  69.345  1.00  0.00    -0.183 A  
HETATM   13  C   UNL     1      -6.056  18.400  70.322  1.00  0.00     0.007 A  
HETATM   14  C   UNL     1     -10.183  18.754  65.196  1.00  0.00     1.313 A  
HETATM   15  C   UNL     1     -11.121  16.595  64.606  1.00  0.00    -0.042 A  
HETATM   16  N   UNL     1      -7.350  18.013  70.289  1.00  0.00     1.547 NA 
HETATM   17  C   UNL     1     -10.849  17.922  64.282  1.00  0.00     3.913 A  
ENDROOT
BRANCH   6  18
HETATM   18  C   UNL     1     -10.200  13.708  68.673  1.00  0.00    -0.199 C  
BRANCH  18  19
HETATM   19  C   UNL     1     -11.457  13.617  69.559  1.00  0.00    -0.263 C  
BRANCH  19  20
HETATM   20  N   UNL     1     -12.080  12.282  69.681  1.00  0.00    -0.253 NA 
HETATM   21  C   UNL     1     -13.506  12.343  70.001  1.00  0.00     2.289 C  
HETATM   22  C   UNL     1     -11.895  11.558  68.416  1.00  0.00    -0.283 C  
ENDBRANCH  19  20
ENDBRANCH  18  19
ENDBRANCH   6  18
TORSDOF 3
ENDMDL
MODEL      149
REMARK 921   NORMALIZED FREE ENERGY PREDICTED BY IDOCK:    6.95 KCAL/MOL
REMARK 922        TOTAL FREE ENERGY PREDICTED BY IDOCK:    7.87 KCAL/MOL
REMARK 923 INTER-LIGAND FREE ENERGY PREDICTED BY IDOCK:    7.13 KCAL/MOL
REMARK 924 INTRA-LIGAND FREE ENERGY PREDICTED BY IDOCK:    0.74 KCAL/MOL
REMARK 927      BINDING AFFINITY PREDICTED BY RF-SCORE:    0.00 PKD
ROOT
HETATM    1  C   UNL     1      -9.562  12.865  68.550  1.00  0.00    -0.113 C  
HETATM    2  C   UNL     1      -8.233  12.269  68.021  1.00  0.00    -0.163 C  
HETATM    3  C   UNL     1      -8.478  11.083  67.077  1.00  0.00    -0.141 A  
HETATM    4  C   UNL     1      -7.242  12.055  69.152  1.00  0.00     0.002 C  
HETATM    5  C   UNL     1      -7.632   9.977  67.019  1.00  0.00    -0.092 A  
HETATM    6  C   UNL     1      -6.043  12.650  69.374  1.00  0.00    -0.107 C  
HETATM    7  C   UNL     1      -7.874   8.977  66.075  1.00  0.00    -0.102 A  
HETATM    8  C   UNL     1      -5.417  12.234  70.693  1.00  0.00    -0.164 C  
HETATM    9  C   UNL     1      -7.479  11.146  70.289  1.00  0.00     1.164 A  
HETATM   10  C   UNL     1      -6.432  11.272  71.211  1.00  0.00     1.646 A  
HETATM   11  C   UNL     1      -8.516  10.258  70.545  1.00  0.00     0.879 A  
HETATM   12  C   UNL     1      -8.942   9.102  65.199  1.00  0.00    -0.238 A  
HETATM   13  C   UNL     1      -9.730  10.230  65.301  1.00  0.00    -0.291 A  
HETATM   14  C   UNL     1      -8.501   9.528  71.737  1.00  0.00     1.076 A  
HETATM   15  C   UNL     1      -6.408  10.563  72.402  1.00  0.00     2.023 A  
HETATM   16  N   UNL     1      -9.514  11.214  66.202  1.00  0.00    -0.197 NA 
HETATM   17  C   UNL     1      -7.457   9.685  72.664  1.00  0.00     1.998 A  
ENDROOT
BRANCH   6  18
HETATM   18  C   UNL     1      -5.281  13.644  68.534  1.00  0.00    -0.089 C  
BRANCH  18  19
HETATM   19  C   UNL     1      -5.146  14.998  69.255  1.00  0.00    -0.091 C  
BRANCH  19  20
HETATM   20  N   UNL     1      -6.397  15.756  69.472  1.00  0.00    -0.161 NA 
HETATM   21  C   UNL     1      -7.368  15.036  70.294  1.00  0.00     0.319 C  
HETATM   22  C   UNL     1      -6.066  17.035  70.115  1.00  0.00    -0.027 C  
ENDBRANCH  19  20
ENDBRANCH  18  19
ENDBRANCH   6  18
TORSDOF 3
ENDMDL
MODEL      150
REMARK 921   NORMALIZED FREE ENERGY PREDICTED BY IDOCK:    9.16 KCAL/MOL
REMARK 922        TOTAL FREE ENERGY PREDICTED BY IDOCK:   10.47 KCAL/MOL
REMARK 923 INTER-LIGAND FREE ENERGY PREDICTED BY IDOCK:    4.93 KCAL/MOL
REMARK 924 INTRA-LIGAND FREE ENERGY PREDICTED BY IDOCK:    5.54 KCAL/MOL
REMARK 927      BINDING AFFINITY PREDICTED BY RF-SCORE:    0.00 PKD
ROOT
HETATM    1  C   UNL     1      -9.518  15.065  66.966  1.00  0.00    -0.240 C  
HETATM    2  C   UNL     1      -9.632  16.147  68.068  1.00  0.00    -0.220 C  
HETATM    3  C   UNL     1      -9.077  17.499  67.595  1.00  0.00    -0.243 A  
HETATM    4  C   UNL     1      -9.126  15.625  69.402  1.00  0.00    -0.278 C  
HETATM    5  C   UNL     1      -8.410  18.380  68.444  1.00  0.00    -0.328 A  
HETATM    6  C   UNL     1      -9.803  15.412  70.558  1.00  0.00     0.497 C  
HETATM    7  C   UNL     1      -8.009  19.627  67.962  1.00  0.00    -0.339 A  
HETATM    8  C   UNL     1      -8.944  14.765  71.630  1.00  0.00     4.764 C  
HETATM    9  C   UNL     1      -7.738  15.185  69.637  1.00  0.00    -0.148 A  
HETATM   10  C   UNL     1      -7.634  14.648  70.927  1.00  0.00     1.772 A  
HETATM   11  C   UNL     1      -6.617  15.226  68.818  1.00  0.00    -0.102 A  
HETATM   12  C   UNL     1      -8.291  19.980  66.650  1.00  0.00    -0.363 A  
HETATM   13  C   UNL     1      -8.969  19.067  65.869  1.00  0.00     0.145 A  
HETATM   14  C   UNL     1      -5.413  14.704  69.296  1.00  0.00    -0.088 A  
HETATM   15  C   UNL     1      -6.448  14.117  71.411  1.00  0.00     0.624 A  
HETATM   16  N   UNL     1      -9.372  17.856  66.314  1.00  0.00    -0.446 NA 
HETATM   17  C   UNL     1      -5.330  14.145  70.582  1.00  0.00    -0.128 A  
ENDROOT
BRANCH   6  18
HETATM   18  C   UNL     1     -11.240  15.701  70.910  1.00  0.00    -0.407 C  
BRANCH  18  19
HETATM   19  C   UNL     1     -12.206  14.850  70.065  1.00  0.00    -0.333 C  
BRANCH  19  20
HETATM   20  N   UNL     1     -12.575  15.393  68.740  1.00  0.00     0.312 NA 
HETATM   21  C   UNL     1     -11.645  16.414  68.260  1.00  0.00    -0.030 C  
HETATM   22  C   UNL     1     -12.625  14.286  67.775  1.00  0.00     0.512 C  
ENDBRANCH  19  20
ENDBRANCH  18  19
ENDBRANCH   6  18
TORSDOF 3
ENDMDL
MODEL      151
REMARK 921   NORMALIZED FREE ENERGY PREDICTED BY IDOCK:   11.59 KCAL/MOL
REMARK 922        TOTAL FREE ENERGY PREDICTED BY IDOCK:   13.32 KCAL/MOL
REMARK 923 INTER-LIGAND FREE ENERGY PREDICTED BY IDOCK:   10.77 KCAL/MOL
REMARK 924 INTRA-LIGAND FREE ENERGY PREDICTED BY IDOCK:    2.55 KCAL/MOL
REMARK 927      BINDING AFFINITY PREDICTED BY RF-SCORE:    0.00 PKD
ROOT
HETATM    1  C   UNL     1      -8.819   9.122  68.189  1.00  0.00    -0.129 C  
HETATM    2  C   UNL     1      -9.665   8.762  69.436  1.00  0.00    -0.172 C  
HETATM    3  C   UNL     1     -10.195  10.018  70.143  1.00  0.00    -0.242 A  
HETATM    4  C   UNL     1      -8.956   7.734  70.300  1.00  0.00    -0.148 C  
HETATM    5  C   UNL     1     -10.335  10.102  71.527  1.00  0.00     1.517 A  
HETATM    6  C   UNL     1      -9.311   6.457  70.589  1.00  0.00    -0.169 C  
HETATM    7  C   UNL     1     -10.903  11.246  72.092  1.00  0.00     7.521 A  
HETATM    8  C   UNL     1      -8.258   5.724  71.401  1.00  0.00    -0.126 C  
HETATM    9  C   UNL     1      -7.653   7.968  70.950  1.00  0.00    -0.078 A  
HETATM   10  C   UNL     1      -7.223   6.785  71.567  1.00  0.00    -0.081 A  
HETATM   11  C   UNL     1      -6.863   9.107  71.025  1.00  0.00    -0.095 A  
HETATM   12  C   UNL     1     -11.334  12.276  71.269  1.00  0.00     2.662 A  
HETATM   13  C   UNL     1     -11.181  12.121  69.907  1.00  0.00     0.097 A  
HETATM   14  C   UNL     1      -5.639   9.037  71.695  1.00  0.00    -0.058 A  
HETATM   15  C   UNL     1      -6.006   6.697  72.226  1.00  0.00    -0.038 A  
HETATM   16  N   UNL     1     -10.639  11.022  69.337  1.00  0.00    -0.207 NA 
HETATM   17  C   UNL     1      -5.209   7.837  72.285  1.00  0.00    -0.036 A  
ENDROOT
BRANCH   6  18
HETATM   18  C   UNL     1     -10.553   5.686  70.218  1.00  0.00    -0.370 C  
BRANCH  18  19
HETATM   19  C   UNL     1     -11.367   6.422  69.138  1.00  0.00    -0.296 C  
BRANCH  19  20
HETATM   20  N   UNL     1     -10.973   6.174  67.734  1.00  0.00    -0.331 NA 
HETATM   21  C   UNL     1      -9.604   6.595  67.440  1.00  0.00    -0.126 C  
HETATM   22  C   UNL     1     -11.113   4.739  67.453  1.00  0.00     1.678 C  
ENDBRANCH  19  20
ENDBRANCH  18  19
ENDBRANCH   6  18
TORSDOF 3
ENDMDL
MODEL      152
REMARK 921   NORMALIZED FREE ENERGY PREDICTED BY IDOCK:   12.56 KCAL/MOL
REMARK 922        TOTAL FREE ENERGY PREDICTED BY IDOCK:   14.47 KCAL/MOL
REMARK 923 INTER-LIGAND FREE ENERGY PREDICTED BY IDOCK:    6.11 KCAL/MOL
REMARK 924 INTRA-LIGAND FREE ENERGY PREDICTED BY IDOCK:    8.36 KCAL/MOL
REMARK 927      BINDING AFFINITY PREDICTED BY RF-SCORE:    0.00 PKD
ROOT
HETATM    1  C   UNL     1     -10.182  12.109  66.492  1.00  0.00    -0.230 C  
HETATM    2  C   UNL     1     -11.412  13.051  66.476  1.00  0.00    -0.385 C  
HETATM    3  C   UNL     1     -11.857  13.379  65.044  1.00  0.00    -0.352 A  
HETATM    4  C   UNL     1     -11.214  14.225  67.421  1.00  0.00    -0.330 C  
HETATM    5  C   UNL     1     -12.377  14.620  64.680  1.00  0.00    -0.390 A  
HETATM    6  C   UNL     1     -11.892  14.548  68.550  1.00  0.00    -0.355 C  
HETATM    7  C   UNL     1     -12.839  14.816  63.377  1.00  0.00     1.658 A  
HETATM    8  C   UNL     1     -11.296  15.745  69.270  1.00  0.00    -0.350 C  
HETATM    9  C   UNL     1     -10.140  15.225  67.271  1.00  0.00    -0.236 A  
HETATM   10  C   UNL     1     -10.162  16.096  68.369  1.00  0.00    -0.240 A  
HETATM   11  C   UNL     1      -9.191  15.402  66.273  1.00  0.00    -0.354 A  
HETATM   12  C   UNL     1     -12.789  13.770  62.467  1.00  0.00     2.707 A  
HETATM   13  C   UNL     1     -12.277  12.564  62.897  1.00  0.00     0.291 A  
HETATM   14  C   UNL     1      -8.259  16.435  66.403  1.00  0.00    -0.366 A  
HETATM   15  C   UNL     1      -9.237  17.119  68.517  1.00  0.00    -0.264 A  
HETATM   16  N   UNL     1     -11.829  12.348  64.153  1.00  0.00    -0.381 NA 
HETATM   17  C   UNL     1      -8.276  17.284  67.522  1.00  0.00    -0.204 A  
ENDROOT
BRANCH   6  18
HETATM   18  C   UNL     1     -13.101  13.899  69.177  1.00  0.00     1.710 C  
BRANCH  18  19
HETATM   19  C   UNL     1     -12.693  12.753  70.121  1.00  0.00     0.230 C  
BRANCH  19  20
HETATM   20  N   UNL     1     -11.418  12.070  69.814  1.00  0.00    -0.250 NA 
HETATM   21  C   UNL     1     -11.004  12.227  68.420  1.00  0.00    -0.236 C  
HETATM   22  C   UNL     1     -10.373  12.607  70.696  1.00  0.00     4.435 C  
ENDBRANCH  19  20
ENDBRANCH  18  19
ENDBRANCH   6  18
TORSDOF 3
ENDMDL
MODEL      153
REMARK 921   NORMALIZED FREE ENERGY PREDICTED BY IDOCK:   12.91 KCAL/MOL
REMARK 922        TOTAL FREE ENERGY PREDICTED BY IDOCK:   14.88 KCAL/MOL
REMARK 923 INTER-LIGAND FREE ENERGY PREDICTED BY IDOCK:   14.05 KCAL/MOL
REMARK 924 INTRA-LIGAND FREE ENERGY PREDICTED BY IDOCK:    0.82 KCAL/MOL
REMARK 927      BINDING AFFINITY PREDICTED BY RF-SCORE:    0.00 PKD
ROOT
HETATM    1  C   UNL     1      -9.190  14.906  71.501  1.00  0.00     3.898 C  
HETATM    2  C   UNL     1      -8.993  14.009  70.254  1.00  0.00     2.591 C  
HETATM    3  C   UNL     1      -7.679  13.219  70.325  1.00  0.00     2.602 A  
HETATM    4  C   UNL     1      -9.261  14.785  68.975  1.00  0.00    -0.145 C  
HETATM    5  C   UNL     1      -6.910  12.931  69.199  1.00  0.00    -0.054 A  
HETATM    6  C   UNL     1     -10.237  14.611  68.049  1.00  0.00    -0.231 C  
HETATM    7  C   UNL     1      -5.771  12.134  69.331  1.00  0.00    -0.083 A  
HETATM    8  C   UNL     1     -10.221  15.683  66.973  1.00  0.00    -0.274 C  
HETATM    9  C   UNL     1      -8.481  15.963  68.552  1.00  0.00    -0.184 A  
HETATM   10  C   UNL     1      -9.059  16.513  67.400  1.00  0.00    -0.210 A  
HETATM   11  C   UNL     1      -7.347  16.550  69.098  1.00  0.00    -0.220 A  
HETATM   12  C   UNL     1      -5.428  11.627  70.576  1.00  0.00    -0.144 A  
HETATM   13  C   UNL     1      -6.242  11.938  71.646  1.00  0.00     2.192 A  
HETATM   14  C   UNL     1      -6.824  17.697  68.496  1.00  0.00    -0.223 A  
HETATM   15  C   UNL     1      -8.558  17.657  66.798  1.00  0.00    -0.276 A  
HETATM   16  N   UNL     1      -7.352  12.702  71.542  1.00  0.00     5.961 NA 
HETATM   17  C   UNL     1      -7.430  18.253  67.357  1.00  0.00    -0.219 A  
ENDROOT
BRANCH   6  18
HETATM   18  C   UNL     1     -11.305  13.551  67.949  1.00  0.00    -0.320 C  
BRANCH  18  19
HETATM   19  C   UNL     1     -11.607  12.932  69.326  1.00  0.00    -0.310 C  
BRANCH  19  20
HETATM   20  N   UNL     1     -10.776  11.775  69.724  1.00  0.00     0.206 NA 
HETATM   21  C   UNL     1     -11.531  10.746  70.437  1.00  0.00    -0.307 C  
HETATM   22  C   UNL     1     -10.175  11.191  68.518  1.00  0.00    -0.198 C  
ENDBRANCH  19  20
ENDBRANCH  18  19
ENDBRANCH   6  18
TORSDOF 3
ENDMDL
MODEL      154
REMARK 921   NORMALIZED FREE ENERGY PREDICTED BY IDOCK:   17.64 KCAL/MOL
REMARK 922        TOTAL FREE ENERGY PREDICTED BY IDOCK:   20.44 KCAL/MOL
REMARK 923 INTER-LIGAND FREE ENERGY PREDICTED BY IDOCK:   20.66 KCAL/MOL
REMARK 924 INTRA-LIGAND FREE ENERGY PREDICTED BY IDOCK:   -0.22 KCAL/MOL
REMARK 927      BINDING AFFINITY PREDICTED BY RF-SCORE:    0.00 PKD
ROOT
HETATM    1  C   UNL     1     -10.923  19.266  68.751  1.00  0.00     0.937 C  
HETATM    2  C   UNL     1     -10.567  17.760  68.813  1.00  0.00    -0.135 C  
HETATM    3  C   UNL     1     -10.704  17.203  70.237  1.00  0.00     0.565 A  
HETATM    4  C   UNL     1      -9.264  17.476  68.085  1.00  0.00    -0.277 C  
HETATM    5  C   UNL     1      -9.858  16.219  70.747  1.00  0.00     1.801 A  
HETATM    6  C   UNL     1      -9.043  16.739  66.968  1.00  0.00    -0.239 C  
HETATM    7  C   UNL     1     -10.097  15.702  72.022  1.00  0.00     2.888 A  
HETATM    8  C   UNL     1      -7.600  16.805  66.498  1.00  0.00    -0.334 C  
HETATM    9  C   UNL     1      -7.963  18.048  68.479  1.00  0.00    -0.310 A  
HETATM   10  C   UNL     1      -6.993  17.688  67.534  1.00  0.00    -0.183 A  
HETATM   11  C   UNL     1      -7.604  18.832  69.568  1.00  0.00     0.187 A  
HETATM   12  C   UNL     1     -11.180  16.161  72.758  1.00  0.00     0.678 A  
HETATM   13  C   UNL     1     -11.986  17.124  72.187  1.00  0.00     1.368 A  
HETATM   14  C   UNL     1      -6.280  19.265  69.680  1.00  0.00    -0.304 A  
HETATM   15  C   UNL     1      -5.678  18.119  67.627  1.00  0.00    -0.150 A  
HETATM   16  N   UNL     1     -11.778  17.636  70.954  1.00  0.00     2.960 NA 
HETATM   17  C   UNL     1      -5.324  18.918  68.711  1.00  0.00    -0.197 A  
ENDROOT
BRANCH   6  18
HETATM   18  C   UNL     1      -9.996  15.906  66.149  1.00  0.00    -0.337 C  
BRANCH  18  19
HETATM   19  C   UNL     1      -9.602  15.907  64.660  1.00  0.00     2.099 C  
BRANCH  19  20
HETATM   20  N   UNL     1     -10.529  16.592  63.734  1.00  0.00     2.568 NA 
HETATM   21  C   UNL     1     -11.324  15.666  62.930  1.00  0.00     5.327 C  
HETATM   22  C   UNL     1     -11.426  17.452  64.518  1.00  0.00     1.746 C  
ENDBRANCH  19  20
ENDBRANCH  18  19
ENDBRANCH   6  18
TORSDOF 3
ENDMDL
MODEL      155
REMARK 921   NORMALIZED FREE ENERGY PREDICTED BY IDOCK:   19.79 KCAL/MOL
REMARK 922        TOTAL FREE ENERGY PREDICTED BY IDOCK:   22.96 KCAL/MOL
REMARK 923 INTER-LIGAND FREE ENERGY PREDICTED BY IDOCK:   14.75 KCAL/MOL
REMARK 924 INTRA-LIGAND FREE ENERGY PREDICTED BY IDOCK:    8.21 KCAL/MOL
REMARK 927      BINDING AFFINITY PREDICTED BY RF-SCORE:    0.00 PKD
ROOT
HETATM    1  C   UNL     1      -9.862  12.072  66.805  1.00  0.00    -0.218 C  
HETATM    2  C   UNL     1     -10.289  13.497  67.235  1.00  0.00    -0.241 C  
HETATM    3  C   UNL     1     -10.422  14.439  66.030  1.00  0.00    -0.301 A  
HETATM    4  C   UNL     1      -9.452  13.990  68.404  1.00  0.00    -0.213 C  
HETATM    5  C   UNL     1     -10.093  15.792  66.089  1.00  0.00    -0.337 A  
HETATM    6  C   UNL     1      -9.829  14.279  69.674  1.00  0.00     0.469 C  
HETATM    7  C   UNL     1     -10.320  16.603  64.975  1.00  0.00     0.164 A  
HETATM    8  C   UNL     1      -8.653  14.630  70.569  1.00  0.00     1.865 C  
HETATM    9  C   UNL     1      -7.991  14.183  68.342  1.00  0.00    -0.142 A  
HETATM   10  C   UNL     1      -7.514  14.523  69.614  1.00  0.00     0.035 A  
HETATM   11  C   UNL     1      -7.102  14.079  67.280  1.00  0.00     0.062 A  
HETATM   12  C   UNL     1     -10.882  16.056  63.831  1.00  0.00     1.715 A  
HETATM   13  C   UNL     1     -11.198  14.714  63.845  1.00  0.00     0.641 A  
HETATM   14  C   UNL     1      -5.742  14.293  67.516  1.00  0.00     0.144 A  
HETATM   15  C   UNL     1      -6.165  14.728  69.866  1.00  0.00    -0.150 A  
HETATM   16  N   UNL     1     -10.993  13.910  64.912  1.00  0.00    -0.364 NA 
HETATM   17  C   UNL     1      -5.274  14.607  68.802  1.00  0.00    -0.089 A  
ENDROOT
BRANCH   6  18
HETATM   18  C   UNL     1     -11.199  14.285  70.304  1.00  0.00    -0.050 C  
BRANCH  18  19
HETATM   19  C   UNL     1     -11.582  12.887  70.824  1.00  0.00     0.710 C  
BRANCH  19  20
HETATM   20  N   UNL     1     -10.732  11.762  70.375  1.00  0.00     1.290 NA 
HETATM   21  C   UNL     1     -10.066  12.022  69.099  1.00  0.00     0.209 C  
HETATM   22  C   UNL     1      -9.722  11.495  71.408  1.00  0.00     9.550 C  
ENDBRANCH  19  20
ENDBRANCH  18  19
ENDBRANCH   6  18
TORSDOF 3
ENDMDL
MODEL      156
REMARK 921   NORMALIZED FREE ENERGY PREDICTED BY IDOCK:   34.35 KCAL/MOL
REMARK 922        TOTAL FREE ENERGY PREDICTED BY IDOCK:   40.08 KCAL/MOL
REMARK 923 INTER-LIGAND FREE ENERGY PREDICTED BY IDOCK:   40.31 KCAL/MOL
REMARK 924 INTRA-LIGAND FREE ENERGY PREDICTED BY IDOCK:   -0.24 KCAL/MOL
REMARK 927      BINDING AFFINITY PREDICTED BY RF-SCORE:    0.00 PKD
ROOT
HETATM    1  C   UNL     1      -8.455  12.847  66.568  1.00  0.00     0.181 C  
HETATM    2  C   UNL     1      -9.644  12.170  67.294  1.00  0.00    -0.185 C  
HETATM    3  C   UNL     1     -10.923  13.014  67.199  1.00  0.00    -0.269 A  
HETATM    4  C   UNL     1      -9.238  11.690  68.678  1.00  0.00    -0.112 C  
HETATM    5  C   UNL     1     -11.860  13.084  68.229  1.00  0.00    -0.381 A  
HETATM    6  C   UNL     1      -9.162  10.426  69.165  1.00  0.00    -0.202 C  
HETATM    7  C   UNL     1     -13.039  13.806  68.036  1.00  0.00     2.684 A  
HETATM    8  C   UNL     1      -8.595  10.374  70.573  1.00  0.00     1.201 C  
HETATM    9  C   UNL     1      -8.776  12.587  69.753  1.00  0.00     2.433 A  
HETATM   10  C   UNL     1      -8.365  11.820  70.852  1.00  0.00     7.423 A  
HETATM   11  C   UNL     1      -8.699  13.972  69.816  1.00  0.00     1.239 A  
HETATM   12  C   UNL     1     -13.271  14.431  66.819  1.00  0.00     2.162 A  
HETATM   13  C   UNL     1     -12.310  14.308  65.838  1.00  0.00    -0.403 A  
HETATM   14  C   UNL     1      -8.185  14.568  70.971  1.00  0.00     3.223 A  
HETATM   15  C   UNL     1      -7.844  12.397  72.000  1.00  0.00    13.919 A  
HETATM   16  N   UNL     1     -11.163  13.611  65.998  1.00  0.00    -0.294 NA 
HETATM   17  C   UNL     1      -7.753  13.786  72.054  1.00  0.00     7.413 A  
ENDROOT
BRANCH   6  18
HETATM   18  C   UNL     1      -9.534   9.113  68.524  1.00  0.00    -0.151 C  
BRANCH  18  19
HETATM   19  C   UNL     1      -8.565   8.755  67.382  1.00  0.00    -0.126 C  
BRANCH  19  20
HETATM   20  N   UNL     1      -8.869   7.523  66.622  1.00  0.00    -0.139 NA 
HETATM   21  C   UNL     1      -9.656   6.558  67.388  1.00  0.00    -0.125 C  
HETATM   22  C   UNL     1      -9.600   7.891  65.403  1.00  0.00     0.822 C  
ENDBRANCH  19  20
ENDBRANCH  18  19
ENDBRANCH   6  18
TORSDOF 3
ENDMDL
MODEL      157
REMARK 921   NORMALIZED FREE ENERGY PREDICTED BY IDOCK:   41.25 KCAL/MOL
REMARK 922        TOTAL FREE ENERGY PREDICTED BY IDOCK:   48.19 KCAL/MOL
REMARK 923 INTER-LIGAND FREE ENERGY PREDICTED BY IDOCK:   43.58 KCAL/MOL
REMARK 924 INTRA-LIGAND FREE ENERGY PREDICTED BY IDOCK:    4.60 KCAL/MOL
REMARK 927      BINDING AFFINITY PREDICTED BY RF-SCORE:    0.00 PKD
ROOT
HETATM    1  C   UNL     1      -8.630  13.046  67.009  1.00  0.00    -0.165 C  
HETATM    2  C   UNL     1      -9.767  13.213  68.047  1.00  0.00    -0.224 C  
HETATM    3  C   UNL     1     -11.117  13.491  67.371  1.00  0.00    -0.281 A  
HETATM    4  C   UNL     1      -9.351  14.154  69.166  1.00  0.00     0.186 C  
HETATM    5  C   UNL     1     -12.081  14.330  67.927  1.00  0.00    -0.296 A  
HETATM    6  C   UNL     1      -9.168  13.898  70.485  1.00  0.00     3.740 C  
HETATM    7  C   UNL     1     -13.319  14.467  67.296  1.00  0.00     3.794 A  
HETATM    8  C   UNL     1      -8.633  15.098  71.247  1.00  0.00     3.518 C  
HETATM    9  C   UNL     1      -9.002  15.572  68.958  1.00  0.00    -0.237 A  
HETATM   10  C   UNL     1      -8.549  16.119  70.165  1.00  0.00     1.279 A  
HETATM   11  C   UNL     1      -9.058  16.367  67.821  1.00  0.00    -0.199 A  
HETATM   12  C   UNL     1     -13.579  13.757  66.133  1.00  0.00     2.360 A  
HETATM   13  C   UNL     1     -12.586  12.932  65.645  1.00  0.00    -0.203 A  
HETATM   14  C   UNL     1      -8.632  17.695  67.905  1.00  0.00    -0.238 A  
HETATM   15  C   UNL     1      -8.112  17.433  70.261  1.00  0.00     2.932 A  
HETATM   16  N   UNL     1     -11.383  12.779  66.241  1.00  0.00    -0.304 NA 
HETATM   17  C   UNL     1      -8.154  18.223  69.115  1.00  0.00     0.037 A  
ENDROOT
BRANCH   6  18
HETATM   18  C   UNL     1      -9.398  12.631  71.271  1.00  0.00    13.429 C  
BRANCH  18  19
HETATM   19  C   UNL     1      -8.165  11.709  71.218  1.00  0.00     9.364 C  
BRANCH  19  20
HETATM   20  N   UNL     1      -6.867  12.362  70.943  1.00  0.00     1.599 NA 
HETATM   21  C   UNL     1      -6.914  13.272  69.800  1.00  0.00     0.335 C  
HETATM   22  C   UNL     1      -6.451  13.104  72.141  1.00  0.00     3.156 C  
ENDBRANCH  19  20
ENDBRANCH  18  19
ENDBRANCH   6  18
TORSDOF 3
ENDMDL
MODEL      158
REMARK 921   NORMALIZED FREE ENERGY PREDICTED BY IDOCK:   56.83 KCAL/MOL
REMARK 922        TOTAL FREE ENERGY PREDICTED BY IDOCK:   66.50 KCAL/MOL
REMARK 923 INTER-LIGAND FREE ENERGY PREDICTED BY IDOCK:   49.00 KCAL/MOL
REMARK 924 INTRA-LIGAND FREE ENERGY PREDICTED BY IDOCK:   17.50 KCAL/MOL
REMARK 927      BINDING AFFINITY PREDICTED BY RF-SCORE:    0.00 PKD
ROOT
HETATM    1  C   UNL     1     -10.797  17.034  70.363  1.00  0.00     0.471 C  
HETATM    2  C   UNL     1     -10.620  15.523  70.076  1.00  0.00    -0.337 C  
HETATM    3  C   UNL     1     -10.168  14.757  71.328  1.00  0.00     1.687 A  
HETATM    4  C   UNL     1      -9.819  15.297  68.805  1.00  0.00    -0.217 C  
HETATM    5  C   UNL     1      -9.298  13.669  71.274  1.00  0.00     8.639 A  
HETATM    6  C   UNL     1     -10.202  14.734  67.632  1.00  0.00    -0.232 C  
HETATM    7  C   UNL     1      -8.999  12.970  72.445  1.00  0.00    19.607 A  
HETATM    8  C   UNL     1      -9.123  14.809  66.565  1.00  0.00    -0.291 C  
HETATM    9  C   UNL     1      -8.425  15.743  68.625  1.00  0.00    -0.193 A  
HETATM   10  C   UNL     1      -8.024  15.492  67.306  1.00  0.00    -0.233 A  
HETATM   11  C   UNL     1      -7.533  16.331  69.513  1.00  0.00    -0.039 A  
HETATM   12  C   UNL     1      -9.582  13.357  73.643  1.00  0.00    14.399 A  
HETATM   13  C   UNL     1     -10.446  14.432  73.623  1.00  0.00     5.155 A  
HETATM   14  C   UNL     1      -6.260  16.682  69.058  1.00  0.00    -0.172 A  
HETATM   15  C   UNL     1      -6.768  15.845  66.837  1.00  0.00     0.048 A  
HETATM   16  N   UNL     1     -10.755  15.120  72.502  1.00  0.00     0.857 NA 
HETATM   17  C   UNL     1      -5.881  16.448  67.725  1.00  0.00    -0.151 A  
ENDROOT
BRANCH   6  18
HETATM   18  C   UNL     1     -11.506  14.082  67.247  1.00  0.00    -0.372 C  
BRANCH  18  19
HETATM   19  C   UNL     1     -12.500  14.083  68.422  1.00  0.00     0.266 C  
BRANCH  19  20
HETATM   20  N   UNL     1     -11.933  13.828  69.764  1.00  0.00    -0.325 NA 
HETATM   21  C   UNL     1     -12.584  12.718  70.459  1.00  0.00    -0.114 C  
HETATM   22  C   UNL     1     -10.499  13.541  69.622  1.00  0.00     0.545 C  
ENDBRANCH  19  20
ENDBRANCH  18  19
ENDBRANCH   6  18
TORSDOF 3
ENDMDL
