MODEL        1
REMARK 921   NORMALIZED FREE ENERGY PREDICTED BY IDOCK:   -6.84 KCAL/MOL
REMARK 922        TOTAL FREE ENERGY PREDICTED BY IDOCK:   -9.71 KCAL/MOL
REMARK 923 INTER-LIGAND FREE ENERGY PREDICTED BY IDOCK:   -8.84 KCAL/MOL
REMARK 924 INTRA-LIGAND FREE ENERGY PREDICTED BY IDOCK:   -0.86 KCAL/MOL
REMARK 927      BINDING AFFINITY PREDICTED BY RF-SCORE:    0.00 PKD
ROOT
HETATM    1  C   UNL     1     -10.506  16.291  65.460  1.00  0.00    -0.383 C  
HETATM    2  C   UNL     1     -10.745  15.690  66.870  1.00  0.00    -0.307 C  
ENDROOT
BRANCH   2   3
HETATM    3  C   UNL     1     -11.860  14.586  66.664  1.00  0.00    -0.366 C  
BRANCH   3   4
HETATM    4  N   UNL     1     -11.553  13.185  67.064  1.00  0.00    -0.339 NA 
HETATM    5  C   UNL     1     -10.906  12.356  66.090  1.00  0.00    -0.273 A  
HETATM    6  C   UNL     1     -10.599  12.805  64.784  1.00  0.00    -0.348 A  
HETATM    7  C   UNL     1     -10.045  11.974  63.799  1.00  0.00    -0.419 A  
HETATM    8  C   UNL     1      -9.730  10.661  64.097  1.00  0.00    -0.378 A  
HETATM    9  C   UNL     1      -9.970  10.193  65.380  1.00  0.00    -0.377 A  
HETATM   10  C   UNL     1     -10.553  11.018  66.364  1.00  0.00    -0.251 A  
HETATM   11  S   UNL     1     -10.792  10.226  67.928  1.00  0.00    -0.290 SA 
HETATM   12  C   UNL     1     -11.606  11.482  68.875  1.00  0.00    -0.320 A  
HETATM   13  C   UNL     1     -11.883  12.785  68.403  1.00  0.00    -0.310 A  
HETATM   14  C   UNL     1     -12.523  13.642  69.332  1.00  0.00    -0.036 A  
HETATM   15  C   UNL     1     -12.857  13.227  70.634  1.00  0.00    -0.057 A  
HETATM   16  C   UNL     1     -12.577  11.940  71.064  1.00  0.00    -0.381 A  
HETATM   17  C   UNL     1     -11.962  11.070  70.178  1.00  0.00    -0.443 A  
BRANCH  15  18
HETATM   18  S   UNL     1     -13.552  14.395  71.789  1.00  0.00    -0.430 S  
HETATM   19  O   UNL     1     -14.328  13.648  72.755  1.00  0.00    -0.622 OA 
HETATM   20  O   UNL     1     -14.158  15.458  71.008  1.00  0.00    -0.467 OA 
BRANCH  18  21
HETATM   21  N   UNL     1     -12.183  15.036  72.568  1.00  0.00    -0.352 N  
HETATM   22  C   UNL     1     -12.227  15.105  74.038  1.00  0.00    -0.570 C  
HETATM   23  C   UNL     1     -11.555  16.214  71.945  1.00  0.00    -0.402 C  
ENDBRANCH  18  21
ENDBRANCH  15  18
ENDBRANCH   3   4
ENDBRANCH   2   3
BRANCH   2  24
HETATM   24  N   UNL     1      -9.421  15.365  67.492  1.00  0.00    -0.204 NA 
HETATM   25  C   UNL     1      -8.314  15.855  66.643  1.00  0.00    -0.293 C  
HETATM   26  C   UNL     1      -9.245  15.994  68.808  1.00  0.00    -0.224 C  
ENDBRANCH   2  24
TORSDOF 5
ENDMDL
MODEL        2
REMARK 921   NORMALIZED FREE ENERGY PREDICTED BY IDOCK:   -6.68 KCAL/MOL
REMARK 922        TOTAL FREE ENERGY PREDICTED BY IDOCK:   -9.50 KCAL/MOL
REMARK 923 INTER-LIGAND FREE ENERGY PREDICTED BY IDOCK:   -8.77 KCAL/MOL
REMARK 924 INTRA-LIGAND FREE ENERGY PREDICTED BY IDOCK:   -0.73 KCAL/MOL
REMARK 927      BINDING AFFINITY PREDICTED BY RF-SCORE:    0.00 PKD
ROOT
HETATM    1  C   UNL     1      -9.935   9.845  65.771  1.00  0.00    -0.347 C  
HETATM    2  C   UNL     1     -10.711  11.114  66.212  1.00  0.00    -0.240 C  
ENDROOT
BRANCH   2   3
HETATM    3  C   UNL     1     -10.024  11.568  67.564  1.00  0.00    -0.190 C  
BRANCH   3   4
HETATM    4  N   UNL     1     -10.866  12.222  68.602  1.00  0.00    -0.229 NA 
HETATM    5  C   UNL     1     -11.414  11.378  69.623  1.00  0.00    -0.309 A  
HETATM    6  C   UNL     1     -11.219   9.977  69.646  1.00  0.00    -0.285 A  
HETATM    7  C   UNL     1     -11.823   9.135  70.591  1.00  0.00    -0.222 A  
HETATM    8  C   UNL     1     -12.617   9.670  71.588  1.00  0.00    -0.493 A  
HETATM    9  C   UNL     1     -12.797  11.044  71.632  1.00  0.00    -0.540 A  
HETATM   10  C   UNL     1     -12.214  11.890  70.666  1.00  0.00    -0.331 A  
HETATM   11  S   UNL     1     -12.580  13.607  70.889  1.00  0.00    -0.321 SA 
HETATM   12  C   UNL     1     -11.791  14.353  69.489  1.00  0.00    -0.329 A  
HETATM   13  C   UNL     1     -11.027  13.647  68.532  1.00  0.00    -0.267 A  
HETATM   14  C   UNL     1     -10.465  14.441  67.502  1.00  0.00    -0.252 A  
HETATM   15  C   UNL     1     -10.650  15.834  67.438  1.00  0.00    -0.313 A  
HETATM   16  C   UNL     1     -11.409  16.495  68.389  1.00  0.00    -0.209 A  
HETATM   17  C   UNL     1     -11.985  15.749  69.405  1.00  0.00    -0.321 A  
BRANCH  15  18
HETATM   18  S   UNL     1      -9.812  16.785  66.182  1.00  0.00    -0.293 S  
HETATM   19  O   UNL     1     -10.646  16.781  65.000  1.00  0.00    -0.695 OA 
HETATM   20  O   UNL     1      -8.442  16.308  66.129  1.00  0.00    -0.325 OA 
BRANCH  18  21
HETATM   21  N   UNL     1      -9.792  18.356  66.831  1.00  0.00    -0.321 N  
HETATM   22  C   UNL     1     -10.458  19.408  66.044  1.00  0.00    -0.505 C  
HETATM   23  C   UNL     1      -8.535  18.801  67.457  1.00  0.00    -0.270 C  
ENDBRANCH  18  21
ENDBRANCH  15  18
ENDBRANCH   3   4
ENDBRANCH   2   3
BRANCH   2  24
HETATM   24  N   UNL     1     -10.835  12.041  65.041  1.00  0.00    -0.294 NA 
HETATM   25  C   UNL     1     -10.439  11.357  63.792  1.00  0.00    -0.399 C  
HETATM   26  C   UNL     1     -12.210  12.514  64.838  1.00  0.00    -0.470 C  
ENDBRANCH   2  24
TORSDOF 5
ENDMDL
MODEL        3
REMARK 921   NORMALIZED FREE ENERGY PREDICTED BY IDOCK:   -6.57 KCAL/MOL
REMARK 922        TOTAL FREE ENERGY PREDICTED BY IDOCK:   -9.35 KCAL/MOL
REMARK 923 INTER-LIGAND FREE ENERGY PREDICTED BY IDOCK:   -8.71 KCAL/MOL
REMARK 924 INTRA-LIGAND FREE ENERGY PREDICTED BY IDOCK:   -0.64 KCAL/MOL
REMARK 927      BINDING AFFINITY PREDICTED BY RF-SCORE:    0.00 PKD
ROOT
HETATM    1  C   UNL     1     -11.869  16.204  72.181  1.00  0.00    -0.626 C  
HETATM    2  C   UNL     1     -12.183  15.809  70.714  1.00  0.00    -0.399 C  
ENDROOT
BRANCH   2   3
HETATM    3  C   UNL     1     -10.772  15.696  70.006  1.00  0.00    -0.335 C  
BRANCH   3   4
HETATM    4  N   UNL     1     -10.709  15.831  68.525  1.00  0.00    -0.261 NA 
HETATM    5  C   UNL     1     -10.525  17.151  67.998  1.00  0.00    -0.369 A  
HETATM    6  C   UNL     1     -10.446  18.300  68.819  1.00  0.00    -0.115 A  
HETATM    7  C   UNL     1     -10.353  19.603  68.307  1.00  0.00    -0.539 A  
HETATM    8  C   UNL     1     -10.286  19.807  66.941  1.00  0.00    -0.601 A  
HETATM    9  C   UNL     1     -10.312  18.704  66.100  1.00  0.00    -0.481 A  
HETATM   10  C   UNL     1     -10.435  17.396  66.612  1.00  0.00    -0.253 A  
HETATM   11  S   UNL     1     -10.466  16.133  65.373  1.00  0.00    -0.313 SA 
HETATM   12  C   UNL     1     -10.717  14.663  66.330  1.00  0.00    -0.316 A  
HETATM   13  C   UNL     1     -10.790  14.631  67.741  1.00  0.00    -0.267 A  
HETATM   14  C   UNL     1     -10.973  13.345  68.309  1.00  0.00    -0.282 A  
HETATM   15  C   UNL     1     -11.070  12.182  67.523  1.00  0.00    -0.275 A  
HETATM   16  C   UNL     1     -11.000  12.249  66.142  1.00  0.00    -0.328 A  
HETATM   17  C   UNL     1     -10.833  13.491  65.550  1.00  0.00    -0.293 A  
BRANCH  15  18
HETATM   18  S   UNL     1     -11.177  10.585  68.311  1.00  0.00    -0.264 S  
HETATM   19  O   UNL     1     -11.001   9.578  67.286  1.00  0.00    -0.203 OA 
HETATM   20  O   UNL     1     -12.366  10.599  69.143  1.00  0.00    -0.341 OA 
BRANCH  18  21
HETATM   21  N   UNL     1      -9.822  10.562  69.336  1.00  0.00    -0.211 N  
HETATM   22  C   UNL     1      -8.515  10.834  68.716  1.00  0.00    -0.148 C  
HETATM   23  C   UNL     1      -9.777   9.499  70.355  1.00  0.00    -0.271 C  
ENDBRANCH  18  21
ENDBRANCH  15  18
ENDBRANCH   3   4
ENDBRANCH   2   3
BRANCH   2  24
HETATM   24  N   UNL     1     -13.158  14.670  70.712  1.00  0.00    -0.355 NA 
HETATM   25  C   UNL     1     -12.563  13.477  71.351  1.00  0.00    -0.308 C  
HETATM   26  C   UNL     1     -14.384  14.975  71.461  1.00  0.00    -0.555 C  
ENDBRANCH   2  24
TORSDOF 5
ENDMDL
MODEL        4
REMARK 921   NORMALIZED FREE ENERGY PREDICTED BY IDOCK:   -6.45 KCAL/MOL
REMARK 922        TOTAL FREE ENERGY PREDICTED BY IDOCK:   -9.19 KCAL/MOL
REMARK 923 INTER-LIGAND FREE ENERGY PREDICTED BY IDOCK:   -8.94 KCAL/MOL
REMARK 924 INTRA-LIGAND FREE ENERGY PREDICTED BY IDOCK:   -0.25 KCAL/MOL
REMARK 927      BINDING AFFINITY PREDICTED BY RF-SCORE:    0.00 PKD
ROOT
HETATM    1  C   UNL     1     -14.373  14.950  72.195  1.00  0.00    -0.598 C  
HETATM    2  C   UNL     1     -12.970  14.352  71.910  1.00  0.00    -0.349 C  
ENDROOT
BRANCH   2   3
HETATM    3  C   UNL     1     -12.897  14.205  70.335  1.00  0.00    -0.197 C  
BRANCH   3   4
HETATM    4  N   UNL     1     -11.932  13.229  69.759  1.00  0.00    -0.327 NA 
HETATM    5  C   UNL     1     -12.022  11.875  70.219  1.00  0.00    -0.330 A  
HETATM    6  C   UNL     1     -12.945  11.461  71.208  1.00  0.00    -0.415 A  
HETATM    7  C   UNL     1     -12.980  10.158  71.725  1.00  0.00    -0.567 A  
HETATM    8  C   UNL     1     -12.117   9.195  71.237  1.00  0.00    -0.392 A  
HETATM    9  C   UNL     1     -11.227   9.545  70.232  1.00  0.00    -0.307 A  
HETATM   10  C   UNL     1     -11.170  10.862  69.731  1.00  0.00    -0.281 A  
HETATM   11  S   UNL     1      -9.955  11.106  68.468  1.00  0.00    -0.204 SA 
HETATM   12  C   UNL     1     -10.085  12.842  68.139  1.00  0.00    -0.239 A  
HETATM   13  C   UNL     1     -11.020  13.704  68.756  1.00  0.00    -0.264 A  
HETATM   14  C   UNL     1     -10.969  15.055  68.333  1.00  0.00    -0.266 A  
HETATM   15  C   UNL     1     -10.055  15.506  67.363  1.00  0.00    -0.246 A  
HETATM   16  C   UNL     1      -9.148  14.636  66.781  1.00  0.00    -0.287 A  
HETATM   17  C   UNL     1      -9.160  13.309  67.179  1.00  0.00    -0.231 A  
BRANCH  15  18
HETATM   18  S   UNL     1     -10.128  17.194  66.790  1.00  0.00    -0.312 S  
HETATM   19  O   UNL     1     -11.034  17.914  67.659  1.00  0.00    -0.310 OA 
HETATM   20  O   UNL     1     -10.350  17.148  65.357  1.00  0.00    -0.619 OA 
BRANCH  18  21
HETATM   21  N   UNL     1      -8.549  17.766  67.055  1.00  0.00    -0.230 N  
HETATM   22  C   UNL     1      -8.104  17.862  68.455  1.00  0.00    -0.301 C  
HETATM   23  C   UNL     1      -8.102  18.894  66.219  1.00  0.00    -0.269 C  
ENDBRANCH  18  21
ENDBRANCH  15  18
ENDBRANCH   3   4
ENDBRANCH   2   3
BRANCH   2  24
HETATM   24  N   UNL     1     -11.944  15.129  72.677  1.00  0.00    -0.388 NA 
HETATM   25  C   UNL     1     -11.679  16.428  72.021  1.00  0.00    -0.353 C  
HETATM   26  C   UNL     1     -12.373  15.435  74.047  1.00  0.00    -0.659 C  
ENDBRANCH   2  24
TORSDOF 5
ENDMDL
MODEL        5
REMARK 921   NORMALIZED FREE ENERGY PREDICTED BY IDOCK:   -6.41 KCAL/MOL
REMARK 922        TOTAL FREE ENERGY PREDICTED BY IDOCK:   -9.15 KCAL/MOL
REMARK 923 INTER-LIGAND FREE ENERGY PREDICTED BY IDOCK:   -8.68 KCAL/MOL
REMARK 924 INTRA-LIGAND FREE ENERGY PREDICTED BY IDOCK:   -0.46 KCAL/MOL
REMARK 927      BINDING AFFINITY PREDICTED BY RF-SCORE:    0.00 PKD
ROOT
HETATM    1  C   UNL     1     -10.254   9.612  70.360  1.00  0.00    -0.348 C  
HETATM    2  C   UNL     1     -11.482  10.248  71.065  1.00  0.00    -0.302 C  
ENDROOT
BRANCH   2   3
HETATM    3  C   UNL     1     -12.298  10.959  69.910  1.00  0.00    -0.285 C  
BRANCH   3   4
HETATM    4  N   UNL     1     -12.032  12.398  69.636  1.00  0.00    -0.298 NA 
HETATM    5  C   UNL     1     -12.497  13.343  70.609  1.00  0.00    -0.311 A  
HETATM    6  C   UNL     1     -13.217  12.962  71.764  1.00  0.00    -0.479 A  
HETATM    7  C   UNL     1     -13.749  13.887  72.675  1.00  0.00    -0.582 A  
HETATM    8  C   UNL     1     -13.541  15.240  72.489  1.00  0.00    -0.613 A  
HETATM    9  C   UNL     1     -12.798  15.656  71.393  1.00  0.00    -0.546 A  
HETATM   10  C   UNL     1     -12.286  14.730  70.461  1.00  0.00    -0.337 A  
HETATM   11  S   UNL     1     -11.384  15.465  69.128  1.00  0.00    -0.340 SA 
HETATM   12  C   UNL     1     -10.976  14.064  68.123  1.00  0.00    -0.252 A  
HETATM   13  C   UNL     1     -11.293  12.726  68.450  1.00  0.00    -0.295 A  
HETATM   14  C   UNL     1     -10.853  11.755  67.516  1.00  0.00    -0.286 A  
HETATM   15  C   UNL     1     -10.148  12.097  66.349  1.00  0.00    -0.220 A  
HETATM   16  C   UNL     1      -9.857  13.419  66.055  1.00  0.00    -0.273 A  
HETATM   17  C   UNL     1     -10.282  14.398  66.939  1.00  0.00    -0.265 A  
BRANCH  15  18
HETATM   18  S   UNL     1      -9.520  10.813  65.281  1.00  0.00    -0.235 S  
HETATM   19  O   UNL     1     -10.273   9.608  65.553  1.00  0.00    -0.228 OA 
HETATM   20  O   UNL     1      -8.074  10.830  65.400  1.00  0.00    -0.138 OA 
BRANCH  18  21
HETATM   21  N   UNL     1      -9.921  11.368  63.725  1.00  0.00    -0.305 N  
HETATM   22  C   UNL     1     -11.347  11.622  63.458  1.00  0.00    -0.354 C  
HETATM   23  C   UNL     1      -9.217  10.740  62.593  1.00  0.00    -0.324 C  
ENDBRANCH  18  21
ENDBRANCH  15  18
ENDBRANCH   3   4
ENDBRANCH   2   3
BRANCH   2  24
HETATM   24  N   UNL     1     -12.113   9.227  71.961  1.00  0.00    -0.359 NA 
HETATM   25  C   UNL     1     -13.586   9.275  71.847  1.00  0.00    -0.427 C  
HETATM   26  C   UNL     1     -11.714   7.854  71.624  1.00  0.00    -0.281 C  
ENDBRANCH   2  24
TORSDOF 5
ENDMDL
MODEL        6
REMARK 921   NORMALIZED FREE ENERGY PREDICTED BY IDOCK:   -6.25 KCAL/MOL
REMARK 922        TOTAL FREE ENERGY PREDICTED BY IDOCK:   -8.94 KCAL/MOL
REMARK 923 INTER-LIGAND FREE ENERGY PREDICTED BY IDOCK:   -8.37 KCAL/MOL
REMARK 924 INTRA-LIGAND FREE ENERGY PREDICTED BY IDOCK:   -0.57 KCAL/MOL
REMARK 927      BINDING AFFINITY PREDICTED BY RF-SCORE:    0.00 PKD
ROOT
HETATM    1  C   UNL     1     -13.067  12.726  71.864  1.00  0.00    -0.474 C  
HETATM    2  C   UNL     1     -12.243  12.748  70.550  1.00  0.00    -0.307 C  
ENDROOT
BRANCH   2   3
HETATM    3  C   UNL     1     -12.648  11.422  69.786  1.00  0.00     0.010 C  
BRANCH   3   4
HETATM    4  N   UNL     1     -11.564  10.520  69.307  1.00  0.00    -0.256 NA 
HETATM    5  C   UNL     1     -11.114   9.505  70.213  1.00  0.00    -0.271 A  
HETATM    6  C   UNL     1     -11.624   9.366  71.525  1.00  0.00    -0.467 A  
HETATM    7  C   UNL     1     -11.129   8.431  72.445  1.00  0.00    -0.431 A  
HETATM    8  C   UNL     1     -10.124   7.558  72.072  1.00  0.00    -0.225 A  
HETATM    9  C   UNL     1      -9.627   7.627  70.779  1.00  0.00    -0.166 A  
HETATM   10  C   UNL     1     -10.104   8.585  69.861  1.00  0.00    -0.195 A  
HETATM   11  S   UNL     1      -9.328   8.518  68.273  1.00  0.00    -0.138 SA 
HETATM   12  C   UNL     1     -10.076   9.879  67.421  1.00  0.00    -0.205 A  
HETATM   13  C   UNL     1     -11.087  10.704  67.966  1.00  0.00    -0.301 A  
HETATM   14  C   UNL     1     -11.564  11.724  67.106  1.00  0.00    -0.342 A  
HETATM   15  C   UNL     1     -11.070  11.901  65.801  1.00  0.00    -0.317 A  
HETATM   16  C   UNL     1     -10.074  11.079  65.299  1.00  0.00    -0.332 A  
HETATM   17  C   UNL     1      -9.575  10.077  66.116  1.00  0.00    -0.265 A  
BRANCH  15  18
HETATM   18  S   UNL     1     -11.801  13.128  64.732  1.00  0.00    -0.394 S  
HETATM   19  O   UNL     1     -13.083  13.493  65.297  1.00  0.00    -0.713 OA 
HETATM   20  O   UNL     1     -11.702  12.625  63.375  1.00  0.00    -0.497 OA 
BRANCH  18  21
HETATM   21  N   UNL     1     -10.745  14.452  64.876  1.00  0.00    -0.412 N  
HETATM   22  C   UNL     1      -9.807  14.433  66.011  1.00  0.00    -0.319 C  
HETATM   23  C   UNL     1     -11.310  15.786  64.606  1.00  0.00    -0.337 C  
ENDBRANCH  18  21
ENDBRANCH  15  18
ENDBRANCH   3   4
ENDBRANCH   2   3
BRANCH   2  24
HETATM   24  N   UNL     1     -12.378  14.097  69.911  1.00  0.00    -0.346 NA 
HETATM   25  C   UNL     1     -13.026  15.048  70.839  1.00  0.00    -0.405 C  
HETATM   26  C   UNL     1     -11.081  14.684  69.551  1.00  0.00    -0.266 C  
ENDBRANCH   2  24
TORSDOF 5
ENDMDL
MODEL        7
REMARK 921   NORMALIZED FREE ENERGY PREDICTED BY IDOCK:   -6.16 KCAL/MOL
REMARK 922        TOTAL FREE ENERGY PREDICTED BY IDOCK:   -8.82 KCAL/MOL
REMARK 923 INTER-LIGAND FREE ENERGY PREDICTED BY IDOCK:   -8.08 KCAL/MOL
REMARK 924 INTRA-LIGAND FREE ENERGY PREDICTED BY IDOCK:   -0.73 KCAL/MOL
REMARK 927      BINDING AFFINITY PREDICTED BY RF-SCORE:    0.00 PKD
ROOT
HETATM    1  C   UNL     1      -9.987   9.584  66.338  1.00  0.00    -0.339 C  
HETATM    2  C   UNL     1     -10.653  10.965  66.573  1.00  0.00    -0.237 C  
ENDROOT
BRANCH   2   3
HETATM    3  C   UNL     1      -9.988  11.524  67.896  1.00  0.00    -0.183 C  
BRANCH   3   4
HETATM    4  N   UNL     1     -10.838  12.290  68.848  1.00  0.00    -0.218 NA 
HETATM    5  C   UNL     1     -10.922  13.708  68.651  1.00  0.00    -0.267 A  
HETATM    6  C   UNL     1     -10.207  14.384  67.636  1.00  0.00    -0.229 A  
HETATM    7  C   UNL     1     -10.216  15.780  67.492  1.00  0.00    -0.265 A  
HETATM    8  C   UNL     1     -10.984  16.558  68.337  1.00  0.00    -0.348 A  
HETATM    9  C   UNL     1     -11.740  15.932  69.317  1.00  0.00    -0.360 A  
HETATM   10  C   UNL     1     -11.710  14.531  69.482  1.00  0.00    -0.314 A  
HETATM   11  S   UNL     1     -12.729  13.934  70.799  1.00  0.00    -0.282 SA 
HETATM   12  C   UNL     1     -12.392  12.195  70.787  1.00  0.00    -0.297 A  
HETATM   13  C   UNL     1     -11.545  11.552  69.856  1.00  0.00    -0.308 A  
HETATM   14  C   UNL     1     -11.431  10.148  70.011  1.00  0.00    -0.344 A  
HETATM   15  C   UNL     1     -12.115   9.443  71.017  1.00  0.00    -0.298 A  
HETATM   16  C   UNL     1     -12.934  10.104  71.918  1.00  0.00    -0.549 A  
HETATM   17  C   UNL     1     -13.061  11.479  71.805  1.00  0.00    -0.503 A  
BRANCH  15  18
HETATM   18  S   UNL     1     -12.020   7.662  71.078  1.00  0.00    -0.237 S  
HETATM   19  O   UNL     1     -11.194   7.229  69.971  1.00  0.00    -0.263 OA 
HETATM   20  O   UNL     1     -13.375   7.168  71.233  1.00  0.00    -0.368 OA 
BRANCH  18  21
HETATM   21  N   UNL     1     -11.186   7.364  72.529  1.00  0.00    -0.296 N  
HETATM   22  C   UNL     1      -9.953   8.135  72.757  1.00  0.00    -0.291 C  
HETATM   23  C   UNL     1     -11.087   5.959  72.962  1.00  0.00    -0.254 C  
ENDBRANCH  18  21
ENDBRANCH  15  18
ENDBRANCH   3   4
ENDBRANCH   2   3
BRANCH   2  24
HETATM   24  N   UNL     1     -10.632  11.742  65.292  1.00  0.00    -0.269 NA 
HETATM   25  C   UNL     1     -10.302  10.858  64.154  1.00  0.00    -0.364 C  
HETATM   26  C   UNL     1     -11.931  12.354  64.980  1.00  0.00    -0.402 C  
ENDBRANCH   2  24
TORSDOF 5
ENDMDL
MODEL        8
REMARK 921   NORMALIZED FREE ENERGY PREDICTED BY IDOCK:   -6.08 KCAL/MOL
REMARK 922        TOTAL FREE ENERGY PREDICTED BY IDOCK:   -8.72 KCAL/MOL
REMARK 923 INTER-LIGAND FREE ENERGY PREDICTED BY IDOCK:   -7.99 KCAL/MOL
REMARK 924 INTRA-LIGAND FREE ENERGY PREDICTED BY IDOCK:   -0.73 KCAL/MOL
REMARK 927      BINDING AFFINITY PREDICTED BY RF-SCORE:    0.00 PKD
ROOT
HETATM    1  C   UNL     1     -10.607  12.013  66.255  1.00  0.00    -0.287 C  
HETATM    2  C   UNL     1     -11.522  12.813  67.219  1.00  0.00    -0.337 C  
ENDROOT
BRANCH   2   3
HETATM    3  C   UNL     1     -10.805  12.738  68.628  1.00  0.00    -0.253 C  
BRANCH   3   4
HETATM    4  N   UNL     1     -11.575  12.213  69.788  1.00  0.00    -0.289 NA 
HETATM    5  C   UNL     1     -12.411  13.143  70.489  1.00  0.00    -0.304 A  
HETATM    6  C   UNL     1     -12.488  14.513  70.146  1.00  0.00    -0.375 A  
HETATM    7  C   UNL     1     -13.236  15.445  70.881  1.00  0.00    -0.512 A  
HETATM    8  C   UNL     1     -13.980  15.033  71.970  1.00  0.00    -0.605 A  
HETATM    9  C   UNL     1     -13.971  13.689  72.313  1.00  0.00    -0.661 A  
HETATM   10  C   UNL     1     -13.197  12.754  71.594  1.00  0.00    -0.317 A  
HETATM   11  S   UNL     1     -13.310  11.097  72.203  1.00  0.00     0.112 SA 
HETATM   12  C   UNL     1     -12.174  10.227  71.158  1.00  0.00    -0.397 A  
HETATM   13  C   UNL     1     -11.461  10.814  70.088  1.00  0.00    -0.331 A  
HETATM   14  C   UNL     1     -10.620   9.932  69.365  1.00  0.00    -0.250 A  
HETATM   15  C   UNL     1     -10.506   8.567  69.686  1.00  0.00    -0.221 A  
HETATM   16  C   UNL     1     -11.215   8.024  70.745  1.00  0.00    -0.275 A  
HETATM   17  C   UNL     1     -12.038   8.858  71.483  1.00  0.00    -0.395 A  
BRANCH  15  18
HETATM   18  S   UNL     1      -9.522   7.491  68.657  1.00  0.00    -0.147 S  
HETATM   19  O   UNL     1      -9.598   6.159  69.217  1.00  0.00    -0.132 OA 
HETATM   20  O   UNL     1      -8.241   8.144  68.460  1.00  0.00    -0.122 OA 
BRANCH  18  21
HETATM   21  N   UNL     1     -10.349   7.507  67.172  1.00  0.00    -0.283 N  
HETATM   22  C   UNL     1     -10.906   6.225  66.708  1.00  0.00    -0.296 C  
HETATM   23  C   UNL     1      -9.758   8.314  66.091  1.00  0.00    -0.119 C  
ENDBRANCH  18  21
ENDBRANCH  15  18
ENDBRANCH   3   4
ENDBRANCH   2   3
BRANCH   2  24
HETATM   24  N   UNL     1     -11.874  14.124  66.583  1.00  0.00    -0.406 NA 
HETATM   25  C   UNL     1     -10.651  14.899  66.283  1.00  0.00    -0.308 C  
HETATM   26  C   UNL     1     -12.588  13.962  65.310  1.00  0.00    -0.478 C  
ENDBRANCH   2  24
TORSDOF 5
ENDMDL
MODEL        9
REMARK 921   NORMALIZED FREE ENERGY PREDICTED BY IDOCK:   -6.07 KCAL/MOL
REMARK 922        TOTAL FREE ENERGY PREDICTED BY IDOCK:   -8.70 KCAL/MOL
REMARK 923 INTER-LIGAND FREE ENERGY PREDICTED BY IDOCK:   -7.93 KCAL/MOL
REMARK 924 INTRA-LIGAND FREE ENERGY PREDICTED BY IDOCK:   -0.77 KCAL/MOL
REMARK 927      BINDING AFFINITY PREDICTED BY RF-SCORE:    0.00 PKD
ROOT
HETATM    1  C   UNL     1     -10.021   9.855  66.120  1.00  0.00    -0.331 C  
HETATM    2  C   UNL     1     -10.779  11.121  66.599  1.00  0.00    -0.269 C  
ENDROOT
BRANCH   2   3
HETATM    3  C   UNL     1     -10.171  11.452  68.023  1.00  0.00    -0.185 C  
BRANCH   3   4
HETATM    4  N   UNL     1     -11.089  11.937  69.089  1.00  0.00    -0.238 NA 
HETATM    5  C   UNL     1     -11.612  10.957  69.995  1.00  0.00    -0.341 A  
HETATM    6  C   UNL     1     -11.325   9.577  69.881  1.00  0.00    -0.161 A  
HETATM    7  C   UNL     1     -11.902   8.603  70.709  1.00  0.00    -0.197 A  
HETATM    8  C   UNL     1     -12.761   8.978  71.724  1.00  0.00    -0.431 A  
HETATM    9  C   UNL     1     -13.034  10.327  71.903  1.00  0.00    -0.554 A  
HETATM   10  C   UNL     1     -12.477  11.305  71.053  1.00  0.00    -0.400 A  
HETATM   11  S   UNL     1     -12.964  12.962  71.438  1.00  0.00    -0.182 SA 
HETATM   12  C   UNL     1     -12.182  13.900  70.155  1.00  0.00    -0.358 A  
HETATM   13  C   UNL     1     -11.342  13.349  69.161  1.00  0.00    -0.280 A  
HETATM   14  C   UNL     1     -10.800  14.281  68.241  1.00  0.00    -0.256 A  
HETATM   15  C   UNL     1     -11.076  15.658  68.315  1.00  0.00    -0.336 A  
HETATM   16  C   UNL     1     -11.908  16.166  69.299  1.00  0.00    -0.176 A  
HETATM   17  C   UNL     1     -12.466  15.283  70.209  1.00  0.00    -0.405 A  
BRANCH  15  18
HETATM   18  S   UNL     1     -10.263  16.788  67.198  1.00  0.00    -0.298 S  
HETATM   19  O   UNL     1     -10.758  18.118  67.482  1.00  0.00    -0.412 OA 
HETATM   20  O   UNL     1     -10.370  16.222  65.867  1.00  0.00    -0.332 OA 
BRANCH  18  21
HETATM   21  N   UNL     1      -8.632  16.701  67.672  1.00  0.00    -0.198 N  
HETATM   22  C   UNL     1      -8.057  17.903  68.296  1.00  0.00    -0.293 C  
HETATM   23  C   UNL     1      -7.708  16.021  66.748  1.00  0.00    -0.235 C  
ENDBRANCH  18  21
ENDBRANCH  15  18
ENDBRANCH   3   4
ENDBRANCH   2   3
BRANCH   2  24
HETATM   24  N   UNL     1     -10.788  12.133  65.493  1.00  0.00    -0.274 NA 
HETATM   25  C   UNL     1     -10.302  11.529  64.234  1.00  0.00    -0.323 C  
HETATM   26  C   UNL     1     -12.132  12.653  65.214  1.00  0.00    -0.467 C  
ENDBRANCH   2  24
TORSDOF 5
ENDMDL
MODEL       10
REMARK 921   NORMALIZED FREE ENERGY PREDICTED BY IDOCK:   -6.02 KCAL/MOL
REMARK 922        TOTAL FREE ENERGY PREDICTED BY IDOCK:   -8.64 KCAL/MOL
REMARK 923 INTER-LIGAND FREE ENERGY PREDICTED BY IDOCK:   -7.94 KCAL/MOL
REMARK 924 INTRA-LIGAND FREE ENERGY PREDICTED BY IDOCK:   -0.70 KCAL/MOL
REMARK 927      BINDING AFFINITY PREDICTED BY RF-SCORE:    0.00 PKD
ROOT
HETATM    1  C   UNL     1      -9.590  18.096  68.779  1.00  0.00    -0.304 C  
HETATM    2  C   UNL     1      -9.607  16.554  68.949  1.00  0.00    -0.261 C  
ENDROOT
BRANCH   2   3
HETATM    3  C   UNL     1     -11.139  16.155  68.945  1.00  0.00    -0.347 C  
BRANCH   3   4
HETATM    4  N   UNL     1     -11.552  14.923  69.671  1.00  0.00    -0.285 NA 
HETATM    5  C   UNL     1     -11.958  15.077  71.037  1.00  0.00    -0.322 A  
HETATM    6  C   UNL     1     -11.937  16.322  71.708  1.00  0.00    -0.473 A  
HETATM    7  C   UNL     1     -12.250  16.465  73.068  1.00  0.00    -0.554 A  
HETATM    8  C   UNL     1     -12.645  15.366  73.807  1.00  0.00    -0.747 A  
HETATM    9  C   UNL     1     -12.726  14.133  73.177  1.00  0.00    -0.227 A  
HETATM   10  C   UNL     1     -12.385  13.981  71.817  1.00  0.00    -0.180 A  
HETATM   11  S   UNL     1     -12.539  12.327  71.211  1.00  0.00    -0.125 SA 
HETATM   12  C   UNL     1     -11.958  12.473  69.543  1.00  0.00    -0.266 A  
HETATM   13  C   UNL     1     -11.559  13.687  68.940  1.00  0.00    -0.322 A  
HETATM   14  C   UNL     1     -11.148  13.585  67.588  1.00  0.00    -0.290 A  
HETATM   15  C   UNL     1     -11.142  12.362  66.893  1.00  0.00    -0.287 A  
HETATM   16  C   UNL     1     -11.535  11.188  67.515  1.00  0.00    -0.296 A  
HETATM   17  C   UNL     1     -11.932  11.247  68.842  1.00  0.00    -0.378 A  
BRANCH  15  18
HETATM   18  S   UNL     1     -10.729  12.327  65.158  1.00  0.00    -0.305 S  
HETATM   19  O   UNL     1     -10.380  10.965  64.817  1.00  0.00    -0.308 OA 
HETATM   20  O   UNL     1      -9.800  13.416  64.919  1.00  0.00    -0.168 OA 
BRANCH  18  21
HETATM   21  N   UNL     1     -12.198  12.720  64.398  1.00  0.00    -0.408 N  
HETATM   22  C   UNL     1     -12.660  11.811  63.335  1.00  0.00    -0.336 C  
HETATM   23  C   UNL     1     -12.430  14.142  64.093  1.00  0.00    -0.227 C  
ENDBRANCH  18  21
ENDBRANCH  15  18
ENDBRANCH   3   4
ENDBRANCH   2   3
BRANCH   2  24
HETATM   24  N   UNL     1      -8.633  15.946  67.985  1.00  0.00    -0.163 NA 
HETATM   25  C   UNL     1      -8.545  16.759  66.754  1.00  0.00    -0.232 C  
HETATM   26  C   UNL     1      -7.272  15.868  68.531  1.00  0.00    -0.128 C  
ENDBRANCH   2  24
TORSDOF 5
ENDMDL
MODEL       11
REMARK 921   NORMALIZED FREE ENERGY PREDICTED BY IDOCK:   -6.00 KCAL/MOL
REMARK 922        TOTAL FREE ENERGY PREDICTED BY IDOCK:   -8.61 KCAL/MOL
REMARK 923 INTER-LIGAND FREE ENERGY PREDICTED BY IDOCK:   -8.13 KCAL/MOL
REMARK 924 INTRA-LIGAND FREE ENERGY PREDICTED BY IDOCK:   -0.48 KCAL/MOL
REMARK 927      BINDING AFFINITY PREDICTED BY RF-SCORE:    0.00 PKD
ROOT
HETATM    1  C   UNL     1     -10.464   9.542  71.145  1.00  0.00    -0.358 C  
HETATM    2  C   UNL     1     -11.916   9.937  71.522  1.00  0.00    -0.390 C  
ENDROOT
BRANCH   2   3
HETATM    3  C   UNL     1     -12.525  10.574  70.206  1.00  0.00    -0.271 C  
BRANCH   3   4
HETATM    4  N   UNL     1     -12.134  11.964  69.846  1.00  0.00    -0.294 NA 
HETATM    5  C   UNL     1     -12.567  13.011  70.724  1.00  0.00    -0.241 A  
HETATM    6  C   UNL     1     -13.369  12.773  71.864  1.00  0.00    -0.510 A  
HETATM    7  C   UNL     1     -13.868  13.801  72.678  1.00  0.00    -0.504 A  
HETATM    8  C   UNL     1     -13.545  15.117  72.408  1.00  0.00    -0.575 A  
HETATM    9  C   UNL     1     -12.722  15.393  71.326  1.00  0.00    -0.501 A  
HETATM   10  C   UNL     1     -12.241  14.364  70.489  1.00  0.00    -0.341 A  
HETATM   11  S   UNL     1     -11.223  14.927  69.157  1.00  0.00    -0.297 SA 
HETATM   12  C   UNL     1     -10.880  13.429  68.276  1.00  0.00    -0.256 A  
HETATM   13  C   UNL     1     -11.316  12.147  68.680  1.00  0.00    -0.280 A  
HETATM   14  C   UNL     1     -10.912  11.078  67.842  1.00  0.00    -0.317 A  
HETATM   15  C   UNL     1     -10.127  11.279  66.691  1.00  0.00    -0.214 A  
HETATM   16  C   UNL     1      -9.720  12.549  66.320  1.00  0.00    -0.259 A  
HETATM   17  C   UNL     1     -10.107  13.621  67.110  1.00  0.00    -0.245 A  
BRANCH  15  18
HETATM   18  S   UNL     1      -9.553   9.875  65.751  1.00  0.00    -0.269 S  
HETATM   19  O   UNL     1      -9.636  10.223  64.349  1.00  0.00    -0.275 OA 
HETATM   20  O   UNL     1     -10.239   8.706  66.270  1.00  0.00    -0.264 OA 
BRANCH  18  21
HETATM   21  N   UNL     1      -7.915   9.755  66.188  1.00  0.00    -0.108 N  
HETATM   22  C   UNL     1      -6.925  10.096  65.153  1.00  0.00    -0.137 C  
HETATM   23  C   UNL     1      -7.529   8.593  67.008  1.00  0.00    -0.084 C  
ENDBRANCH  18  21
ENDBRANCH  15  18
ENDBRANCH   3   4
ENDBRANCH   2   3
BRANCH   2  24
HETATM   24  N   UNL     1     -12.573   8.781  72.213  1.00  0.00    -0.390 NA 
HETATM   25  C   UNL     1     -14.045   8.891  72.125  1.00  0.00    -0.429 C  
HETATM   26  C   UNL     1     -12.217   7.488  71.614  1.00  0.00    -0.322 C  
ENDBRANCH   2  24
TORSDOF 5
ENDMDL
MODEL       12
REMARK 921   NORMALIZED FREE ENERGY PREDICTED BY IDOCK:   -6.00 KCAL/MOL
REMARK 922        TOTAL FREE ENERGY PREDICTED BY IDOCK:   -8.61 KCAL/MOL
REMARK 923 INTER-LIGAND FREE ENERGY PREDICTED BY IDOCK:   -7.83 KCAL/MOL
REMARK 924 INTRA-LIGAND FREE ENERGY PREDICTED BY IDOCK:   -0.78 KCAL/MOL
REMARK 927      BINDING AFFINITY PREDICTED BY RF-SCORE:    0.00 PKD
ROOT
HETATM    1  C   UNL     1     -10.447  12.485  66.127  1.00  0.00    -0.272 C  
HETATM    2  C   UNL     1     -11.544  12.990  67.102  1.00  0.00    -0.358 C  
ENDROOT
BRANCH   2   3
HETATM    3  C   UNL     1     -10.856  12.998  68.528  1.00  0.00    -0.258 C  
BRANCH   3   4
HETATM    4  N   UNL     1     -11.584  12.379  69.669  1.00  0.00    -0.281 NA 
HETATM    5  C   UNL     1     -12.394  13.246  70.473  1.00  0.00    -0.316 A  
HETATM    6  C   UNL     1     -12.485  14.639  70.245  1.00  0.00    -0.401 A  
HETATM    7  C   UNL     1     -13.207  15.506  71.079  1.00  0.00    -0.539 A  
HETATM    8  C   UNL     1     -13.910  15.003  72.158  1.00  0.00    -0.584 A  
HETATM    9  C   UNL     1     -13.888  13.636  72.390  1.00  0.00    -0.691 A  
HETATM   10  C   UNL     1     -13.140  12.766  71.570  1.00  0.00    -0.286 A  
HETATM   11  S   UNL     1     -13.229  11.064  72.046  1.00  0.00    -0.141 SA 
HETATM   12  C   UNL     1     -12.132  10.285  70.894  1.00  0.00    -0.368 A  
HETATM   13  C   UNL     1     -11.458  10.960  69.850  1.00  0.00    -0.323 A  
HETATM   14  C   UNL     1     -10.643  10.143  69.028  1.00  0.00    -0.245 A  
HETATM   15  C   UNL     1     -10.517   8.757  69.233  1.00  0.00    -0.219 A  
HETATM   16  C   UNL     1     -11.186   8.127  70.268  1.00  0.00    -0.182 A  
HETATM   17  C   UNL     1     -11.983   8.896  71.101  1.00  0.00    -0.344 A  
BRANCH  15  18
HETATM   18  S   UNL     1      -9.570   7.772  68.085  1.00  0.00    -0.154 S  
HETATM   19  O   UNL     1     -10.502   7.148  67.170  1.00  0.00    -0.252 OA 
HETATM   20  O   UNL     1      -8.650   6.971  68.870  1.00  0.00    -0.128 OA 
BRANCH  18  21
HETATM   21  N   UNL     1      -8.661   8.928  67.234  1.00  0.00    -0.118 N  
HETATM   22  C   UNL     1      -8.894   9.020  65.783  1.00  0.00    -0.179 C  
HETATM   23  C   UNL     1      -7.242   9.065  67.609  1.00  0.00    -0.083 C  
ENDBRANCH  18  21
ENDBRANCH  15  18
ENDBRANCH   3   4
ENDBRANCH   2   3
BRANCH   2  24
HETATM   24  N   UNL     1     -12.180  14.219  66.527  1.00  0.00    -0.437 NA 
HETATM   25  C   UNL     1     -11.158  15.250  66.248  1.00  0.00    -0.273 C  
HETATM   26  C   UNL     1     -12.867  13.958  65.255  1.00  0.00    -0.398 C  
ENDBRANCH   2  24
TORSDOF 5
ENDMDL
MODEL       13
REMARK 921   NORMALIZED FREE ENERGY PREDICTED BY IDOCK:   -5.97 KCAL/MOL
REMARK 922        TOTAL FREE ENERGY PREDICTED BY IDOCK:   -8.57 KCAL/MOL
REMARK 923 INTER-LIGAND FREE ENERGY PREDICTED BY IDOCK:   -7.79 KCAL/MOL
REMARK 924 INTRA-LIGAND FREE ENERGY PREDICTED BY IDOCK:   -0.78 KCAL/MOL
REMARK 927      BINDING AFFINITY PREDICTED BY RF-SCORE:    0.00 PKD
ROOT
HETATM    1  C   UNL     1     -10.222  10.823  65.971  1.00  0.00    -0.310 C  
HETATM    2  C   UNL     1     -11.020  11.913  66.734  1.00  0.00    -0.292 C  
ENDROOT
BRANCH   2   3
HETATM    3  C   UNL     1     -10.322  12.021  68.150  1.00  0.00    -0.198 C  
BRANCH   3   4
HETATM    4  N   UNL     1     -11.172  11.931  69.368  1.00  0.00    -0.236 NA 
HETATM    5  C   UNL     1     -11.812  13.136  69.807  1.00  0.00    -0.316 A  
HETATM    6  C   UNL     1     -11.629  14.381  69.160  1.00  0.00    -0.344 A  
HETATM    7  C   UNL     1     -12.183  15.579  69.633  1.00  0.00    -0.297 A  
HETATM    8  C   UNL     1     -12.986  15.574  70.758  1.00  0.00    -0.490 A  
HETATM    9  C   UNL     1     -13.231  14.368  71.397  1.00  0.00    -0.418 A  
HETATM   10  C   UNL     1     -12.653  13.166  70.939  1.00  0.00    -0.295 A  
HETATM   11  S   UNL     1     -13.075  11.744  71.903  1.00  0.00    -0.232 SA 
HETATM   12  C   UNL     1     -12.131  10.460  71.129  1.00  0.00    -0.386 A  
HETATM   13  C   UNL     1     -11.325  10.642  69.982  1.00  0.00    -0.324 A  
HETATM   14  C   UNL     1     -10.671   9.477  69.511  1.00  0.00    -0.246 A  
HETATM   15  C   UNL     1     -10.817   8.226  70.138  1.00  0.00    -0.237 A  
HETATM   16  C   UNL     1     -11.611   8.082  71.264  1.00  0.00    -0.306 A  
HETATM   17  C   UNL     1     -12.257   9.203  71.760  1.00  0.00    -0.442 A  
BRANCH  15  18
HETATM   18  S   UNL     1     -10.061   6.778  69.419  1.00  0.00    -0.177 S  
HETATM   19  O   UNL     1     -10.970   5.669  69.609  1.00  0.00    -0.348 OA 
HETATM   20  O   UNL     1      -8.699   6.718  69.915  1.00  0.00    -0.139 OA 
BRANCH  18  21
HETATM   21  N   UNL     1      -9.996   7.153  67.762  1.00  0.00    -0.148 N  
HETATM   22  C   UNL     1     -10.865   6.368  66.869  1.00  0.00    -0.357 C  
HETATM   23  C   UNL     1      -8.664   7.424  67.194  1.00  0.00    -0.121 C  
ENDBRANCH  18  21
ENDBRANCH  15  18
ENDBRANCH   3   4
ENDBRANCH   2   3
BRANCH   2  24
HETATM   24  N   UNL     1     -11.188  13.107  65.844  1.00  0.00    -0.286 NA 
HETATM   25  C   UNL     1     -10.523  12.883  64.543  1.00  0.00    -0.377 C  
HETATM   26  C   UNL     1     -12.596  13.398  65.547  1.00  0.00    -0.465 C  
ENDBRANCH   2  24
TORSDOF 5
ENDMDL
MODEL       14
REMARK 921   NORMALIZED FREE ENERGY PREDICTED BY IDOCK:   -5.96 KCAL/MOL
REMARK 922        TOTAL FREE ENERGY PREDICTED BY IDOCK:   -8.57 KCAL/MOL
REMARK 923 INTER-LIGAND FREE ENERGY PREDICTED BY IDOCK:   -7.83 KCAL/MOL
REMARK 924 INTRA-LIGAND FREE ENERGY PREDICTED BY IDOCK:   -0.73 KCAL/MOL
REMARK 927      BINDING AFFINITY PREDICTED BY RF-SCORE:    0.00 PKD
ROOT
HETATM    1  C   UNL     1     -10.179   8.568  66.975  1.00  0.00    -0.371 C  
HETATM    2  C   UNL     1     -10.381  10.059  66.596  1.00  0.00    -0.213 C  
ENDROOT
BRANCH   2   3
HETATM    3  C   UNL     1      -9.709  10.878  67.772  1.00  0.00    -0.168 C  
BRANCH   3   4
HETATM    4  N   UNL     1     -10.536  11.876  68.504  1.00  0.00    -0.219 NA 
HETATM    5  C   UNL     1     -10.515  13.223  68.015  1.00  0.00    -0.242 A  
HETATM    6  C   UNL     1      -9.721  13.628  66.917  1.00  0.00    -0.262 A  
HETATM    7  C   UNL     1      -9.630  14.961  66.488  1.00  0.00    -0.297 A  
HETATM    8  C   UNL     1     -10.371  15.943  67.117  1.00  0.00    -0.300 A  
HETATM    9  C   UNL     1     -11.200  15.582  68.169  1.00  0.00    -0.343 A  
HETATM   10  C   UNL     1     -11.272  14.248  68.620  1.00  0.00    -0.264 A  
HETATM   11  S   UNL     1     -12.373  14.002  69.983  1.00  0.00    -0.298 SA 
HETATM   12  C   UNL     1     -12.156  12.281  70.346  1.00  0.00    -0.300 A  
HETATM   13  C   UNL     1     -11.324  11.408  69.608  1.00  0.00    -0.275 A  
HETATM   14  C   UNL     1     -11.312  10.063  70.055  1.00  0.00    -0.334 A  
HETATM   15  C   UNL     1     -12.076   9.627  71.153  1.00  0.00    -0.362 A  
HETATM   16  C   UNL     1     -12.877  10.510  71.858  1.00  0.00    -0.509 A  
HETATM   17  C   UNL     1     -12.906  11.836  71.457  1.00  0.00    -0.450 A  
BRANCH  15  18
HETATM   18  S   UNL     1     -12.106   7.896  71.584  1.00  0.00    -0.311 S  
HETATM   19  O   UNL     1     -13.408   7.377  71.226  1.00  0.00    -0.350 OA 
HETATM   20  O   UNL     1     -11.608   7.787  72.942  1.00  0.00    -0.355 OA 
BRANCH  18  21
HETATM   21  N   UNL     1     -10.943   7.215  70.547  1.00  0.00    -0.253 N  
HETATM   22  C   UNL     1     -11.384   6.095  69.699  1.00  0.00    -0.372 C  
HETATM   23  C   UNL     1      -9.587   7.036  71.095  1.00  0.00    -0.165 C  
ENDBRANCH  18  21
ENDBRANCH  15  18
ENDBRANCH   3   4
ENDBRANCH   2   3
BRANCH   2  24
HETATM   24  N   UNL     1      -9.979  10.258  65.167  1.00  0.00    -0.319 NA 
HETATM   25  C   UNL     1     -10.731  11.381  64.567  1.00  0.00    -0.327 C  
HETATM   26  C   UNL     1      -8.555  10.586  65.021  1.00  0.00    -0.176 C  
ENDBRANCH   2  24
TORSDOF 5
ENDMDL
MODEL       15
REMARK 921   NORMALIZED FREE ENERGY PREDICTED BY IDOCK:   -5.87 KCAL/MOL
REMARK 922        TOTAL FREE ENERGY PREDICTED BY IDOCK:   -8.45 KCAL/MOL
REMARK 923 INTER-LIGAND FREE ENERGY PREDICTED BY IDOCK:   -8.15 KCAL/MOL
REMARK 924 INTRA-LIGAND FREE ENERGY PREDICTED BY IDOCK:   -0.30 KCAL/MOL
REMARK 927      BINDING AFFINITY PREDICTED BY RF-SCORE:    0.00 PKD
ROOT
HETATM    1  C   UNL     1     -14.166  14.173  72.391  1.00  0.00    -0.498 C  
HETATM    2  C   UNL     1     -12.727  13.804  71.944  1.00  0.00    -0.253 C  
ENDROOT
BRANCH   2   3
HETATM    3  C   UNL     1     -12.894  13.159  70.508  1.00  0.00     0.043 C  
BRANCH   3   4
HETATM    4  N   UNL     1     -11.950  12.083  70.101  1.00  0.00    -0.345 NA 
HETATM    5  C   UNL     1     -12.062  10.826  70.781  1.00  0.00    -0.372 A  
HETATM    6  C   UNL     1     -12.986  10.600  71.828  1.00  0.00    -0.577 A  
HETATM    7  C   UNL     1     -13.042   9.403  72.556  1.00  0.00    -0.374 A  
HETATM    8  C   UNL     1     -12.198   8.356  72.233  1.00  0.00    -0.449 A  
HETATM    9  C   UNL     1     -11.308   8.517  71.182  1.00  0.00    -0.319 A  
HETATM   10  C   UNL     1     -11.230   9.731  70.467  1.00  0.00    -0.315 A  
HETATM   11  S   UNL     1     -10.019   9.737  69.177  1.00  0.00    -0.202 SA 
HETATM   12  C   UNL     1     -10.120  11.395  68.564  1.00  0.00    -0.206 A  
HETATM   13  C   UNL     1     -11.036  12.366  69.030  1.00  0.00    -0.235 A  
HETATM   14  C   UNL     1     -10.963  13.626  68.386  1.00  0.00    -0.284 A  
HETATM   15  C   UNL     1     -10.047  13.892  67.352  1.00  0.00    -0.244 A  
HETATM   16  C   UNL     1      -9.159  12.920  66.922  1.00  0.00    -0.224 A  
HETATM   17  C   UNL     1      -9.193  11.678  67.537  1.00  0.00    -0.172 A  
BRANCH  15  18
HETATM   18  S   UNL     1     -10.093  15.461  66.505  1.00  0.00    -0.285 S  
HETATM   19  O   UNL     1      -8.745  15.770  66.079  1.00  0.00    -0.313 OA 
HETATM   20  O   UNL     1     -10.836  16.379  67.349  1.00  0.00    -0.302 OA 
BRANCH  18  21
HETATM   21  N   UNL     1     -11.039  15.135  65.130  1.00  0.00    -0.383 N  
HETATM   22  C   UNL     1     -11.522  16.298  64.366  1.00  0.00    -0.111 C  
HETATM   23  C   UNL     1     -12.036  14.058  65.250  1.00  0.00    -0.408 C  
ENDBRANCH  18  21
ENDBRANCH  15  18
ENDBRANCH   3   4
ENDBRANCH   2   3
BRANCH   2  24
HETATM   24  N   UNL     1     -11.826  14.978  72.180  1.00  0.00    -0.375 NA 
HETATM   25  C   UNL     1     -11.907  15.929  71.051  1.00  0.00    -0.428 C  
HETATM   26  C   UNL     1     -12.187  15.734  73.387  1.00  0.00    -0.517 C  
ENDBRANCH   2  24
TORSDOF 5
ENDMDL
MODEL       16
REMARK 921   NORMALIZED FREE ENERGY PREDICTED BY IDOCK:   -5.87 KCAL/MOL
REMARK 922        TOTAL FREE ENERGY PREDICTED BY IDOCK:   -8.45 KCAL/MOL
REMARK 923 INTER-LIGAND FREE ENERGY PREDICTED BY IDOCK:   -7.78 KCAL/MOL
REMARK 924 INTRA-LIGAND FREE ENERGY PREDICTED BY IDOCK:   -0.67 KCAL/MOL
REMARK 927      BINDING AFFINITY PREDICTED BY RF-SCORE:    0.00 PKD
ROOT
HETATM    1  C   UNL     1     -10.587  11.498  66.236  1.00  0.00    -0.309 C  
HETATM    2  C   UNL     1     -11.356  12.528  67.105  1.00  0.00    -0.324 C  
ENDROOT
BRANCH   2   3
HETATM    3  C   UNL     1     -10.657  12.472  68.525  1.00  0.00    -0.243 C  
BRANCH   3   4
HETATM    4  N   UNL     1     -11.496  12.171  69.716  1.00  0.00    -0.233 NA 
HETATM    5  C   UNL     1     -12.181  13.273  70.326  1.00  0.00    -0.321 A  
HETATM    6  C   UNL     1     -12.052  14.605  69.868  1.00  0.00    -0.385 A  
HETATM    7  C   UNL     1     -12.649  15.698  70.512  1.00  0.00    -0.423 A  
HETATM    8  C   UNL     1     -13.446  15.497  71.623  1.00  0.00    -0.584 A  
HETATM    9  C   UNL     1     -13.639  14.201  72.079  1.00  0.00    -0.540 A  
HETATM   10  C   UNL     1     -13.016  13.103  71.450  1.00  0.00    -0.298 A  
HETATM   11  S   UNL     1     -13.377  11.540  72.196  1.00  0.00     0.109 SA 
HETATM   12  C   UNL     1     -12.387  10.422  71.243  1.00  0.00    -0.401 A  
HETATM   13  C   UNL     1     -11.595  10.801  70.135  1.00  0.00    -0.337 A  
HETATM   14  C   UNL     1     -10.898   9.744  69.499  1.00  0.00    -0.264 A  
HETATM   15  C   UNL     1     -10.991   8.410  69.936  1.00  0.00    -0.166 A  
HETATM   16  C   UNL     1     -11.772   8.072  71.028  1.00  0.00    -0.295 A  
HETATM   17  C   UNL     1     -12.460   9.082  71.683  1.00  0.00    -0.418 A  
BRANCH  15  18
HETATM   18  S   UNL     1     -10.182   7.115  69.014  1.00  0.00    -0.195 S  
HETATM   19  O   UNL     1      -9.163   7.731  68.192  1.00  0.00    -0.139 OA 
HETATM   20  O   UNL     1     -11.226   6.300  68.419  1.00  0.00    -0.335 OA 
BRANCH  18  21
HETATM   21  N   UNL     1      -9.423   6.190  70.221  1.00  0.00    -0.159 N  
HETATM   22  C   UNL     1      -7.998   6.465  70.471  1.00  0.00    -0.112 C  
HETATM   23  C   UNL     1      -9.761   4.757  70.272  1.00  0.00    -0.225 C  
ENDBRANCH  18  21
ENDBRANCH  15  18
ENDBRANCH   3   4
ENDBRANCH   2   3
BRANCH   2  24
HETATM   24  N   UNL     1     -11.488  13.811  66.342  1.00  0.00    -0.325 NA 
HETATM   25  C   UNL     1     -10.333  13.997  65.438  1.00  0.00    -0.359 C  
HETATM   26  C   UNL     1     -12.688  13.845  65.496  1.00  0.00    -0.499 C  
ENDBRANCH   2  24
TORSDOF 5
ENDMDL
MODEL       17
REMARK 921   NORMALIZED FREE ENERGY PREDICTED BY IDOCK:   -5.85 KCAL/MOL
REMARK 922        TOTAL FREE ENERGY PREDICTED BY IDOCK:   -8.43 KCAL/MOL
REMARK 923 INTER-LIGAND FREE ENERGY PREDICTED BY IDOCK:   -7.73 KCAL/MOL
REMARK 924 INTRA-LIGAND FREE ENERGY PREDICTED BY IDOCK:   -0.69 KCAL/MOL
REMARK 927      BINDING AFFINITY PREDICTED BY RF-SCORE:    0.00 PKD
ROOT
HETATM    1  C   UNL     1      -8.154  11.728  66.803  1.00  0.00    -0.133 C  
HETATM    2  C   UNL     1      -8.745  11.208  68.140  1.00  0.00    -0.144 C  
ENDROOT
BRANCH   2   3
HETATM    3  C   UNL     1     -10.315  11.263  67.947  1.00  0.00    -0.182 C  
BRANCH   3   4
HETATM    4  N   UNL     1     -11.125  12.025  68.936  1.00  0.00    -0.235 NA 
HETATM    5  C   UNL     1     -11.734  11.276  69.995  1.00  0.00    -0.346 A  
HETATM    6  C   UNL     1     -11.627   9.870  70.099  1.00  0.00    -0.281 A  
HETATM    7  C   UNL     1     -12.291   9.121  71.082  1.00  0.00    -0.330 A  
HETATM    8  C   UNL     1     -13.059   9.759  72.038  1.00  0.00    -0.546 A  
HETATM    9  C   UNL     1     -13.153  11.143  72.002  1.00  0.00    -0.433 A  
HETATM   10  C   UNL     1     -12.509  11.895  70.998  1.00  0.00    -0.290 A  
HETATM   11  S   UNL     1     -12.770  13.641  71.120  1.00  0.00    -0.327 SA 
HETATM   12  C   UNL     1     -11.923  14.256  69.691  1.00  0.00    -0.336 A  
HETATM   13  C   UNL     1     -11.195  13.451  68.784  1.00  0.00    -0.275 A  
HETATM   14  C   UNL     1     -10.575  14.149  67.719  1.00  0.00    -0.243 A  
HETATM   15  C   UNL     1     -10.671  15.545  67.575  1.00  0.00    -0.300 A  
HETATM   16  C   UNL     1     -11.397  16.305  68.477  1.00  0.00    -0.330 A  
HETATM   17  C   UNL     1     -12.028  15.655  69.526  1.00  0.00    -0.363 A  
BRANCH  15  18
HETATM   18  S   UNL     1      -9.764  16.370  66.279  1.00  0.00    -0.328 S  
HETATM   19  O   UNL     1     -10.526  16.237  65.056  1.00  0.00    -0.621 OA 
HETATM   20  O   UNL     1      -8.392  15.903  66.356  1.00  0.00    -0.288 OA 
BRANCH  18  21
HETATM   21  N   UNL     1      -9.788  18.000  66.761  1.00  0.00    -0.318 N  
HETATM   22  C   UNL     1     -10.496  18.943  65.880  1.00  0.00    -0.391 C  
HETATM   23  C   UNL     1      -8.539  18.546  67.321  1.00  0.00    -0.262 C  
ENDBRANCH  18  21
ENDBRANCH  15  18
ENDBRANCH   3   4
ENDBRANCH   2   3
BRANCH   2  24
HETATM   24  N   UNL     1      -8.042   9.942  68.525  1.00  0.00    -0.099 NA 
HETATM   25  C   UNL     1      -8.053   9.768  69.993  1.00  0.00    -0.189 C  
HETATM   26  C   UNL     1      -8.682   8.747  67.959  1.00  0.00    -0.141 C  
ENDBRANCH   2  24
TORSDOF 5
ENDMDL
MODEL       18
REMARK 921   NORMALIZED FREE ENERGY PREDICTED BY IDOCK:   -5.84 KCAL/MOL
REMARK 922        TOTAL FREE ENERGY PREDICTED BY IDOCK:   -8.41 KCAL/MOL
REMARK 923 INTER-LIGAND FREE ENERGY PREDICTED BY IDOCK:   -7.66 KCAL/MOL
REMARK 924 INTRA-LIGAND FREE ENERGY PREDICTED BY IDOCK:   -0.76 KCAL/MOL
REMARK 927      BINDING AFFINITY PREDICTED BY RF-SCORE:    0.00 PKD
ROOT
HETATM    1  C   UNL     1     -12.129  13.691  70.628  1.00  0.00    -0.398 C  
HETATM    2  C   UNL     1     -11.428  13.597  69.247  1.00  0.00    -0.291 C  
ENDROOT
BRANCH   2   3
HETATM    3  C   UNL     1     -12.283  12.553  68.421  1.00  0.00     0.129 C  
BRANCH   3   4
HETATM    4  N   UNL     1     -11.575  11.640  67.482  1.00  0.00    -0.531 NA 
HETATM    5  C   UNL     1     -11.512  12.041  66.107  1.00  0.00    -0.339 A  
HETATM    6  C   UNL     1     -12.124  13.220  65.623  1.00  0.00    -0.488 A  
HETATM    7  C   UNL     1     -12.141  13.573  64.266  1.00  0.00    -0.482 A  
HETATM    8  C   UNL     1     -11.502  12.777  63.335  1.00  0.00    -0.454 A  
HETATM    9  C   UNL     1     -10.847  11.635  63.772  1.00  0.00    -0.493 A  
HETATM   10  C   UNL     1     -10.853  11.263  65.132  1.00  0.00    -0.200 A  
HETATM   11  S   UNL     1      -9.977   9.765  65.478  1.00  0.00    -0.157 SA 
HETATM   12  C   UNL     1     -10.257   9.549  67.214  1.00  0.00    -0.234 A  
HETATM   13  C   UNL     1     -10.969  10.459  68.028  1.00  0.00    -0.291 A  
HETATM   14  C   UNL     1     -11.057  10.105  69.398  1.00  0.00    -0.288 A  
HETATM   15  C   UNL     1     -10.474   8.933  69.912  1.00  0.00    -0.214 A  
HETATM   16  C   UNL     1      -9.787   8.058  69.086  1.00  0.00    -0.178 A  
HETATM   17  C   UNL     1      -9.690   8.366  67.738  1.00  0.00    -0.199 A  
BRANCH  15  18
HETATM   18  S   UNL     1     -10.521   8.612  71.666  1.00  0.00    -0.324 S  
HETATM   19  O   UNL     1     -11.728   9.214  72.190  1.00  0.00    -0.342 OA 
HETATM   20  O   UNL     1      -9.219   8.969  72.199  1.00  0.00    -0.365 OA 
BRANCH  18  21
HETATM   21  N   UNL     1     -10.673   6.921  71.751  1.00  0.00    -0.220 N  
HETATM   22  C   UNL     1     -12.031   6.386  71.944  1.00  0.00    -0.329 C  
HETATM   23  C   UNL     1      -9.644   6.199  72.519  1.00  0.00    -0.143 C  
ENDBRANCH  18  21
ENDBRANCH  15  18
ENDBRANCH   3   4
ENDBRANCH   2   3
BRANCH   2  24
HETATM   24  N   UNL     1     -11.167  14.981  68.736  1.00  0.00    -0.262 NA 
HETATM   25  C   UNL     1     -11.001  15.927  69.860  1.00  0.00    -0.343 C  
HETATM   26  C   UNL     1      -9.938  15.067  67.936  1.00  0.00    -0.222 C  
ENDBRANCH   2  24
TORSDOF 5
ENDMDL
MODEL       19
REMARK 921   NORMALIZED FREE ENERGY PREDICTED BY IDOCK:   -5.79 KCAL/MOL
REMARK 922        TOTAL FREE ENERGY PREDICTED BY IDOCK:   -8.34 KCAL/MOL
REMARK 923 INTER-LIGAND FREE ENERGY PREDICTED BY IDOCK:   -7.46 KCAL/MOL
REMARK 924 INTRA-LIGAND FREE ENERGY PREDICTED BY IDOCK:   -0.88 KCAL/MOL
REMARK 927      BINDING AFFINITY PREDICTED BY RF-SCORE:    0.00 PKD
ROOT
HETATM    1  C   UNL     1      -9.083  10.173  65.959  1.00  0.00    -0.185 C  
HETATM    2  C   UNL     1      -9.687  10.238  67.387  1.00  0.00    -0.160 C  
ENDROOT
BRANCH   2   3
HETATM    3  C   UNL     1     -11.089  10.951  67.210  1.00  0.00    -0.283 C  
BRANCH   3   4
HETATM    4  N   UNL     1     -11.361  12.185  67.997  1.00  0.00    -0.272 NA 
HETATM    5  C   UNL     1     -11.046  13.437  67.374  1.00  0.00    -0.278 A  
HETATM    6  C   UNL     1     -10.462  13.529  66.090  1.00  0.00    -0.296 A  
HETATM    7  C   UNL     1     -10.073  14.746  65.511  1.00  0.00    -0.409 A  
HETATM    8  C   UNL     1     -10.296  15.934  66.180  1.00  0.00    -0.341 A  
HETATM    9  C   UNL     1     -10.910  15.894  67.423  1.00  0.00    -0.291 A  
HETATM   10  C   UNL     1     -11.277  14.670  68.020  1.00  0.00    -0.293 A  
HETATM   11  S   UNL     1     -12.029  14.836  69.612  1.00  0.00    -0.314 SA 
HETATM   12  C   UNL     1     -12.271  13.150  70.100  1.00  0.00    -0.290 A  
HETATM   13  C   UNL     1     -11.958  12.032  69.294  1.00  0.00    -0.270 A  
HETATM   14  C   UNL     1     -12.252  10.771  69.868  1.00  0.00    -0.384 A  
HETATM   15  C   UNL     1     -12.819  10.640  71.149  1.00  0.00    -0.420 A  
HETATM   16  C   UNL     1     -13.109  11.756  71.916  1.00  0.00    -0.482 A  
HETATM   17  C   UNL     1     -12.824  13.007  71.392  1.00  0.00    -0.385 A  
BRANCH  15  18
HETATM   18  S   UNL     1     -13.274   9.026  71.759  1.00  0.00    -0.414 S  
HETATM   19  O   UNL     1     -14.324   8.514  70.905  1.00  0.00    -0.089 OA 
HETATM   20  O   UNL     1     -13.474   9.153  73.190  1.00  0.00    -0.183 OA 
BRANCH  18  21
HETATM   21  N   UNL     1     -11.869   8.103  71.508  1.00  0.00    -0.283 N  
HETATM   22  C   UNL     1     -12.007   6.895  70.677  1.00  0.00    -0.348 C  
HETATM   23  C   UNL     1     -10.980   7.916  72.669  1.00  0.00    -0.378 C  
ENDBRANCH  18  21
ENDBRANCH  15  18
ENDBRANCH   3   4
ENDBRANCH   2   3
BRANCH   2  24
HETATM   24  N   UNL     1      -9.565   8.890  68.031  1.00  0.00    -0.146 NA 
HETATM   25  C   UNL     1      -8.624   8.037  67.274  1.00  0.00    -0.124 C  
HETATM   26  C   UNL     1      -9.048   8.963  69.403  1.00  0.00    -0.145 C  
ENDBRANCH   2  24
TORSDOF 5
ENDMDL
MODEL       20
REMARK 921   NORMALIZED FREE ENERGY PREDICTED BY IDOCK:   -5.73 KCAL/MOL
REMARK 922        TOTAL FREE ENERGY PREDICTED BY IDOCK:   -8.27 KCAL/MOL
REMARK 923 INTER-LIGAND FREE ENERGY PREDICTED BY IDOCK:   -7.83 KCAL/MOL
REMARK 924 INTRA-LIGAND FREE ENERGY PREDICTED BY IDOCK:   -0.44 KCAL/MOL
REMARK 927      BINDING AFFINITY PREDICTED BY RF-SCORE:    0.00 PKD
ROOT
HETATM    1  C   UNL     1     -10.151  17.364  69.009  1.00  0.00    -0.295 C  
HETATM    2  C   UNL     1     -10.116  16.089  68.124  1.00  0.00    -0.234 C  
ENDROOT
BRANCH   2   3
HETATM    3  C   UNL     1     -11.586  15.505  68.187  1.00  0.00    -0.304 C  
BRANCH   3   4
HETATM    4  N   UNL     1     -11.813  14.237  68.934  1.00  0.00    -0.325 NA 
HETATM    5  C   UNL     1     -12.367  14.348  70.251  1.00  0.00    -0.348 A  
HETATM    6  C   UNL     1     -12.654  15.592  70.860  1.00  0.00    -0.512 A  
HETATM    7  C   UNL     1     -13.113  15.710  72.180  1.00  0.00    -0.540 A  
HETATM    8  C   UNL     1     -13.351  14.578  72.935  1.00  0.00    -0.579 A  
HETATM    9  C   UNL     1     -13.129  13.335  72.361  1.00  0.00    -0.443 A  
HETATM   10  C   UNL     1     -12.639  13.213  71.044  1.00  0.00    -0.312 A  
HETATM   11  S   UNL     1     -12.407  11.544  70.507  1.00  0.00    -0.312 SA 
HETATM   12  C   UNL     1     -11.714  11.753  68.890  1.00  0.00    -0.323 A  
HETATM   13  C   UNL     1     -11.508  13.004  68.265  1.00  0.00    -0.312 A  
HETATM   14  C   UNL     1     -10.962  12.945  66.959  1.00  0.00    -0.290 A  
HETATM   15  C   UNL     1     -10.650  11.727  66.327  1.00  0.00    -0.252 A  
HETATM   16  C   UNL     1     -10.859  10.518  66.970  1.00  0.00    -0.288 A  
HETATM   17  C   UNL     1     -11.382  10.537  68.253  1.00  0.00    -0.332 A  
BRANCH  15  18
HETATM   18  S   UNL     1     -10.079  11.724  64.637  1.00  0.00    -0.270 S  
HETATM   19  O   UNL     1      -9.683  13.075  64.305  1.00  0.00    -0.059 OA 
HETATM   20  O   UNL     1     -11.080  11.027  63.850  1.00  0.00    -0.236 OA 
BRANCH  18  21
HETATM   21  N   UNL     1      -8.690  10.746  64.696  1.00  0.00    -0.142 N  
HETATM   22  C   UNL     1      -8.822   9.372  64.185  1.00  0.00    -0.182 C  
HETATM   23  C   UNL     1      -7.860  10.842  65.910  1.00  0.00    -0.090 C  
ENDBRANCH  18  21
ENDBRANCH  15  18
ENDBRANCH   3   4
ENDBRANCH   2   3
BRANCH   2  24
HETATM   24  N   UNL     1      -9.454  16.417  66.821  1.00  0.00    -0.236 NA 
HETATM   25  C   UNL     1     -10.435  16.374  65.715  1.00  0.00    -0.354 C  
HETATM   26  C   UNL     1      -8.870  17.765  66.807  1.00  0.00    -0.260 C  
ENDBRANCH   2  24
TORSDOF 5
ENDMDL
MODEL       21
REMARK 921   NORMALIZED FREE ENERGY PREDICTED BY IDOCK:   -5.67 KCAL/MOL
REMARK 922        TOTAL FREE ENERGY PREDICTED BY IDOCK:   -8.19 KCAL/MOL
REMARK 923 INTER-LIGAND FREE ENERGY PREDICTED BY IDOCK:   -7.30 KCAL/MOL
REMARK 924 INTRA-LIGAND FREE ENERGY PREDICTED BY IDOCK:   -0.89 KCAL/MOL
REMARK 927      BINDING AFFINITY PREDICTED BY RF-SCORE:    0.00 PKD
ROOT
HETATM    1  C   UNL     1      -8.511   6.790  65.879  1.00  0.00    -0.146 C  
HETATM    2  C   UNL     1      -8.897   8.209  66.371  1.00  0.00    -0.155 C  
ENDROOT
BRANCH   2   3
HETATM    3  C   UNL     1     -10.399   8.084  66.854  1.00  0.00    -0.338 C  
BRANCH   3   4
HETATM    4  N   UNL     1     -10.759   8.614  68.197  1.00  0.00    -0.120 NA 
HETATM    5  C   UNL     1     -10.695   7.698  69.298  1.00  0.00    -0.161 A  
HETATM    6  C   UNL     1     -10.352   6.334  69.142  1.00  0.00    -0.262 A  
HETATM    7  C   UNL     1     -10.371   5.414  70.199  1.00  0.00    -0.361 A  
HETATM    8  C   UNL     1     -10.692   5.832  71.477  1.00  0.00    -0.319 A  
HETATM    9  C   UNL     1     -10.989   7.171  71.685  1.00  0.00    -0.255 A  
HETATM   10  C   UNL     1     -10.998   8.094  70.618  1.00  0.00    -0.244 A  
HETATM   11  S   UNL     1     -11.419   9.746  71.090  1.00  0.00    -0.402 SA 
HETATM   12  C   UNL     1     -11.427  10.599  69.538  1.00  0.00    -0.291 A  
HETATM   13  C   UNL     1     -11.095  10.006  68.298  1.00  0.00    -0.190 A  
HETATM   14  C   UNL     1     -11.145  10.874  67.179  1.00  0.00    -0.308 A  
HETATM   15  C   UNL     1     -11.496  12.232  67.294  1.00  0.00    -0.357 A  
HETATM   16  C   UNL     1     -11.821  12.781  68.524  1.00  0.00    -0.345 A  
HETATM   17  C   UNL     1     -11.795  11.959  69.639  1.00  0.00    -0.406 A  
BRANCH  15  18
HETATM   18  S   UNL     1     -11.420  13.294  65.863  1.00  0.00    -0.345 S  
HETATM   19  O   UNL     1     -10.139  13.968  65.884  1.00  0.00    -0.300 OA 
HETATM   20  O   UNL     1     -12.658  14.049  65.826  1.00  0.00    -0.491 OA 
BRANCH  18  21
HETATM   21  N   UNL     1     -11.438  12.199  64.562  1.00  0.00    -0.327 N  
HETATM   22  C   UNL     1     -10.181  12.036  63.813  1.00  0.00    -0.422 C  
HETATM   23  C   UNL     1     -12.635  12.209  63.703  1.00  0.00    -0.504 C  
ENDBRANCH  18  21
ENDBRANCH  15  18
ENDBRANCH   3   4
ENDBRANCH   2   3
BRANCH   2  24
HETATM   24  N   UNL     1      -7.819   8.722  67.278  1.00  0.00    -0.097 NA 
HETATM   25  C   UNL     1      -6.642   7.829  67.241  1.00  0.00    -0.063 C  
HETATM   26  C   UNL     1      -7.342  10.056  66.890  1.00  0.00    -0.092 C  
ENDBRANCH   2  24
TORSDOF 5
ENDMDL
MODEL       22
REMARK 921   NORMALIZED FREE ENERGY PREDICTED BY IDOCK:   -5.65 KCAL/MOL
REMARK 922        TOTAL FREE ENERGY PREDICTED BY IDOCK:   -8.16 KCAL/MOL
REMARK 923 INTER-LIGAND FREE ENERGY PREDICTED BY IDOCK:   -7.51 KCAL/MOL
REMARK 924 INTRA-LIGAND FREE ENERGY PREDICTED BY IDOCK:   -0.65 KCAL/MOL
REMARK 927      BINDING AFFINITY PREDICTED BY RF-SCORE:    0.00 PKD
ROOT
HETATM    1  C   UNL     1     -10.398   7.618  66.695  1.00  0.00    -0.258 C  
HETATM    2  C   UNL     1     -10.088   9.132  66.828  1.00  0.00    -0.271 C  
ENDROOT
BRANCH   2   3
HETATM    3  C   UNL     1      -9.646   9.333  68.334  1.00  0.00    -0.147 C  
BRANCH   3   4
HETATM    4  N   UNL     1     -10.670   9.774  69.320  1.00  0.00    -0.218 NA 
HETATM    5  C   UNL     1     -11.161   8.786  70.236  1.00  0.00    -0.222 A  
HETATM    6  C   UNL     1     -10.744   7.435  70.202  1.00  0.00    -0.254 A  
HETATM    7  C   UNL     1     -11.284   6.445  71.037  1.00  0.00    -0.370 A  
HETATM    8  C   UNL     1     -12.237   6.779  71.980  1.00  0.00    -0.331 A  
HETATM    9  C   UNL     1     -12.640   8.103  72.081  1.00  0.00    -0.349 A  
HETATM   10  C   UNL     1     -12.120   9.094  71.223  1.00  0.00    -0.323 A  
HETATM   11  S   UNL     1     -12.777  10.713  71.503  1.00  0.00    -0.441 SA 
HETATM   12  C   UNL     1     -12.001  11.668  70.228  1.00  0.00    -0.358 A  
HETATM   13  C   UNL     1     -11.053  11.157  69.313  1.00  0.00    -0.259 A  
HETATM   14  C   UNL     1     -10.539  12.099  68.386  1.00  0.00    -0.243 A  
HETATM   15  C   UNL     1     -10.940  13.447  68.381  1.00  0.00    -0.267 A  
HETATM   16  C   UNL     1     -11.877  13.914  69.289  1.00  0.00    -0.394 A  
HETATM   17  C   UNL     1     -12.411  13.019  70.202  1.00  0.00    -0.270 A  
BRANCH  15  18
HETATM   18  S   UNL     1     -10.162  14.602  67.266  1.00  0.00    -0.241 S  
HETATM   19  O   UNL     1      -9.043  13.926  66.645  1.00  0.00    -0.247 OA 
HETATM   20  O   UNL     1      -9.970  15.839  68.000  1.00  0.00    -0.220 OA 
BRANCH  18  21
HETATM   21  N   UNL     1     -11.357  14.874  66.088  1.00  0.00    -0.335 N  
HETATM   22  C   UNL     1     -12.130  13.703  65.643  1.00  0.00    -0.425 C  
HETATM   23  C   UNL     1     -11.012  15.798  64.993  1.00  0.00    -0.417 C  
ENDBRANCH  18  21
ENDBRANCH  15  18
ENDBRANCH   3   4
ENDBRANCH   2   3
BRANCH   2  24
HETATM   24  N   UNL     1      -9.211   9.553  65.687  1.00  0.00    -0.205 NA 
HETATM   25  C   UNL     1      -9.984  10.335  64.699  1.00  0.00    -0.307 C  
HETATM   26  C   UNL     1      -8.097  10.408  66.116  1.00  0.00    -0.139 C  
ENDBRANCH   2  24
TORSDOF 5
ENDMDL
MODEL       23
REMARK 921   NORMALIZED FREE ENERGY PREDICTED BY IDOCK:   -5.64 KCAL/MOL
REMARK 922        TOTAL FREE ENERGY PREDICTED BY IDOCK:   -8.15 KCAL/MOL
REMARK 923 INTER-LIGAND FREE ENERGY PREDICTED BY IDOCK:   -7.53 KCAL/MOL
REMARK 924 INTRA-LIGAND FREE ENERGY PREDICTED BY IDOCK:   -0.62 KCAL/MOL
REMARK 927      BINDING AFFINITY PREDICTED BY RF-SCORE:    0.00 PKD
ROOT
HETATM    1  C   UNL     1     -12.273  14.786  64.385  1.00  0.00    -0.447 C  
HETATM    2  C   UNL     1     -11.228  13.642  64.459  1.00  0.00    -0.382 C  
ENDROOT
BRANCH   2   3
HETATM    3  C   UNL     1     -11.202  13.204  65.980  1.00  0.00    -0.292 C  
BRANCH   3   4
HETATM    4  N   UNL     1      -9.886  12.911  66.611  1.00  0.00    -0.244 NA 
HETATM    5  C   UNL     1      -9.587  11.535  66.883  1.00  0.00    -0.187 A  
HETATM    6  C   UNL     1     -10.497  10.486  66.618  1.00  0.00    -0.290 A  
HETATM    7  C   UNL     1     -10.246   9.149  66.962  1.00  0.00    -0.333 A  
HETATM    8  C   UNL     1      -9.044   8.799  67.548  1.00  0.00    -0.146 A  
HETATM    9  C   UNL     1      -8.102   9.790  67.782  1.00  0.00    -0.113 A  
HETATM   10  C   UNL     1      -8.364  11.139  67.464  1.00  0.00    -0.122 A  
HETATM   11  S   UNL     1      -7.042  12.247  67.858  1.00  0.00    -0.119 SA 
HETATM   12  C   UNL     1      -7.723  13.825  67.428  1.00  0.00    -0.143 A  
HETATM   13  C   UNL     1      -9.001  14.014  66.854  1.00  0.00    -0.227 A  
HETATM   14  C   UNL     1      -9.341  15.359  66.566  1.00  0.00    -0.311 A  
HETATM   15  C   UNL     1      -8.469  16.430  66.830  1.00  0.00    -0.244 A  
HETATM   16  C   UNL     1      -7.225  16.211  67.398  1.00  0.00    -0.213 A  
HETATM   17  C   UNL     1      -6.861  14.909  67.704  1.00  0.00    -0.204 A  
BRANCH  15  18
HETATM   18  S   UNL     1      -8.915  18.084  66.330  1.00  0.00    -0.185 S  
HETATM   19  O   UNL     1     -10.152  17.999  65.584  1.00  0.00    -0.551 OA 
HETATM   20  O   UNL     1      -7.732  18.686  65.743  1.00  0.00    -0.491 OA 
BRANCH  18  21
HETATM   21  N   UNL     1      -9.221  18.869  67.806  1.00  0.00    -0.290 N  
HETATM   22  C   UNL     1      -8.077  19.532  68.456  1.00  0.00    -0.341 C  
HETATM   23  C   UNL     1     -10.113  18.179  68.754  1.00  0.00    -0.376 C  
ENDBRANCH  18  21
ENDBRANCH  15  18
ENDBRANCH   3   4
ENDBRANCH   2   3
BRANCH   2  24
HETATM   24  N   UNL     1     -11.502  12.659  63.362  1.00  0.00    -0.488 NA 
HETATM   25  C   UNL     1     -10.377  11.710  63.221  1.00  0.00    -0.398 C  
HETATM   26  C   UNL     1     -12.700  11.848  63.615  1.00  0.00    -0.390 C  
ENDBRANCH   2  24
TORSDOF 5
ENDMDL
MODEL       24
REMARK 921   NORMALIZED FREE ENERGY PREDICTED BY IDOCK:   -5.56 KCAL/MOL
REMARK 922        TOTAL FREE ENERGY PREDICTED BY IDOCK:   -8.05 KCAL/MOL
REMARK 923 INTER-LIGAND FREE ENERGY PREDICTED BY IDOCK:   -7.56 KCAL/MOL
REMARK 924 INTRA-LIGAND FREE ENERGY PREDICTED BY IDOCK:   -0.49 KCAL/MOL
REMARK 927      BINDING AFFINITY PREDICTED BY RF-SCORE:    0.00 PKD
ROOT
HETATM    1  C   UNL     1     -12.855  13.204  71.351  1.00  0.00    -0.401 C  
HETATM    2  C   UNL     1     -12.082  14.432  70.801  1.00  0.00    -0.338 C  
ENDROOT
BRANCH   2   3
HETATM    3  C   UNL     1     -11.944  14.168  69.246  1.00  0.00    -0.340 C  
BRANCH   3   4
HETATM    4  N   UNL     1     -10.654  13.633  68.730  1.00  0.00    -0.249 NA 
HETATM    5  C   UNL     1     -10.554  12.211  68.577  1.00  0.00    -0.233 A  
HETATM    6  C   UNL     1     -11.598  11.326  68.933  1.00  0.00    -0.386 A  
HETATM    7  C   UNL     1     -11.475   9.930  68.867  1.00  0.00     0.022 A  
HETATM    8  C   UNL     1     -10.308   9.359  68.395  1.00  0.00    -0.238 A  
HETATM    9  C   UNL     1      -9.275  10.191  67.990  1.00  0.00    -0.142 A  
HETATM   10  C   UNL     1      -9.386  11.594  68.081  1.00  0.00    -0.188 A  
HETATM   11  S   UNL     1      -7.952  12.473  67.531  1.00  0.00    -0.187 SA 
HETATM   12  C   UNL     1      -8.384  14.159  67.862  1.00  0.00    -0.162 A  
HETATM   13  C   UNL     1      -9.631  14.577  68.381  1.00  0.00    -0.213 A  
HETATM   14  C   UNL     1      -9.777  15.976  68.550  1.00  0.00    -0.214 A  
HETATM   15  C   UNL     1      -8.755  16.886  68.221  1.00  0.00    -0.235 A  
HETATM   16  C   UNL     1      -7.542  16.442  67.720  1.00  0.00    -0.160 A  
HETATM   17  C   UNL     1      -7.358  15.079  67.552  1.00  0.00    -0.228 A  
BRANCH  15  18
HETATM   18  S   UNL     1      -9.053  18.640  68.346  1.00  0.00    -0.331 S  
HETATM   19  O   UNL     1      -7.879  19.243  68.940  1.00  0.00    -0.351 OA 
HETATM   20  O   UNL     1     -10.362  18.809  68.948  1.00  0.00    -0.289 OA 
BRANCH  18  21
HETATM   21  N   UNL     1      -9.158  19.136  66.723  1.00  0.00    -0.305 N  
HETATM   22  C   UNL     1      -7.987  19.831  66.164  1.00  0.00    -0.340 C  
HETATM   23  C   UNL     1     -10.443  19.707  66.284  1.00  0.00    -0.519 C  
ENDBRANCH  18  21
ENDBRANCH  15  18
ENDBRANCH   3   4
ENDBRANCH   2   3
BRANCH   2  24
HETATM   24  N   UNL     1     -12.709  15.684  71.334  1.00  0.00    -0.449 NA 
HETATM   25  C   UNL     1     -14.108  15.431  71.740  1.00  0.00    -0.527 C  
HETATM   26  C   UNL     1     -12.018  16.200  72.523  1.00  0.00    -0.561 C  
ENDBRANCH   2  24
TORSDOF 5
ENDMDL
MODEL       25
REMARK 921   NORMALIZED FREE ENERGY PREDICTED BY IDOCK:   -5.55 KCAL/MOL
REMARK 922        TOTAL FREE ENERGY PREDICTED BY IDOCK:   -8.04 KCAL/MOL
REMARK 923 INTER-LIGAND FREE ENERGY PREDICTED BY IDOCK:   -7.38 KCAL/MOL
REMARK 924 INTRA-LIGAND FREE ENERGY PREDICTED BY IDOCK:   -0.66 KCAL/MOL
REMARK 927      BINDING AFFINITY PREDICTED BY RF-SCORE:    0.00 PKD
ROOT
HETATM    1  C   UNL     1     -10.395  10.912  65.439  1.00  0.00    -0.326 C  
HETATM    2  C   UNL     1     -11.144  11.517  66.656  1.00  0.00    -0.295 C  
ENDROOT
BRANCH   2   3
HETATM    3  C   UNL     1     -10.252  11.152  67.912  1.00  0.00    -0.180 C  
BRANCH   3   4
HETATM    4  N   UNL     1     -10.793  10.187  68.909  1.00  0.00    -0.215 NA 
HETATM    5  C   UNL     1     -10.397   8.816  68.769  1.00  0.00    -0.213 A  
HETATM    6  C   UNL     1      -9.568   8.361  67.718  1.00  0.00    -0.185 A  
HETATM    7  C   UNL     1      -9.248   7.009  67.526  1.00  0.00    -0.128 A  
HETATM    8  C   UNL     1      -9.710   6.055  68.412  1.00  0.00    -0.142 A  
HETATM    9  C   UNL     1     -10.488   6.463  69.485  1.00  0.00    -0.279 A  
HETATM   10  C   UNL     1     -10.835   7.818  69.665  1.00  0.00    -0.184 A  
HETATM   11  S   UNL     1     -11.846   8.126  71.083  1.00  0.00    -0.257 SA 
HETATM   12  C   UNL     1     -12.164   9.865  70.958  1.00  0.00    -0.353 A  
HETATM   13  C   UNL     1     -11.626  10.705  69.956  1.00  0.00    -0.325 A  
HETATM   14  C   UNL     1     -11.990  12.071  70.053  1.00  0.00    -0.400 A  
HETATM   15  C   UNL     1     -12.825  12.558  71.076  1.00  0.00    -0.157 A  
HETATM   16  C   UNL     1     -13.340  11.706  72.039  1.00  0.00    -0.405 A  
HETATM   17  C   UNL     1     -13.015  10.361  71.970  1.00  0.00    -0.499 A  
BRANCH  15  18
HETATM   18  S   UNL     1     -13.143  14.309  71.206  1.00  0.00    -0.352 S  
HETATM   19  O   UNL     1     -14.370  14.477  71.954  1.00  0.00    -0.486 OA 
HETATM   20  O   UNL     1     -13.000  14.868  69.875  1.00  0.00    -0.089 OA 
BRANCH  18  21
HETATM   21  N   UNL     1     -11.846  14.872  72.150  1.00  0.00    -0.346 N  
HETATM   22  C   UNL     1     -12.179  15.418  73.477  1.00  0.00    -0.532 C  
HETATM   23  C   UNL     1     -10.796  15.633  71.451  1.00  0.00     0.091 C  
ENDBRANCH  18  21
ENDBRANCH  15  18
ENDBRANCH   3   4
ENDBRANCH   2   3
BRANCH   2  24
HETATM   24  N   UNL     1     -11.521  12.933  66.343  1.00  0.00    -0.323 NA 
HETATM   25  C   UNL     1     -10.329  13.711  65.941  1.00  0.00    -0.301 C  
HETATM   26  C   UNL     1     -12.477  13.031  65.233  1.00  0.00    -0.499 C  
ENDBRANCH   2  24
TORSDOF 5
ENDMDL
MODEL       26
REMARK 921   NORMALIZED FREE ENERGY PREDICTED BY IDOCK:   -5.51 KCAL/MOL
REMARK 922        TOTAL FREE ENERGY PREDICTED BY IDOCK:   -7.98 KCAL/MOL
REMARK 923 INTER-LIGAND FREE ENERGY PREDICTED BY IDOCK:   -7.72 KCAL/MOL
REMARK 924 INTRA-LIGAND FREE ENERGY PREDICTED BY IDOCK:   -0.26 KCAL/MOL
REMARK 927      BINDING AFFINITY PREDICTED BY RF-SCORE:    0.00 PKD
ROOT
HETATM    1  C   UNL     1     -12.469  13.685  70.699  1.00  0.00    -0.417 C  
HETATM    2  C   UNL     1     -11.920  15.135  70.735  1.00  0.00    -0.327 C  
ENDROOT
BRANCH   2   3
HETATM    3  C   UNL     1     -11.746  15.549  69.217  1.00  0.00    -0.365 C  
BRANCH   3   4
HETATM    4  N   UNL     1     -10.373  15.584  68.645  1.00  0.00    -0.214 NA 
HETATM    5  C   UNL     1      -9.747  16.869  68.532  1.00  0.00    -0.264 A  
HETATM    6  C   UNL     1     -10.395  18.072  68.896  1.00  0.00    -0.244 A  
HETATM    7  C   UNL     1      -9.823  19.338  68.706  1.00  0.00    -0.514 A  
HETATM    8  C   UNL     1      -8.548  19.451  68.183  1.00  0.00    -0.374 A  
HETATM    9  C   UNL     1      -7.857  18.294  67.856  1.00  0.00    -0.255 A  
HETATM   10  C   UNL     1      -8.442  17.020  68.019  1.00  0.00    -0.216 A  
HETATM   11  S   UNL     1      -7.402  15.676  67.527  1.00  0.00    -0.204 SA 
HETATM   12  C   UNL     1      -8.452  14.270  67.768  1.00  0.00    -0.176 A  
HETATM   13  C   UNL     1      -9.762  14.332  68.297  1.00  0.00    -0.221 A  
HETATM   14  C   UNL     1     -10.421  13.085  68.428  1.00  0.00    -0.261 A  
HETATM   15  C   UNL     1      -9.814  11.870  68.062  1.00  0.00    -0.190 A  
HETATM   16  C   UNL     1      -8.531  11.844  67.542  1.00  0.00    -0.161 A  
HETATM   17  C   UNL     1      -7.859  13.046  67.388  1.00  0.00    -0.166 A  
BRANCH  15  18
HETATM   18  S   UNL     1     -10.657  10.327  68.368  1.00  0.00    -0.232 S  
HETATM   19  O   UNL     1     -10.076   9.329  67.496  1.00  0.00    -0.189 OA 
HETATM   20  O   UNL     1     -12.081  10.606  68.335  1.00  0.00    -0.423 OA 
BRANCH  18  21
HETATM   21  N   UNL     1     -10.235   9.962  69.974  1.00  0.00    -0.259 N  
HETATM   22  C   UNL     1      -9.203   8.930  70.171  1.00  0.00    -0.180 C  
HETATM   23  C   UNL     1     -11.336   9.883  70.949  1.00  0.00    -0.370 C  
ENDBRANCH  18  21
ENDBRANCH  15  18
ENDBRANCH   3   4
ENDBRANCH   2   3
BRANCH   2  24
HETATM   24  N   UNL     1     -12.750  15.948  71.683  1.00  0.00    -0.446 NA 
HETATM   25  C   UNL     1     -13.948  15.191  72.104  1.00  0.00    -0.533 C  
HETATM   26  C   UNL     1     -12.025  16.297  72.911  1.00  0.00    -0.516 C  
ENDBRANCH   2  24
TORSDOF 5
ENDMDL
MODEL       27
REMARK 921   NORMALIZED FREE ENERGY PREDICTED BY IDOCK:   -5.46 KCAL/MOL
REMARK 922        TOTAL FREE ENERGY PREDICTED BY IDOCK:   -7.92 KCAL/MOL
REMARK 923 INTER-LIGAND FREE ENERGY PREDICTED BY IDOCK:   -7.25 KCAL/MOL
REMARK 924 INTRA-LIGAND FREE ENERGY PREDICTED BY IDOCK:   -0.67 KCAL/MOL
REMARK 927      BINDING AFFINITY PREDICTED BY RF-SCORE:    0.00 PKD
ROOT
HETATM    1  C   UNL     1     -10.148  16.219  67.140  1.00  0.00    -0.268 C  
HETATM    2  C   UNL     1     -10.154  15.204  68.313  1.00  0.00    -0.223 C  
ENDROOT
BRANCH   2   3
HETATM    3  C   UNL     1     -11.403  14.269  68.043  1.00  0.00    -0.294 C  
BRANCH   3   4
HETATM    4  N   UNL     1     -11.754  13.244  69.064  1.00  0.00    -0.302 NA 
HETATM    5  C   UNL     1     -12.496  13.691  70.207  1.00  0.00    -0.265 A  
HETATM    6  C   UNL     1     -12.853  15.045  70.407  1.00  0.00    -0.332 A  
HETATM    7  C   UNL     1     -13.502  15.502  71.563  1.00  0.00    -0.582 A  
HETATM    8  C   UNL     1     -13.864  14.609  72.555  1.00  0.00    -0.561 A  
HETATM    9  C   UNL     1     -13.575  13.264  72.378  1.00  0.00    -0.694 A  
HETATM   10  C   UNL     1     -12.897  12.806  71.229  1.00  0.00    -0.262 A  
HETATM   11  S   UNL     1     -12.609  11.060  71.205  1.00  0.00    -0.408 SA 
HETATM   12  C   UNL     1     -11.682  10.844  69.711  1.00  0.00    -0.338 A  
HETATM   13  C   UNL     1     -11.370  11.885  68.807  1.00  0.00    -0.274 A  
HETATM   14  C   UNL     1     -10.636  11.491  67.660  1.00  0.00    -0.235 A  
HETATM   15  C   UNL     1     -10.250  10.158  67.435  1.00  0.00    -0.218 A  
HETATM   16  C   UNL     1     -10.568   9.161  68.343  1.00  0.00    -0.217 A  
HETATM   17  C   UNL     1     -11.274   9.511  69.483  1.00  0.00    -0.105 A  
BRANCH  15  18
HETATM   18  S   UNL     1      -9.435   9.714  65.911  1.00  0.00    -0.255 S  
HETATM   19  O   UNL     1     -10.176  10.318  64.825  1.00  0.00    -0.329 OA 
HETATM   20  O   UNL     1      -9.209   8.281  65.951  1.00  0.00    -0.181 OA 
BRANCH  18  21
HETATM   21  N   UNL     1      -7.925  10.484  66.037  1.00  0.00    -0.145 N  
HETATM   22  C   UNL     1      -6.967  10.251  64.942  1.00  0.00    -0.101 C  
HETATM   23  C   UNL     1      -7.297  10.503  67.370  1.00  0.00    -0.093 C  
ENDBRANCH  18  21
ENDBRANCH  15  18
ENDBRANCH   3   4
ENDBRANCH   2   3
BRANCH   2  24
HETATM   24  N   UNL     1      -8.774  14.646  68.484  1.00  0.00    -0.172 NA 
HETATM   25  C   UNL     1      -8.169  14.348  67.168  1.00  0.00    -0.178 C  
HETATM   26  C   UNL     1      -7.865  15.581  69.158  1.00  0.00    -0.215 C  
ENDBRANCH   2  24
TORSDOF 5
ENDMDL
MODEL       28
REMARK 921   NORMALIZED FREE ENERGY PREDICTED BY IDOCK:   -5.45 KCAL/MOL
REMARK 922        TOTAL FREE ENERGY PREDICTED BY IDOCK:   -7.91 KCAL/MOL
REMARK 923 INTER-LIGAND FREE ENERGY PREDICTED BY IDOCK:   -7.55 KCAL/MOL
REMARK 924 INTRA-LIGAND FREE ENERGY PREDICTED BY IDOCK:   -0.35 KCAL/MOL
REMARK 927      BINDING AFFINITY PREDICTED BY RF-SCORE:    0.00 PKD
ROOT
HETATM    1  C   UNL     1     -11.820  16.202  71.223  1.00  0.00    -0.458 C  
HETATM    2  C   UNL     1     -12.324  14.978  70.414  1.00  0.00    -0.348 C  
ENDROOT
BRANCH   2   3
HETATM    3  C   UNL     1     -11.041  14.082  70.178  1.00  0.00     0.158 C  
BRANCH   3   4
HETATM    4  N   UNL     1     -10.894  13.385  68.871  1.00  0.00    -0.242 NA 
HETATM    5  C   UNL     1     -11.006  11.956  68.879  1.00  0.00    -0.238 A  
HETATM    6  C   UNL     1     -11.202  11.209  70.063  1.00  0.00    -0.261 A  
HETATM    7  C   UNL     1     -11.226   9.807  70.090  1.00  0.00    -0.324 A  
HETATM    8  C   UNL     1     -11.099   9.089  68.915  1.00  0.00     0.125 A  
HETATM    9  C   UNL     1     -10.952   9.783  67.723  1.00  0.00    -0.242 A  
HETATM   10  C   UNL     1     -10.899  11.193  67.697  1.00  0.00    -0.247 A  
HETATM   11  S   UNL     1     -10.690  11.881  66.081  1.00  0.00    -0.289 SA 
HETATM   12  C   UNL     1     -10.574  13.617  66.416  1.00  0.00    -0.284 A  
HETATM   13  C   UNL     1     -10.700  14.193  67.700  1.00  0.00    -0.257 A  
HETATM   14  C   UNL     1     -10.596  15.606  67.743  1.00  0.00    -0.281 A  
HETATM   15  C   UNL     1     -10.387  16.381  66.587  1.00  0.00    -0.292 A  
HETATM   16  C   UNL     1     -10.261  15.784  65.344  1.00  0.00    -0.380 A  
HETATM   17  C   UNL     1     -10.346  14.403  65.265  1.00  0.00    -0.427 A  
BRANCH  15  18
HETATM   18  S   UNL     1     -10.387  18.162  66.699  1.00  0.00    -0.361 S  
HETATM   19  O   UNL     1     -11.096  18.525  67.907  1.00  0.00    -0.184 OA 
HETATM   20  O   UNL     1     -10.810  18.669  65.407  1.00  0.00    -0.569 OA 
BRANCH  18  21
HETATM   21  N   UNL     1      -8.742  18.542  66.896  1.00  0.00    -0.277 N  
HETATM   22  C   UNL     1      -8.181  18.383  68.247  1.00  0.00    -0.299 C  
HETATM   23  C   UNL     1      -8.249  19.740  66.194  1.00  0.00    -0.344 C  
ENDBRANCH  18  21
ENDBRANCH  15  18
ENDBRANCH   3   4
ENDBRANCH   2   3
BRANCH   2  24
HETATM   24  N   UNL     1     -13.555  14.432  71.071  1.00  0.00    -0.282 NA 
HETATM   25  C   UNL     1     -13.246  13.180  71.794  1.00  0.00    -0.403 C  
HETATM   26  C   UNL     1     -14.124  15.355  72.062  1.00  0.00    -0.549 C  
ENDBRANCH   2  24
TORSDOF 5
ENDMDL
MODEL       29
REMARK 921   NORMALIZED FREE ENERGY PREDICTED BY IDOCK:   -5.44 KCAL/MOL
REMARK 922        TOTAL FREE ENERGY PREDICTED BY IDOCK:   -7.89 KCAL/MOL
REMARK 923 INTER-LIGAND FREE ENERGY PREDICTED BY IDOCK:   -7.14 KCAL/MOL
REMARK 924 INTRA-LIGAND FREE ENERGY PREDICTED BY IDOCK:   -0.75 KCAL/MOL
REMARK 927      BINDING AFFINITY PREDICTED BY RF-SCORE:    0.00 PKD
ROOT
HETATM    1  C   UNL     1     -12.488  13.627  71.188  1.00  0.00    -0.442 C  
HETATM    2  C   UNL     1     -11.561  13.129  70.048  1.00  0.00    -0.131 C  
ENDROOT
BRANCH   2   3
HETATM    3  C   UNL     1     -12.348  11.934  69.369  1.00  0.00     0.003 C  
BRANCH   3   4
HETATM    4  N   UNL     1     -11.624  10.658  69.123  1.00  0.00    -0.280 NA 
HETATM    5  C   UNL     1     -11.693   9.661  70.151  1.00  0.00    -0.089 A  
HETATM    6  C   UNL     1     -12.373   9.866  71.373  1.00  0.00    -0.498 A  
HETATM    7  C   UNL     1     -12.372   8.929  72.417  1.00  0.00    -0.385 A  
HETATM    8  C   UNL     1     -11.723   7.719  72.261  1.00  0.00    -0.390 A  
HETATM    9  C   UNL     1     -11.083   7.456  71.059  1.00  0.00    -0.277 A  
HETATM   10  C   UNL     1     -11.058   8.408  70.019  1.00  0.00    -0.148 A  
HETATM   11  S   UNL     1     -10.175   7.885  68.578  1.00  0.00    -0.203 SA 
HETATM   12  C   UNL     1     -10.260   9.315  67.536  1.00  0.00    -0.242 A  
HETATM   13  C   UNL     1     -10.954  10.502  67.863  1.00  0.00    -0.295 A  
HETATM   14  C   UNL     1     -10.913  11.519  66.876  1.00  0.00    -0.350 A  
HETATM   15  C   UNL     1     -10.234  11.356  65.655  1.00  0.00    -0.251 A  
HETATM   16  C   UNL     1      -9.559  10.181  65.367  1.00  0.00    -0.325 A  
HETATM   17  C   UNL     1      -9.567   9.169  66.314  1.00  0.00    -0.321 A  
BRANCH  15  18
HETATM   18  S   UNL     1     -10.327  12.630  64.409  1.00  0.00    -0.345 S  
HETATM   19  O   UNL     1      -9.733  12.105  63.199  1.00  0.00    -0.379 OA 
HETATM   20  O   UNL     1      -9.831  13.853  65.013  1.00  0.00    -0.235 OA 
BRANCH  18  21
HETATM   21  N   UNL     1     -11.999  12.813  64.161  1.00  0.00    -0.395 N  
HETATM   22  C   UNL     1     -12.644  11.855  63.249  1.00  0.00    -0.344 C  
HETATM   23  C   UNL     1     -12.503  14.190  64.015  1.00  0.00    -0.163 C  
ENDBRANCH  18  21
ENDBRANCH  15  18
ENDBRANCH   3   4
ENDBRANCH   2   3
BRANCH   2  24
HETATM   24  N   UNL     1     -11.084  14.308  69.255  1.00  0.00    -0.263 NA 
HETATM   25  C   UNL     1      -9.667  14.136  68.871  1.00  0.00    -0.080 C  
HETATM   26  C   UNL     1     -11.835  14.491  68.006  1.00  0.00    -0.315 C  
ENDBRANCH   2  24
TORSDOF 5
ENDMDL
MODEL       30
REMARK 921   NORMALIZED FREE ENERGY PREDICTED BY IDOCK:   -5.43 KCAL/MOL
REMARK 922        TOTAL FREE ENERGY PREDICTED BY IDOCK:   -7.88 KCAL/MOL
REMARK 923 INTER-LIGAND FREE ENERGY PREDICTED BY IDOCK:   -6.94 KCAL/MOL
REMARK 924 INTRA-LIGAND FREE ENERGY PREDICTED BY IDOCK:   -0.94 KCAL/MOL
REMARK 927      BINDING AFFINITY PREDICTED BY RF-SCORE:    0.00 PKD
ROOT
HETATM    1  C   UNL     1      -8.387   8.211  65.642  1.00  0.00    -0.148 C  
HETATM    2  C   UNL     1      -8.901   9.425  66.461  1.00  0.00    -0.136 C  
ENDROOT
BRANCH   2   3
HETATM    3  C   UNL     1     -10.394   9.062  66.843  1.00  0.00    -0.254 C  
BRANCH   3   4
HETATM    4  N   UNL     1     -10.821   9.221  68.260  1.00  0.00    -0.137 NA 
HETATM    5  C   UNL     1     -10.727   8.066  69.103  1.00  0.00    -0.106 A  
HETATM    6  C   UNL     1     -10.295   6.805  68.630  1.00  0.00    -0.202 A  
HETATM    7  C   UNL     1     -10.283   5.651  69.426  1.00  0.00    -0.315 A  
HETATM    8  C   UNL     1     -10.663   5.721  70.753  1.00  0.00    -0.342 A  
HETATM    9  C   UNL     1     -11.050   6.948  71.272  1.00  0.00    -0.293 A  
HETATM   10  C   UNL     1     -11.090   8.105  70.465  1.00  0.00    -0.253 A  
HETATM   11  S   UNL     1     -11.627   9.562  71.312  1.00  0.00    -0.400 SA 
HETATM   12  C   UNL     1     -11.649  10.772  70.019  1.00  0.00    -0.334 A  
HETATM   13  C   UNL     1     -11.247  10.524  68.686  1.00  0.00    -0.270 A  
HETATM   14  C   UNL     1     -11.323  11.639  67.814  1.00  0.00    -0.356 A  
HETATM   15  C   UNL     1     -11.762  12.904  68.245  1.00  0.00    -0.350 A  
HETATM   16  C   UNL     1     -12.154  13.112  69.558  1.00  0.00    -0.296 A  
HETATM   17  C   UNL     1     -12.105  12.042  70.437  1.00  0.00    -0.407 A  
BRANCH  15  18
HETATM   18  S   UNL     1     -11.716  14.291  67.124  1.00  0.00    -0.418 S  
HETATM   19  O   UNL     1     -11.598  15.494  67.918  1.00  0.00    -0.319 OA 
HETATM   20  O   UNL     1     -12.814  14.120  66.190  1.00  0.00    -0.377 OA 
BRANCH  18  21
HETATM   21  N   UNL     1     -10.266  14.055  66.270  1.00  0.00    -0.288 N  
HETATM   22  C   UNL     1      -9.107  14.858  66.696  1.00  0.00    -0.280 C  
HETATM   23  C   UNL     1     -10.371  13.909  64.808  1.00  0.00    -0.394 C  
ENDBRANCH  18  21
ENDBRANCH  15  18
ENDBRANCH   3   4
ENDBRANCH   2   3
BRANCH   2  24
HETATM   24  N   UNL     1      -7.884   9.776  67.504  1.00  0.00    -0.095 NA 
HETATM   25  C   UNL     1      -6.615   9.061  67.253  1.00  0.00    -0.061 C  
HETATM   26  C   UNL     1      -7.559  11.208  67.518  1.00  0.00    -0.108 C  
ENDBRANCH   2  24
TORSDOF 5
ENDMDL
MODEL       31
REMARK 921   NORMALIZED FREE ENERGY PREDICTED BY IDOCK:   -5.42 KCAL/MOL
REMARK 922        TOTAL FREE ENERGY PREDICTED BY IDOCK:   -7.87 KCAL/MOL
REMARK 923 INTER-LIGAND FREE ENERGY PREDICTED BY IDOCK:   -7.08 KCAL/MOL
REMARK 924 INTRA-LIGAND FREE ENERGY PREDICTED BY IDOCK:   -0.79 KCAL/MOL
REMARK 927      BINDING AFFINITY PREDICTED BY RF-SCORE:    0.00 PKD
ROOT
HETATM    1  C   UNL     1      -9.387   9.849  64.926  1.00  0.00    -0.329 C  
HETATM    2  C   UNL     1      -9.112   9.176  66.296  1.00  0.00    -0.178 C  
ENDROOT
BRANCH   2   3
HETATM    3  C   UNL     1     -10.534   8.731  66.831  1.00  0.00    -0.249 C  
BRANCH   3   4
HETATM    4  N   UNL     1     -10.876   9.010  68.252  1.00  0.00    -0.087 NA 
HETATM    5  C   UNL     1     -10.772   7.917  69.173  1.00  0.00    -0.117 A  
HETATM    6  C   UNL     1     -10.407   6.610  68.774  1.00  0.00    -0.214 A  
HETATM    7  C   UNL     1     -10.387   5.518  69.654  1.00  0.00    -0.359 A  
HETATM    8  C   UNL     1     -10.690   5.699  70.991  1.00  0.00    -0.304 A  
HETATM    9  C   UNL     1     -11.007   6.974  71.435  1.00  0.00    -0.266 A  
HETATM   10  C   UNL     1     -11.056   8.069  70.547  1.00  0.00    -0.251 A  
HETATM   11  S   UNL     1     -11.497   9.603  71.309  1.00  0.00    -0.395 SA 
HETATM   12  C   UNL     1     -11.554  10.714  69.931  1.00  0.00    -0.316 A  
HETATM   13  C   UNL     1     -11.236  10.355  68.601  1.00  0.00    -0.248 A  
HETATM   14  C   UNL     1     -11.325  11.405  67.654  1.00  0.00    -0.359 A  
HETATM   15  C   UNL     1     -11.699  12.713  68.011  1.00  0.00    -0.350 A  
HETATM   16  C   UNL     1     -12.009  13.031  69.323  1.00  0.00    -0.331 A  
HETATM   17  C   UNL     1     -11.945  12.027  70.276  1.00  0.00    -0.398 A  
BRANCH  15  18
HETATM   18  S   UNL     1     -11.672  14.011  66.787  1.00  0.00    -0.427 S  
HETATM   19  O   UNL     1     -11.522  15.269  67.485  1.00  0.00    -0.333 OA 
HETATM   20  O   UNL     1     -12.796  13.782  65.898  1.00  0.00    -0.438 OA 
BRANCH  18  21
HETATM   21  N   UNL     1     -10.246  13.697  65.916  1.00  0.00    -0.304 N  
HETATM   22  C   UNL     1      -9.084  14.551  66.214  1.00  0.00    -0.129 C  
HETATM   23  C   UNL     1     -10.397  13.393  64.482  1.00  0.00    -0.373 C  
ENDBRANCH  18  21
ENDBRANCH  15  18
ENDBRANCH   3   4
ENDBRANCH   2   3
BRANCH   2  24
HETATM   24  N   UNL     1      -7.988   8.197  66.142  1.00  0.00    -0.098 NA 
HETATM   25  C   UNL     1      -7.329   7.955  67.444  1.00  0.00    -0.092 C  
HETATM   26  C   UNL     1      -8.440   6.888  65.655  1.00  0.00    -0.136 C  
ENDBRANCH   2  24
TORSDOF 5
ENDMDL
MODEL       32
REMARK 921   NORMALIZED FREE ENERGY PREDICTED BY IDOCK:   -5.41 KCAL/MOL
REMARK 922        TOTAL FREE ENERGY PREDICTED BY IDOCK:   -7.86 KCAL/MOL
REMARK 923 INTER-LIGAND FREE ENERGY PREDICTED BY IDOCK:   -7.03 KCAL/MOL
REMARK 924 INTRA-LIGAND FREE ENERGY PREDICTED BY IDOCK:   -0.83 KCAL/MOL
REMARK 927      BINDING AFFINITY PREDICTED BY RF-SCORE:    0.00 PKD
ROOT
HETATM    1  C   UNL     1      -8.215   9.052  65.429  1.00  0.00    -0.131 C  
HETATM    2  C   UNL     1      -8.716   9.464  66.839  1.00  0.00    -0.127 C  
ENDROOT
BRANCH   2   3
HETATM    3  C   UNL     1     -10.248   9.813  66.645  1.00  0.00    -0.226 C  
BRANCH   3   4
HETATM    4  N   UNL     1     -10.786  11.032  67.308  1.00  0.00    -0.249 NA 
HETATM    5  C   UNL     1     -10.823  12.234  66.528  1.00  0.00    -0.259 A  
HETATM    6  C   UNL     1     -10.338  12.303  65.201  1.00  0.00    -0.316 A  
HETATM    7  C   UNL     1     -10.292  13.495  64.463  1.00  0.00    -0.381 A  
HETATM    8  C   UNL     1     -10.776  14.668  65.010  1.00  0.00    -0.448 A  
HETATM    9  C   UNL     1     -11.305  14.637  66.292  1.00  0.00    -0.347 A  
HETATM   10  C   UNL     1     -11.327  13.446  67.047  1.00  0.00    -0.317 A  
HETATM   11  S   UNL     1     -12.027  13.623  68.662  1.00  0.00    -0.310 SA 
HETATM   12  C   UNL     1     -11.816  12.005  69.351  1.00  0.00    -0.324 A  
HETATM   13  C   UNL     1     -11.268  10.904  68.654  1.00  0.00    -0.267 A  
HETATM   14  C   UNL     1     -11.211   9.692  69.385  1.00  0.00    -0.112 A  
HETATM   15  C   UNL     1     -11.670   9.590  70.711  1.00  0.00    -0.298 A  
HETATM   16  C   UNL     1     -12.197  10.689  71.368  1.00  0.00    -0.405 A  
HETATM   17  C   UNL     1     -12.259  11.895  70.688  1.00  0.00    -0.424 A  
BRANCH  15  18
HETATM   18  S   UNL     1     -11.679   8.004  71.529  1.00  0.00    -0.296 S  
HETATM   19  O   UNL     1     -12.984   7.414  71.329  1.00  0.00    -0.351 OA 
HETATM   20  O   UNL     1     -11.153   8.211  72.865  1.00  0.00    -0.373 OA 
BRANCH  18  21
HETATM   21  N   UNL     1     -10.533   7.105  70.652  1.00  0.00    -0.208 N  
HETATM   22  C   UNL     1     -11.056   6.090  69.722  1.00  0.00    -0.406 C  
HETATM   23  C   UNL     1      -9.332   6.666  71.382  1.00  0.00    -0.151 C  
ENDBRANCH  18  21
ENDBRANCH  15  18
ENDBRANCH   3   4
ENDBRANCH   2   3
BRANCH   2  24
HETATM   24  N   UNL     1      -8.261   8.443  67.837  1.00  0.00    -0.126 NA 
HETATM   25  C   UNL     1      -7.610   7.304  67.155  1.00  0.00    -0.103 C  
HETATM   26  C   UNL     1      -7.275   8.979  68.784  1.00  0.00    -0.075 C  
ENDBRANCH   2  24
TORSDOF 5
ENDMDL
MODEL       33
REMARK 921   NORMALIZED FREE ENERGY PREDICTED BY IDOCK:   -5.41 KCAL/MOL
REMARK 922        TOTAL FREE ENERGY PREDICTED BY IDOCK:   -7.85 KCAL/MOL
REMARK 923 INTER-LIGAND FREE ENERGY PREDICTED BY IDOCK:   -7.12 KCAL/MOL
REMARK 924 INTRA-LIGAND FREE ENERGY PREDICTED BY IDOCK:   -0.73 KCAL/MOL
REMARK 927      BINDING AFFINITY PREDICTED BY RF-SCORE:    0.00 PKD
ROOT
HETATM    1  C   UNL     1     -10.483   7.848  66.928  1.00  0.00    -0.388 C  
HETATM    2  C   UNL     1     -10.406   9.396  66.977  1.00  0.00    -0.252 C  
ENDROOT
BRANCH   2   3
HETATM    3  C   UNL     1      -9.922   9.739  68.445  1.00  0.00    -0.156 C  
BRANCH   3   4
HETATM    4  N   UNL     1     -10.920  10.269  69.414  1.00  0.00    -0.233 NA 
HETATM    5  C   UNL     1     -11.500   9.331  70.331  1.00  0.00    -0.213 A  
HETATM    6  C   UNL     1     -11.193   7.951  70.311  1.00  0.00    -0.206 A  
HETATM    7  C   UNL     1     -11.820   7.015  71.147  1.00  0.00    -0.380 A  
HETATM    8  C   UNL     1     -12.755   7.432  72.075  1.00  0.00    -0.239 A  
HETATM    9  C   UNL     1     -13.052   8.784  72.161  1.00  0.00    -0.451 A  
HETATM   10  C   UNL     1     -12.443   9.724  71.303  1.00  0.00    -0.367 A  
HETATM   11  S   UNL     1     -12.971  11.392  71.562  1.00  0.00    -0.307 SA 
HETATM   12  C   UNL     1     -12.105  12.271  70.291  1.00  0.00    -0.295 A  
HETATM   13  C   UNL     1     -11.190  11.678  69.392  1.00  0.00    -0.246 A  
HETATM   14  C   UNL     1     -10.590  12.568  68.466  1.00  0.00    -0.262 A  
HETATM   15  C   UNL     1     -10.882  13.944  68.445  1.00  0.00    -0.254 A  
HETATM   16  C   UNL     1     -11.789  14.492  69.337  1.00  0.00    -0.367 A  
HETATM   17  C   UNL     1     -12.404  13.651  70.250  1.00  0.00    -0.392 A  
BRANCH  15  18
HETATM   18  S   UNL     1      -9.999  15.023  67.332  1.00  0.00    -0.226 S  
HETATM   19  O   UNL     1     -10.752  16.254  67.226  1.00  0.00    -0.314 OA 
HETATM   20  O   UNL     1      -9.675  14.245  66.151  1.00  0.00    -0.297 OA 
BRANCH  18  21
HETATM   21  N   UNL     1      -8.550  15.340  68.162  1.00  0.00    -0.157 N  
HETATM   22  C   UNL     1      -8.454  16.631  68.862  1.00  0.00    -0.233 C  
HETATM   23  C   UNL     1      -7.300  14.943  67.490  1.00  0.00    -0.204 C  
ENDBRANCH  18  21
ENDBRANCH  15  18
ENDBRANCH   3   4
ENDBRANCH   2   3
BRANCH   2  24
HETATM   24  N   UNL     1      -9.667   9.888  65.770  1.00  0.00    -0.247 NA 
HETATM   25  C   UNL     1     -10.410  10.987  65.118  1.00  0.00    -0.283 C  
HETATM   26  C   UNL     1      -8.338  10.420  66.098  1.00  0.00    -0.149 C  
ENDBRANCH   2  24
TORSDOF 5
ENDMDL
MODEL       34
REMARK 921   NORMALIZED FREE ENERGY PREDICTED BY IDOCK:   -5.35 KCAL/MOL
REMARK 922        TOTAL FREE ENERGY PREDICTED BY IDOCK:   -7.78 KCAL/MOL
REMARK 923 INTER-LIGAND FREE ENERGY PREDICTED BY IDOCK:   -7.06 KCAL/MOL
REMARK 924 INTRA-LIGAND FREE ENERGY PREDICTED BY IDOCK:   -0.72 KCAL/MOL
REMARK 927      BINDING AFFINITY PREDICTED BY RF-SCORE:    0.00 PKD
ROOT
HETATM    1  C   UNL     1     -13.083  11.626  71.739  1.00  0.00    -0.487 C  
HETATM    2  C   UNL     1     -12.803  10.202  71.189  1.00  0.00    -0.399 C  
ENDROOT
BRANCH   2   3
HETATM    3  C   UNL     1     -11.278  10.215  70.766  1.00  0.00    -0.336 C  
BRANCH   3   4
HETATM    4  N   UNL     1     -10.943  10.121  69.319  1.00  0.00    -0.231 NA 
HETATM    5  C   UNL     1     -10.854   8.807  68.754  1.00  0.00     0.013 A  
HETATM    6  C   UNL     1     -11.027   7.631  69.520  1.00  0.00    -0.108 A  
HETATM    7  C   UNL     1     -10.855   6.342  68.994  1.00  0.00    -0.400 A  
HETATM    8  C   UNL     1     -10.547   6.174  67.657  1.00  0.00    -0.340 A  
HETATM    9  C   UNL     1     -10.415   7.300  66.858  1.00  0.00    -0.369 A  
HETATM   10  C   UNL     1     -10.559   8.598  67.391  1.00  0.00    -0.228 A  
HETATM   11  S   UNL     1     -10.334   9.896  66.210  1.00  0.00    -0.110 SA 
HETATM   12  C   UNL     1     -10.486  11.353  67.207  1.00  0.00    -0.206 A  
HETATM   13  C   UNL     1     -10.783  11.348  68.589  1.00  0.00    -0.206 A  
HETATM   14  C   UNL     1     -10.881  12.627  69.192  1.00  0.00    -0.127 A  
HETATM   15  C   UNL     1     -10.700  13.817  68.465  1.00  0.00    -0.262 A  
HETATM   16  C   UNL     1     -10.405  13.788  67.112  1.00  0.00    -0.261 A  
HETATM   17  C   UNL     1     -10.290  12.554  66.491  1.00  0.00    -0.254 A  
BRANCH  15  18
HETATM   18  S   UNL     1     -10.959  15.393  69.262  1.00  0.00    -0.283 S  
HETATM   19  O   UNL     1     -11.766  16.205  68.377  1.00  0.00    -0.320 OA 
HETATM   20  O   UNL     1      -9.662  15.855  69.722  1.00  0.00    -0.257 OA 
BRANCH  18  21
HETATM   21  N   UNL     1     -11.884  14.992  70.630  1.00  0.00    -0.290 N  
HETATM   22  C   UNL     1     -13.344  15.147  70.513  1.00  0.00    -0.160 C  
HETATM   23  C   UNL     1     -11.354  15.413  71.939  1.00  0.00    -0.384 C  
ENDBRANCH  18  21
ENDBRANCH  15  18
ENDBRANCH   3   4
ENDBRANCH   2   3
BRANCH   2  24
HETATM   24  N   UNL     1     -13.344   9.191  72.154  1.00  0.00    -0.429 NA 
HETATM   25  C   UNL     1     -14.359   8.339  71.498  1.00  0.00    -0.428 C  
HETATM   26  C   UNL     1     -12.307   8.285  72.664  1.00  0.00    -0.196 C  
ENDBRANCH   2  24
TORSDOF 5
ENDMDL
MODEL       35
REMARK 921   NORMALIZED FREE ENERGY PREDICTED BY IDOCK:   -5.30 KCAL/MOL
REMARK 922        TOTAL FREE ENERGY PREDICTED BY IDOCK:   -7.71 KCAL/MOL
REMARK 923 INTER-LIGAND FREE ENERGY PREDICTED BY IDOCK:   -7.00 KCAL/MOL
REMARK 924 INTRA-LIGAND FREE ENERGY PREDICTED BY IDOCK:   -0.71 KCAL/MOL
REMARK 927      BINDING AFFINITY PREDICTED BY RF-SCORE:    0.00 PKD
ROOT
HETATM    1  C   UNL     1     -11.907  12.838  69.539  1.00  0.00    -0.379 C  
HETATM    2  C   UNL     1     -11.037  12.747  68.257  1.00  0.00    -0.257 C  
ENDROOT
BRANCH   2   3
HETATM    3  C   UNL     1     -11.609  11.507  67.458  1.00  0.00    -0.246 C  
BRANCH   3   4
HETATM    4  N   UNL     1     -10.648  10.500  66.928  1.00  0.00    -0.253 NA 
HETATM    5  C   UNL     1     -10.246  10.641  65.560  1.00  0.00    -0.262 A  
HETATM    6  C   UNL     1     -10.754  11.651  64.711  1.00  0.00    -0.365 A  
HETATM    7  C   UNL     1     -10.431  11.742  63.349  1.00  0.00    -0.485 A  
HETATM    8  C   UNL     1      -9.543  10.845  62.787  1.00  0.00    -0.339 A  
HETATM    9  C   UNL     1      -8.983   9.865  63.594  1.00  0.00    -0.278 A  
HETATM   10  C   UNL     1      -9.328   9.755  64.957  1.00  0.00    -0.263 A  
HETATM   11  S   UNL     1      -8.518   8.430  65.805  1.00  0.00    -0.164 SA 
HETATM   12  C   UNL     1      -9.231   8.519  67.425  1.00  0.00    -0.140 A  
HETATM   13  C   UNL     1     -10.162   9.499  67.836  1.00  0.00    -0.205 A  
HETATM   14  C   UNL     1     -10.590   9.401  69.183  1.00  0.00    -0.234 A  
HETATM   15  C   UNL     1     -10.118   8.401  70.052  1.00  0.00    -0.192 A  
HETATM   16  C   UNL     1      -9.209   7.450  69.616  1.00  0.00    -0.146 A  
HETATM   17  C   UNL     1      -8.777   7.508  68.301  1.00  0.00    -0.123 A  
BRANCH  15  18
HETATM   18  S   UNL     1     -10.607   8.411  71.768  1.00  0.00    -0.309 S  
HETATM   19  O   UNL     1     -11.712   9.334  71.904  1.00  0.00    -0.370 OA 
HETATM   20  O   UNL     1      -9.398   8.575  72.554  1.00  0.00    -0.269 OA 
BRANCH  18  21
HETATM   21  N   UNL     1     -11.182   6.831  72.020  1.00  0.00    -0.252 N  
HETATM   22  C   UNL     1     -12.620   6.604  71.799  1.00  0.00    -0.274 C  
HETATM   23  C   UNL     1     -10.647   6.107  73.187  1.00  0.00    -0.248 C  
ENDBRANCH  18  21
ENDBRANCH  15  18
ENDBRANCH   3   4
ENDBRANCH   2   3
BRANCH   2  24
HETATM   24  N   UNL     1     -10.939  14.107  67.636  1.00  0.00    -0.263 NA 
HETATM   25  C   UNL     1      -9.633  14.279  66.964  1.00  0.00    -0.257 C  
HETATM   26  C   UNL     1     -11.967  14.336  66.612  1.00  0.00    -0.430 C  
ENDBRANCH   2  24
TORSDOF 5
ENDMDL
MODEL       36
REMARK 921   NORMALIZED FREE ENERGY PREDICTED BY IDOCK:   -5.28 KCAL/MOL
REMARK 922        TOTAL FREE ENERGY PREDICTED BY IDOCK:   -7.68 KCAL/MOL
REMARK 923 INTER-LIGAND FREE ENERGY PREDICTED BY IDOCK:   -7.15 KCAL/MOL
REMARK 924 INTRA-LIGAND FREE ENERGY PREDICTED BY IDOCK:   -0.53 KCAL/MOL
REMARK 927      BINDING AFFINITY PREDICTED BY RF-SCORE:    0.00 PKD
ROOT
HETATM    1  C   UNL     1      -8.013  11.671  67.469  1.00  0.00    -0.141 C  
HETATM    2  C   UNL     1      -8.964  10.566  67.999  1.00  0.00    -0.135 C  
ENDROOT
BRANCH   2   3
HETATM    3  C   UNL     1     -10.424  11.089  67.677  1.00  0.00    -0.204 C  
BRANCH   3   4
HETATM    4  N   UNL     1     -11.109  11.943  68.685  1.00  0.00    -0.228 NA 
HETATM    5  C   UNL     1     -11.122  13.355  68.441  1.00  0.00    -0.273 A  
HETATM    6  C   UNL     1     -10.483  13.947  67.327  1.00  0.00    -0.271 A  
HETATM    7  C   UNL     1     -10.417  15.334  67.129  1.00  0.00    -0.280 A  
HETATM    8  C   UNL     1     -11.033  16.191  68.021  1.00  0.00    -0.338 A  
HETATM    9  C   UNL     1     -11.712  15.652  69.103  1.00  0.00    -0.402 A  
HETATM   10  C   UNL     1     -11.755  14.259  69.320  1.00  0.00    -0.321 A  
HETATM   11  S   UNL     1     -12.656  13.777  70.765  1.00  0.00    -0.316 SA 
HETATM   12  C   UNL     1     -12.436  12.020  70.786  1.00  0.00    -0.279 A  
HETATM   13  C   UNL     1     -11.744  11.289  69.794  1.00  0.00    -0.349 A  
HETATM   14  C   UNL     1     -11.704   9.886  69.993  1.00  0.00    -0.186 A  
HETATM   15  C   UNL     1     -12.315   9.264  71.097  1.00  0.00    -0.293 A  
HETATM   16  C   UNL     1     -12.982  10.010  72.055  1.00  0.00    -0.514 A  
HETATM   17  C   UNL     1     -13.031  11.386  71.900  1.00  0.00    -0.466 A  
BRANCH  15  18
HETATM   18  S   UNL     1     -12.330   7.484  71.218  1.00  0.00    -0.309 S  
HETATM   19  O   UNL     1     -11.608   6.960  70.079  1.00  0.00    -0.299 OA 
HETATM   20  O   UNL     1     -13.701   7.086  71.477  1.00  0.00    -0.343 OA 
BRANCH  18  21
HETATM   21  N   UNL     1     -11.425   7.181  72.625  1.00  0.00    -0.265 N  
HETATM   22  C   UNL     1     -10.195   7.969  72.806  1.00  0.00    -0.319 C  
HETATM   23  C   UNL     1     -11.282   5.772  73.032  1.00  0.00    -0.246 C  
ENDBRANCH  18  21
ENDBRANCH  15  18
ENDBRANCH   3   4
ENDBRANCH   2   3
BRANCH   2  24
HETATM   24  N   UNL     1      -8.481   9.233  67.516  1.00  0.00    -0.115 NA 
HETATM   25  C   UNL     1      -7.596   8.606  68.521  1.00  0.00    -0.095 C  
HETATM   26  C   UNL     1      -9.578   8.286  67.279  1.00  0.00    -0.166 C  
ENDBRANCH   2  24
TORSDOF 5
ENDMDL
MODEL       37
REMARK 921   NORMALIZED FREE ENERGY PREDICTED BY IDOCK:   -5.28 KCAL/MOL
REMARK 922        TOTAL FREE ENERGY PREDICTED BY IDOCK:   -7.68 KCAL/MOL
REMARK 923 INTER-LIGAND FREE ENERGY PREDICTED BY IDOCK:   -6.96 KCAL/MOL
REMARK 924 INTRA-LIGAND FREE ENERGY PREDICTED BY IDOCK:   -0.72 KCAL/MOL
REMARK 927      BINDING AFFINITY PREDICTED BY RF-SCORE:    0.00 PKD
ROOT
HETATM    1  C   UNL     1     -10.127   9.497  66.257  1.00  0.00    -0.327 C  
HETATM    2  C   UNL     1     -10.785  10.654  67.053  1.00  0.00    -0.259 C  
ENDROOT
BRANCH   2   3
HETATM    3  C   UNL     1     -10.137  10.582  68.496  1.00  0.00    -0.173 C  
BRANCH   3   4
HETATM    4  N   UNL     1     -10.974  10.092  69.625  1.00  0.00    -0.248 NA 
HETATM    5  C   UNL     1     -11.788  11.059  70.300  1.00  0.00    -0.367 A  
HETATM    6  C   UNL     1     -11.786  12.433  69.963  1.00  0.00    -0.307 A  
HETATM    7  C   UNL     1     -12.514  13.398  70.674  1.00  0.00    -0.385 A  
HETATM    8  C   UNL     1     -13.316  13.018  71.734  1.00  0.00    -0.468 A  
HETATM    9  C   UNL     1     -13.385  11.674  72.070  1.00  0.00    -0.405 A  
HETATM   10  C   UNL     1     -12.632  10.706  71.373  1.00  0.00    -0.421 A  
HETATM   11  S   UNL     1     -12.848   9.054  71.969  1.00  0.00    -0.426 SA 
HETATM   12  C   UNL     1     -11.719   8.132  70.962  1.00  0.00    -0.274 A  
HETATM   13  C   UNL     1     -10.940   8.688  69.921  1.00  0.00    -0.168 A  
HETATM   14  C   UNL     1     -10.117   7.768  69.224  1.00  0.00    -0.199 A  
HETATM   15  C   UNL     1     -10.082   6.398  69.542  1.00  0.00    -0.170 A  
HETATM   16  C   UNL     1     -10.854   5.886  70.571  1.00  0.00    -0.366 A  
HETATM   17  C   UNL     1     -11.663   6.758  71.283  1.00  0.00    -0.384 A  
BRANCH  15  18
HETATM   18  S   UNL     1      -9.115   5.279  68.543  1.00  0.00    -0.113 S  
HETATM   19  O   UNL     1      -9.732   3.973  68.626  1.00  0.00    -0.147 OA 
HETATM   20  O   UNL     1      -7.725   5.471  68.913  1.00  0.00    -0.088 OA 
BRANCH  18  21
HETATM   21  N   UNL     1      -9.323   5.882  66.967  1.00  0.00    -0.118 N  
HETATM   22  C   UNL     1     -10.507   5.412  66.228  1.00  0.00    -0.221 C  
HETATM   23  C   UNL     1      -8.115   5.988  66.132  1.00  0.00    -0.110 C  
ENDBRANCH  18  21
ENDBRANCH  15  18
ENDBRANCH   3   4
ENDBRANCH   2   3
BRANCH   2  24
HETATM   24  N   UNL     1     -10.735  11.905  66.229  1.00  0.00    -0.260 NA 
HETATM   25  C   UNL     1      -9.595  12.752  66.640  1.00  0.00    -0.255 C  
HETATM   26  C   UNL     1     -10.556  11.632  64.798  1.00  0.00    -0.304 C  
ENDBRANCH   2  24
TORSDOF 5
ENDMDL
MODEL       38
REMARK 921   NORMALIZED FREE ENERGY PREDICTED BY IDOCK:   -5.27 KCAL/MOL
REMARK 922        TOTAL FREE ENERGY PREDICTED BY IDOCK:   -7.68 KCAL/MOL
REMARK 923 INTER-LIGAND FREE ENERGY PREDICTED BY IDOCK:   -7.06 KCAL/MOL
REMARK 924 INTRA-LIGAND FREE ENERGY PREDICTED BY IDOCK:   -0.62 KCAL/MOL
REMARK 927      BINDING AFFINITY PREDICTED BY RF-SCORE:    0.00 PKD
ROOT
HETATM    1  C   UNL     1     -12.034  10.910  70.668  1.00  0.00    -0.467 C  
HETATM    2  C   UNL     1     -11.386   9.574  70.218  1.00  0.00    -0.236 C  
ENDROOT
BRANCH   2   3
HETATM    3  C   UNL     1      -9.983   9.982  69.607  1.00  0.00    -0.236 C  
BRANCH   3   4
HETATM    4  N   UNL     1      -9.600   9.427  68.280  1.00  0.00    -0.141 NA 
HETATM    5  C   UNL     1      -8.931   8.159  68.272  1.00  0.00    -0.136 A  
HETATM    6  C   UNL     1      -8.596   7.462  69.456  1.00  0.00    -0.134 A  
HETATM    7  C   UNL     1      -7.866   6.265  69.459  1.00  0.00    -0.101 A  
HETATM    8  C   UNL     1      -7.477   5.687  68.265  1.00  0.00    -0.077 A  
HETATM    9  C   UNL     1      -7.826   6.312  67.078  1.00  0.00    -0.104 A  
HETATM   10  C   UNL     1      -8.536   7.531  67.072  1.00  0.00    -0.122 A  
HETATM   11  S   UNL     1      -8.867   8.171  65.457  1.00  0.00    -0.026 SA 
HETATM   12  C   UNL     1      -9.666   9.712  65.811  1.00  0.00    -0.280 A  
HETATM   13  C   UNL     1      -9.970  10.175  67.111  1.00  0.00    -0.196 A  
HETATM   14  C   UNL     1     -10.632  11.426  67.169  1.00  0.00    -0.279 A  
HETATM   15  C   UNL     1     -10.968  12.155  66.014  1.00  0.00    -0.293 A  
HETATM   16  C   UNL     1     -10.652  11.676  64.753  1.00  0.00    -0.358 A  
HETATM   17  C   UNL     1      -9.993  10.460  64.658  1.00  0.00    -0.408 A  
BRANCH  15  18
HETATM   18  S   UNL     1     -11.909  13.664  66.157  1.00  0.00    -0.417 S  
HETATM   19  O   UNL     1     -12.244  13.841  67.554  1.00  0.00    -0.355 OA 
HETATM   20  O   UNL     1     -12.946  13.617  65.143  1.00  0.00    -0.734 OA 
BRANCH  18  21
HETATM   21  N   UNL     1     -10.794  14.865  65.707  1.00  0.00    -0.326 N  
HETATM   22  C   UNL     1     -10.036  15.509  66.793  1.00  0.00    -0.264 C  
HETATM   23  C   UNL     1     -11.216  15.803  64.652  1.00  0.00    -0.363 C  
ENDBRANCH  18  21
ENDBRANCH  15  18
ENDBRANCH   3   4
ENDBRANCH   2   3
BRANCH   2  24
HETATM   24  N   UNL     1     -11.500   8.577  71.330  1.00  0.00    -0.273 NA 
HETATM   25  C   UNL     1     -10.307   8.632  72.202  1.00  0.00    -0.333 C  
HETATM   26  C   UNL     1     -12.660   8.825  72.196  1.00  0.00    -0.399 C  
ENDBRANCH   2  24
TORSDOF 5
ENDMDL
MODEL       39
REMARK 921   NORMALIZED FREE ENERGY PREDICTED BY IDOCK:   -5.25 KCAL/MOL
REMARK 922        TOTAL FREE ENERGY PREDICTED BY IDOCK:   -7.65 KCAL/MOL
REMARK 923 INTER-LIGAND FREE ENERGY PREDICTED BY IDOCK:   -6.87 KCAL/MOL
REMARK 924 INTRA-LIGAND FREE ENERGY PREDICTED BY IDOCK:   -0.78 KCAL/MOL
REMARK 927      BINDING AFFINITY PREDICTED BY RF-SCORE:    0.00 PKD
ROOT
HETATM    1  C   UNL     1     -10.366   8.654  69.821  1.00  0.00    -0.212 C  
HETATM    2  C   UNL     1      -9.994   9.642  68.683  1.00  0.00    -0.165 C  
ENDROOT
BRANCH   2   3
HETATM    3  C   UNL     1     -10.580   8.991  67.365  1.00  0.00    -0.239 C  
BRANCH   3   4
HETATM    4  N   UNL     1      -9.697   8.891  66.171  1.00  0.00    -0.271 NA 
HETATM    5  C   UNL     1      -8.761   7.805  66.142  1.00  0.00    -0.156 A  
HETATM    6  C   UNL     1      -8.628   6.880  67.203  1.00  0.00    -0.121 A  
HETATM    7  C   UNL     1      -7.656   5.868  67.220  1.00  0.00    -0.096 A  
HETATM    8  C   UNL     1      -6.802   5.711  66.145  1.00  0.00    -0.058 A  
HETATM    9  C   UNL     1      -6.929   6.567  65.061  1.00  0.00    -0.051 A  
HETATM   10  C   UNL     1      -7.886   7.603  65.054  1.00  0.00    -0.126 A  
HETATM   11  S   UNL     1      -7.874   8.592  63.588  1.00  0.00    -0.155 SA 
HETATM   12  C   UNL     1      -9.100   9.821  63.943  1.00  0.00    -0.233 A  
HETATM   13  C   UNL     1      -9.879   9.854  65.122  1.00  0.00    -0.278 A  
HETATM   14  C   UNL     1     -10.820  10.912  65.196  1.00  0.00    -0.133 A  
HETATM   15  C   UNL     1     -10.970  11.859  64.167  1.00  0.00    -0.369 A  
HETATM   16  C   UNL     1     -10.187  11.801  63.026  1.00  0.00    -0.252 A  
HETATM   17  C   UNL     1      -9.248  10.787  62.924  1.00  0.00    -0.336 A  
BRANCH  15  18
HETATM   18  S   UNL     1     -12.257  13.090  64.274  1.00  0.00    -0.394 S  
HETATM   19  O   UNL     1     -13.408  12.469  64.893  1.00  0.00    -0.702 OA 
HETATM   20  O   UNL     1     -12.360  13.714  62.967  1.00  0.00    -0.672 OA 
BRANCH  18  21
HETATM   21  N   UNL     1     -11.612  14.238  65.349  1.00  0.00    -0.337 N  
HETATM   22  C   UNL     1     -12.252  14.342  66.672  1.00  0.00    -0.381 C  
HETATM   23  C   UNL     1     -11.229  15.541  64.780  1.00  0.00    -0.390 C  
ENDBRANCH  18  21
ENDBRANCH  15  18
ENDBRANCH   3   4
ENDBRANCH   2   3
BRANCH   2  24
HETATM   24  N   UNL     1     -10.359  11.032  69.105  1.00  0.00    -0.210 NA 
HETATM   25  C   UNL     1      -9.578  12.028  68.341  1.00  0.00    -0.190 C  
HETATM   26  C   UNL     1     -11.775  11.342  68.866  1.00  0.00    -0.341 C  
ENDBRANCH   2  24
TORSDOF 5
ENDMDL
MODEL       40
REMARK 921   NORMALIZED FREE ENERGY PREDICTED BY IDOCK:   -5.21 KCAL/MOL
REMARK 922        TOTAL FREE ENERGY PREDICTED BY IDOCK:   -7.59 KCAL/MOL
REMARK 923 INTER-LIGAND FREE ENERGY PREDICTED BY IDOCK:   -6.75 KCAL/MOL
REMARK 924 INTRA-LIGAND FREE ENERGY PREDICTED BY IDOCK:   -0.85 KCAL/MOL
REMARK 927      BINDING AFFINITY PREDICTED BY RF-SCORE:    0.00 PKD
ROOT
HETATM    1  C   UNL     1      -7.932   8.419  67.973  1.00  0.00    -0.119 C  
HETATM    2  C   UNL     1      -8.516   9.812  68.326  1.00  0.00    -0.114 C  
ENDROOT
BRANCH   2   3
HETATM    3  C   UNL     1     -10.082   9.658  68.157  1.00  0.00    -0.175 C  
BRANCH   3   4
HETATM    4  N   UNL     1     -10.967  10.224  69.212  1.00  0.00    -0.229 NA 
HETATM    5  C   UNL     1     -11.378   9.340  70.262  1.00  0.00    -0.203 A  
HETATM    6  C   UNL     1     -11.013   7.974  70.300  1.00  0.00    -0.242 A  
HETATM    7  C   UNL     1     -11.481   7.083  71.276  1.00  0.00    -0.324 A  
HETATM    8  C   UNL     1     -12.305   7.536  72.290  1.00  0.00    -0.192 A  
HETATM    9  C   UNL     1     -12.650   8.879  72.318  1.00  0.00    -0.455 A  
HETATM   10  C   UNL     1     -12.203   9.771  71.321  1.00  0.00    -0.374 A  
HETATM   11  S   UNL     1     -12.769  11.434  71.530  1.00  0.00    -0.302 SA 
HETATM   12  C   UNL     1     -12.119  12.244  70.094  1.00  0.00    -0.287 A  
HETATM   13  C   UNL     1     -11.303  11.618  69.125  1.00  0.00    -0.283 A  
HETATM   14  C   UNL     1     -10.872  12.454  68.065  1.00  0.00    -0.251 A  
HETATM   15  C   UNL     1     -11.227  13.813  67.986  1.00  0.00    -0.267 A  
HETATM   16  C   UNL     1     -12.033  14.395  68.950  1.00  0.00    -0.337 A  
HETATM   17  C   UNL     1     -12.484  13.605  69.996  1.00  0.00    -0.267 A  
BRANCH  15  18
HETATM   18  S   UNL     1     -10.549  14.835  66.691  1.00  0.00    -0.305 S  
HETATM   19  O   UNL     1      -9.159  14.469  66.525  1.00  0.00    -0.258 OA 
HETATM   20  O   UNL     1     -10.928  16.204  66.986  1.00  0.00    -0.256 OA 
BRANCH  18  21
HETATM   21  N   UNL     1     -11.411  14.342  65.311  1.00  0.00    -0.323 N  
HETATM   22  C   UNL     1     -12.858  14.125  65.475  1.00  0.00    -0.376 C  
HETATM   23  C   UNL     1     -10.763  13.341  64.445  1.00  0.00    -0.415 C  
ENDBRANCH  18  21
ENDBRANCH  15  18
ENDBRANCH   3   4
ENDBRANCH   2   3
BRANCH   2  24
HETATM   24  N   UNL     1      -7.905  10.287  69.609  1.00  0.00    -0.166 NA 
HETATM   25  C   UNL     1      -7.566   9.139  70.478  1.00  0.00    -0.125 C  
HETATM   26  C   UNL     1      -6.657  11.033  69.400  1.00  0.00    -0.104 C  
ENDBRANCH   2  24
TORSDOF 5
ENDMDL
MODEL       41
REMARK 921   NORMALIZED FREE ENERGY PREDICTED BY IDOCK:   -5.19 KCAL/MOL
REMARK 922        TOTAL FREE ENERGY PREDICTED BY IDOCK:   -7.57 KCAL/MOL
REMARK 923 INTER-LIGAND FREE ENERGY PREDICTED BY IDOCK:   -8.02 KCAL/MOL
REMARK 924 INTRA-LIGAND FREE ENERGY PREDICTED BY IDOCK:    0.45 KCAL/MOL
REMARK 927      BINDING AFFINITY PREDICTED BY RF-SCORE:    0.00 PKD
ROOT
HETATM    1  C   UNL     1      -9.103   9.866  70.327  1.00  0.00    -0.108 C  
HETATM    2  C   UNL     1     -10.411   9.514  71.083  1.00  0.00    -0.288 C  
ENDROOT
BRANCH   2   3
HETATM    3  C   UNL     1     -11.579   9.882  70.080  1.00  0.00    -0.175 C  
BRANCH   3   4
HETATM    4  N   UNL     1     -11.289  10.836  68.974  1.00  0.00    -0.262 NA 
HETATM    5  C   UNL     1     -10.715  10.292  67.779  1.00  0.00    -0.275 A  
HETATM    6  C   UNL     1     -10.385   8.924  67.640  1.00  0.00    -0.313 A  
HETATM    7  C   UNL     1      -9.744   8.402  66.507  1.00  0.00    -0.330 A  
HETATM    8  C   UNL     1      -9.446   9.225  65.438  1.00  0.00    -0.281 A  
HETATM    9  C   UNL     1      -9.794  10.566  65.512  1.00  0.00    -0.324 A  
HETATM   10  C   UNL     1     -10.414  11.099  66.662  1.00  0.00    -0.250 A  
HETATM   11  S   UNL     1     -10.759  12.832  66.562  1.00  0.00    -0.261 SA 
HETATM   12  C   UNL     1     -11.430  13.182  68.163  1.00  0.00    -0.314 A  
HETATM   13  C   UNL     1     -11.648  12.212  69.168  1.00  0.00    -0.319 A  
HETATM   14  C   UNL     1     -12.215  12.704  70.370  1.00  0.00    -0.368 A  
HETATM   15  C   UNL     1     -12.542  14.060  70.550  1.00  0.00    -0.329 A  
HETATM   16  C   UNL     1     -12.311  14.986  69.547  1.00  0.00    -0.199 A  
HETATM   17  C   UNL     1     -11.746  14.545  68.361  1.00  0.00    -0.367 A  
BRANCH  15  18
HETATM   18  S   UNL     1     -13.365  14.586  72.043  1.00  0.00    -0.412 S  
HETATM   19  O   UNL     1     -13.815  13.399  72.738  1.00  0.00    -0.720 OA 
HETATM   20  O   UNL     1     -14.302  15.629  71.669  1.00  0.00    -0.478 OA 
BRANCH  18  21
HETATM   21  N   UNL     1     -12.117  15.305  72.945  1.00  0.00    -0.399 N  
HETATM   22  C   UNL     1     -12.424  15.656  74.342  1.00  0.00    -0.634 C  
HETATM   23  C   UNL     1     -11.295  16.314  72.255  1.00  0.00     0.179 C  
ENDBRANCH  18  21
ENDBRANCH  15  18
ENDBRANCH   3   4
ENDBRANCH   2   3
BRANCH   2  24
HETATM   24  N   UNL     1     -10.282   8.142  71.671  1.00  0.00    -0.194 NA 
HETATM   25  C   UNL     1      -9.121   8.076  72.585  1.00  0.00    -0.227 C  
HETATM   26  C   UNL     1     -11.456   7.752  72.461  1.00  0.00    -0.373 C  
ENDBRANCH   2  24
TORSDOF 5
ENDMDL
MODEL       42
REMARK 921   NORMALIZED FREE ENERGY PREDICTED BY IDOCK:   -5.18 KCAL/MOL
REMARK 922        TOTAL FREE ENERGY PREDICTED BY IDOCK:   -7.55 KCAL/MOL
REMARK 923 INTER-LIGAND FREE ENERGY PREDICTED BY IDOCK:   -7.15 KCAL/MOL
REMARK 924 INTRA-LIGAND FREE ENERGY PREDICTED BY IDOCK:   -0.40 KCAL/MOL
REMARK 927      BINDING AFFINITY PREDICTED BY RF-SCORE:    0.00 PKD
ROOT
HETATM    1  C   UNL     1     -12.552  11.728  63.496  1.00  0.00    -0.485 C  
HETATM    2  C   UNL     1     -12.022  12.345  64.817  1.00  0.00    -0.398 C  
ENDROOT
BRANCH   2   3
HETATM    3  C   UNL     1     -10.449  12.387  64.651  1.00  0.00    -0.309 C  
BRANCH   3   4
HETATM    4  N   UNL     1      -9.602  12.149  65.852  1.00  0.00    -0.236 NA 
HETATM    5  C   UNL     1      -9.317  10.785  66.187  1.00  0.00    -0.183 A  
HETATM    6  C   UNL     1      -9.837   9.691  65.458  1.00  0.00    -0.352 A  
HETATM    7  C   UNL     1      -9.633   8.354  65.831  1.00  0.00    -0.119 A  
HETATM    8  C   UNL     1      -8.855   8.054  66.934  1.00  0.00    -0.146 A  
HETATM    9  C   UNL     1      -8.286   9.096  67.651  1.00  0.00    -0.108 A  
HETATM   10  C   UNL     1      -8.513  10.441  67.294  1.00  0.00    -0.122 A  
HETATM   11  S   UNL     1      -7.712  11.616  68.347  1.00  0.00    -0.135 SA 
HETATM   12  C   UNL     1      -8.269  13.164  67.689  1.00  0.00    -0.175 A  
HETATM   13  C   UNL     1      -9.098  13.296  66.552  1.00  0.00    -0.117 A  
HETATM   14  C   UNL     1      -9.408  14.629  66.182  1.00  0.00    -0.265 A  
HETATM   15  C   UNL     1      -8.922  15.741  66.892  1.00  0.00    -0.240 A  
HETATM   16  C   UNL     1      -8.115  15.576  68.006  1.00  0.00    -0.140 A  
HETATM   17  C   UNL     1      -7.800  14.287  68.406  1.00  0.00    -0.140 A  
BRANCH  15  18
HETATM   18  S   UNL     1      -9.253  17.390  66.297  1.00  0.00    -0.162 S  
HETATM   19  O   UNL     1     -10.311  17.298  65.314  1.00  0.00    -0.626 OA 
HETATM   20  O   UNL     1      -7.973  17.986  65.960  1.00  0.00    -0.475 OA 
BRANCH  18  21
HETATM   21  N   UNL     1      -9.853  18.189  67.672  1.00  0.00    -0.301 N  
HETATM   22  C   UNL     1     -10.830  17.454  68.493  1.00  0.00    -0.190 C  
HETATM   23  C   UNL     1     -10.172  19.619  67.523  1.00  0.00    -0.432 C  
ENDBRANCH  18  21
ENDBRANCH  15  18
ENDBRANCH   3   4
ENDBRANCH   2   3
BRANCH   2  24
HETATM   24  N   UNL     1     -12.814  13.577  65.133  1.00  0.00    -0.728 NA 
HETATM   25  C   UNL     1     -12.654  13.946  66.556  1.00  0.00    -0.201 C  
HETATM   26  C   UNL     1     -12.384  14.742  64.350  1.00  0.00    -0.368 C  
ENDBRANCH   2  24
TORSDOF 5
ENDMDL
MODEL       43
REMARK 921   NORMALIZED FREE ENERGY PREDICTED BY IDOCK:   -5.17 KCAL/MOL
REMARK 922        TOTAL FREE ENERGY PREDICTED BY IDOCK:   -7.54 KCAL/MOL
REMARK 923 INTER-LIGAND FREE ENERGY PREDICTED BY IDOCK:   -6.70 KCAL/MOL
REMARK 924 INTRA-LIGAND FREE ENERGY PREDICTED BY IDOCK:   -0.84 KCAL/MOL
REMARK 927      BINDING AFFINITY PREDICTED BY RF-SCORE:    0.00 PKD
ROOT
HETATM    1  C   UNL     1      -8.383  12.481  67.763  1.00  0.00    -0.170 C  
HETATM    2  C   UNL     1      -8.668  11.311  68.741  1.00  0.00    -0.103 C  
ENDROOT
BRANCH   2   3
HETATM    3  C   UNL     1     -10.102  10.776  68.336  1.00  0.00    -0.169 C  
BRANCH   3   4
HETATM    4  N   UNL     1     -10.962  10.182  69.396  1.00  0.00    -0.234 NA 
HETATM    5  C   UNL     1     -10.929   8.756  69.539  1.00  0.00    -0.068 A  
HETATM    6  C   UNL     1     -10.161   7.919  68.698  1.00  0.00    -0.210 A  
HETATM    7  C   UNL     1     -10.191   6.519  68.776  1.00  0.00    -0.194 A  
HETATM    8  C   UNL     1     -10.964   5.895  69.737  1.00  0.00    -0.452 A  
HETATM    9  C   UNL     1     -11.698   6.680  70.615  1.00  0.00    -0.452 A  
HETATM   10  C   UNL     1     -11.691   8.087  70.520  1.00  0.00    -0.071 A  
HETATM   11  S   UNL     1     -12.706   8.900  71.720  1.00  0.00    -0.389 SA 
HETATM   12  C   UNL     1     -12.543  10.605  71.268  1.00  0.00    -0.427 A  
HETATM   13  C   UNL     1     -11.718  11.080  70.223  1.00  0.00    -0.355 A  
HETATM   14  C   UNL     1     -11.717  12.486  70.044  1.00  0.00    -0.297 A  
HETATM   15  C   UNL     1     -12.480  13.349  70.851  1.00  0.00    -0.359 A  
HETATM   16  C   UNL     1     -13.283  12.851  71.864  1.00  0.00    -0.521 A  
HETATM   17  C   UNL     1     -13.319  11.480  72.061  1.00  0.00    -0.397 A  
BRANCH  15  18
HETATM   18  S   UNL     1     -12.337  15.115  70.647  1.00  0.00    -0.402 S  
HETATM   19  O   UNL     1     -11.705  15.644  71.836  1.00  0.00    -0.375 OA 
HETATM   20  O   UNL     1     -13.634  15.601  70.215  1.00  0.00    -0.104 OA 
BRANCH  18  21
HETATM   21  N   UNL     1     -11.260  15.272  69.341  1.00  0.00    -0.265 N  
HETATM   22  C   UNL     1      -9.878  15.665  69.663  1.00  0.00    -0.280 C  
HETATM   23  C   UNL     1     -11.783  15.914  68.122  1.00  0.00    -0.130 C  
ENDBRANCH  18  21
ENDBRANCH  15  18
ENDBRANCH   3   4
ENDBRANCH   2   3
BRANCH   2  24
HETATM   24  N   UNL     1      -7.473  10.407  68.782  1.00  0.00    -0.086 NA 
HETATM   25  C   UNL     1      -6.242  11.158  68.454  1.00  0.00    -0.045 C  
HETATM   26  C   UNL     1      -7.258   9.815  70.109  1.00  0.00    -0.145 C  
ENDBRANCH   2  24
TORSDOF 5
ENDMDL
MODEL       44
REMARK 921   NORMALIZED FREE ENERGY PREDICTED BY IDOCK:   -5.15 KCAL/MOL
REMARK 922        TOTAL FREE ENERGY PREDICTED BY IDOCK:   -7.51 KCAL/MOL
REMARK 923 INTER-LIGAND FREE ENERGY PREDICTED BY IDOCK:   -6.85 KCAL/MOL
REMARK 924 INTRA-LIGAND FREE ENERGY PREDICTED BY IDOCK:   -0.66 KCAL/MOL
REMARK 927      BINDING AFFINITY PREDICTED BY RF-SCORE:    0.00 PKD
ROOT
HETATM    1  C   UNL     1      -7.460   8.198  66.250  1.00  0.00    -0.082 C  
HETATM    2  C   UNL     1      -8.456   8.127  67.437  1.00  0.00    -0.126 C  
ENDROOT
BRANCH   2   3
HETATM    3  C   UNL     1      -9.879   8.399  66.799  1.00  0.00    -0.259 C  
BRANCH   3   4
HETATM    4  N   UNL     1     -10.399   9.793  66.796  1.00  0.00    -0.232 NA 
HETATM    5  C   UNL     1     -10.313  10.518  65.562  1.00  0.00    -0.217 A  
HETATM    6  C   UNL     1      -9.726   9.977  64.394  1.00  0.00    -0.277 A  
HETATM    7  C   UNL     1      -9.561  10.710  63.210  1.00  0.00    -0.382 A  
HETATM    8  C   UNL     1     -10.022  12.011  63.130  1.00  0.00    -0.229 A  
HETATM    9  C   UNL     1     -10.647  12.566  64.237  1.00  0.00    -0.395 A  
HETATM   10  C   UNL     1     -10.790  11.840  65.438  1.00  0.00    -0.295 A  
HETATM   11  S   UNL     1     -11.598  12.733  66.734  1.00  0.00    -0.388 SA 
HETATM   12  C   UNL     1     -11.527  11.593  68.088  1.00  0.00    -0.313 A  
HETATM   13  C   UNL     1     -10.988  10.289  68.007  1.00  0.00    -0.289 A  
HETATM   14  C   UNL     1     -11.050   9.534  69.205  1.00  0.00    -0.082 A  
HETATM   15  C   UNL     1     -11.613  10.043  70.389  1.00  0.00    -0.302 A  
HETATM   16  C   UNL     1     -12.129  11.328  70.436  1.00  0.00    -0.474 A  
HETATM   17  C   UNL     1     -12.075  12.101  69.287  1.00  0.00    -0.234 A  
BRANCH  15  18
HETATM   18  S   UNL     1     -11.768   8.994  71.823  1.00  0.00    -0.381 S  
HETATM   19  O   UNL     1     -12.789   9.564  72.676  1.00  0.00    -0.261 OA 
HETATM   20  O   UNL     1     -10.427   8.756  72.324  1.00  0.00    -0.329 OA 
BRANCH  18  21
HETATM   21  N   UNL     1     -12.350   7.533  71.178  1.00  0.00    -0.313 N  
HETATM   22  C   UNL     1     -13.724   7.148  71.539  1.00  0.00    -0.309 C  
HETATM   23  C   UNL     1     -11.412   6.397  71.151  1.00  0.00    -0.323 C  
ENDBRANCH  18  21
ENDBRANCH  15  18
ENDBRANCH   3   4
ENDBRANCH   2   3
BRANCH   2  24
HETATM   24  N   UNL     1      -8.175   6.891  68.237  1.00  0.00    -0.122 NA 
HETATM   25  C   UNL     1      -8.243   7.183  69.685  1.00  0.00    -0.131 C  
HETATM   26  C   UNL     1      -9.147   5.820  67.982  1.00  0.00    -0.110 C  
ENDBRANCH   2  24
TORSDOF 5
ENDMDL
MODEL       45
REMARK 921   NORMALIZED FREE ENERGY PREDICTED BY IDOCK:   -5.11 KCAL/MOL
REMARK 922        TOTAL FREE ENERGY PREDICTED BY IDOCK:   -7.46 KCAL/MOL
REMARK 923 INTER-LIGAND FREE ENERGY PREDICTED BY IDOCK:   -7.00 KCAL/MOL
REMARK 924 INTRA-LIGAND FREE ENERGY PREDICTED BY IDOCK:   -0.47 KCAL/MOL
REMARK 927      BINDING AFFINITY PREDICTED BY RF-SCORE:    0.00 PKD
ROOT
HETATM    1  C   UNL     1     -11.336  16.666  68.423  1.00  0.00    -0.142 C  
HETATM    2  C   UNL     1     -10.192  17.636  68.026  1.00  0.00    -0.362 C  
ENDROOT
BRANCH   2   3
HETATM    3  C   UNL     1      -9.163  16.748  67.213  1.00  0.00    -0.228 C  
BRANCH   3   4
HETATM    4  N   UNL     1      -8.216  15.887  67.973  1.00  0.00    -0.147 NA 
HETATM    5  C   UNL     1      -7.218  16.551  68.759  1.00  0.00    -0.197 A  
HETATM    6  C   UNL     1      -7.084  17.958  68.797  1.00  0.00    -0.268 A  
HETATM    7  C   UNL     1      -6.057  18.611  69.494  1.00  0.00    -0.280 A  
HETATM    8  C   UNL     1      -5.141  17.878  70.225  1.00  0.00    -0.236 A  
HETATM    9  C   UNL     1      -5.263  16.497  70.254  1.00  0.00    -0.194 A  
HETATM   10  C   UNL     1      -6.278  15.836  69.531  1.00  0.00    -0.154 A  
HETATM   11  S   UNL     1      -6.250  14.074  69.686  1.00  0.00    -0.132 SA 
HETATM   12  C   UNL     1      -7.562  13.573  68.607  1.00  0.00    -0.108 A  
HETATM   13  C   UNL     1      -8.401  14.465  67.900  1.00  0.00    -0.162 A  
HETATM   14  C   UNL     1      -9.404  13.853  67.108  1.00  0.00    -0.244 A  
HETATM   15  C   UNL     1      -9.558  12.457  67.034  1.00  0.00    -0.211 A  
HETATM   16  C   UNL     1      -8.716  11.610  67.735  1.00  0.00    -0.152 A  
HETATM   17  C   UNL     1      -7.715  12.172  68.511  1.00  0.00    -0.119 A  
BRANCH  15  18
HETATM   18  S   UNL     1     -10.919  11.761  66.113  1.00  0.00    -0.301 S  
HETATM   19  O   UNL     1     -12.000  11.520  67.044  1.00  0.00    -0.556 OA 
HETATM   20  O   UNL     1     -10.379  10.684  65.304  1.00  0.00    -0.290 OA 
BRANCH  18  21
HETATM   21  N   UNL     1     -11.370  13.022  65.067  1.00  0.00    -0.290 N  
HETATM   22  C   UNL     1     -12.543  13.822  65.458  1.00  0.00    -0.512 C  
HETATM   23  C   UNL     1     -11.308  12.742  63.622  1.00  0.00    -0.453 C  
ENDBRANCH  18  21
ENDBRANCH  15  18
ENDBRANCH   3   4
ENDBRANCH   2   3
BRANCH   2  24
HETATM   24  N   UNL     1     -10.787  18.882  67.444  1.00  0.00    -0.441 NA 
HETATM   25  C   UNL     1     -10.389  20.065  68.237  1.00  0.00    -0.355 C  
HETATM   26  C   UNL     1     -10.340  19.133  66.068  1.00  0.00    -0.463 C  
ENDBRANCH   2  24
TORSDOF 5
ENDMDL
MODEL       46
REMARK 921   NORMALIZED FREE ENERGY PREDICTED BY IDOCK:   -5.09 KCAL/MOL
REMARK 922        TOTAL FREE ENERGY PREDICTED BY IDOCK:   -7.44 KCAL/MOL
REMARK 923 INTER-LIGAND FREE ENERGY PREDICTED BY IDOCK:   -6.60 KCAL/MOL
REMARK 924 INTRA-LIGAND FREE ENERGY PREDICTED BY IDOCK:   -0.84 KCAL/MOL
REMARK 927      BINDING AFFINITY PREDICTED BY RF-SCORE:    0.00 PKD
ROOT
HETATM    1  C   UNL     1     -12.238  15.028  64.224  1.00  0.00    -0.312 C  
HETATM    2  C   UNL     1     -11.031  14.344  64.920  1.00  0.00    -0.406 C  
ENDROOT
BRANCH   2   3
HETATM    3  C   UNL     1     -10.912  15.055  66.330  1.00  0.00    -0.338 C  
BRANCH   3   4
HETATM    4  N   UNL     1      -9.609  15.669  66.705  1.00  0.00    -0.231 NA 
HETATM    5  C   UNL     1      -9.511  17.096  66.615  1.00  0.00    -0.264 A  
HETATM    6  C   UNL     1     -10.571  17.909  66.152  1.00  0.00    -0.243 A  
HETATM    7  C   UNL     1     -10.454  19.296  65.979  1.00  0.00    -0.573 A  
HETATM    8  C   UNL     1      -9.275  19.938  66.310  1.00  0.00    -0.457 A  
HETATM    9  C   UNL     1      -8.225  19.185  66.813  1.00  0.00    -0.292 A  
HETATM   10  C   UNL     1      -8.331  17.787  66.961  1.00  0.00    -0.226 A  
HETATM   11  S   UNL     1      -6.875  17.012  67.602  1.00  0.00    -0.146 SA 
HETATM   12  C   UNL     1      -7.308  15.295  67.572  1.00  0.00    -0.196 A  
HETATM   13  C   UNL     1      -8.569  14.796  67.173  1.00  0.00    -0.226 A  
HETATM   14  C   UNL     1      -8.713  13.388  67.245  1.00  0.00    -0.219 A  
HETATM   15  C   UNL     1      -7.676  12.546  67.687  1.00  0.00    -0.151 A  
HETATM   16  C   UNL     1      -6.450  13.067  68.066  1.00  0.00    -0.120 A  
HETATM   17  C   UNL     1      -6.268  14.439  67.997  1.00  0.00    -0.162 A  
BRANCH  15  18
HETATM   18  S   UNL     1      -7.968  10.796  67.867  1.00  0.00    -0.113 S  
HETATM   19  O   UNL     1      -8.719  10.600  69.089  1.00  0.00    -0.163 OA 
HETATM   20  O   UNL     1      -6.697  10.128  67.659  1.00  0.00    -0.073 OA 
BRANCH  18  21
HETATM   21  N   UNL     1      -8.972  10.428  66.546  1.00  0.00    -0.144 N  
HETATM   22  C   UNL     1     -10.316   9.911  66.855  1.00  0.00    -0.235 C  
HETATM   23  C   UNL     1      -8.339   9.761  65.395  1.00  0.00    -0.139 C  
ENDBRANCH  18  21
ENDBRANCH  15  18
ENDBRANCH   3   4
ENDBRANCH   2   3
BRANCH   2  24
HETATM   24  N   UNL     1     -11.174  12.857  64.798  1.00  0.00    -0.296 NA 
HETATM   25  C   UNL     1     -12.594  12.486  64.615  1.00  0.00    -0.426 C  
HETATM   26  C   UNL     1     -10.450  12.313  63.642  1.00  0.00    -0.450 C  
ENDBRANCH   2  24
TORSDOF 5
ENDMDL
MODEL       47
REMARK 921   NORMALIZED FREE ENERGY PREDICTED BY IDOCK:   -5.08 KCAL/MOL
REMARK 922        TOTAL FREE ENERGY PREDICTED BY IDOCK:   -7.42 KCAL/MOL
REMARK 923 INTER-LIGAND FREE ENERGY PREDICTED BY IDOCK:   -6.88 KCAL/MOL
REMARK 924 INTRA-LIGAND FREE ENERGY PREDICTED BY IDOCK:   -0.54 KCAL/MOL
REMARK 927      BINDING AFFINITY PREDICTED BY RF-SCORE:    0.00 PKD
ROOT
HETATM    1  C   UNL     1     -10.686   7.442  66.958  1.00  0.00    -0.389 C  
HETATM    2  C   UNL     1      -9.877   8.756  67.107  1.00  0.00    -0.207 C  
ENDROOT
BRANCH   2   3
HETATM    3  C   UNL     1      -9.266   8.702  68.566  1.00  0.00    -0.138 C  
BRANCH   3   4
HETATM    4  N   UNL     1     -10.200   8.642  69.723  1.00  0.00    -0.200 NA 
HETATM    5  C   UNL     1     -10.252   7.411  70.456  1.00  0.00    -0.193 A  
HETATM    6  C   UNL     1      -9.495   6.272  70.095  1.00  0.00    -0.172 A  
HETATM    7  C   UNL     1      -9.606   5.039  70.754  1.00  0.00    -0.244 A  
HETATM    8  C   UNL     1     -10.450   4.906  71.840  1.00  0.00    -0.233 A  
HETATM    9  C   UNL     1     -11.176   6.012  72.258  1.00  0.00    -0.341 A  
HETATM   10  C   UNL     1     -11.088   7.245  71.579  1.00  0.00    -0.237 A  
HETATM   11  S   UNL     1     -12.107   8.522  72.260  1.00  0.00    -0.373 SA 
HETATM   12  C   UNL     1     -11.833   9.869  71.142  1.00  0.00    -0.386 A  
HETATM   13  C   UNL     1     -10.940   9.829  70.047  1.00  0.00    -0.277 A  
HETATM   14  C   UNL     1     -10.855  11.025  69.292  1.00  0.00    -0.285 A  
HETATM   15  C   UNL     1     -11.603  12.173  69.612  1.00  0.00    -0.291 A  
HETATM   16  C   UNL     1     -12.474  12.177  70.689  1.00  0.00    -0.330 A  
HETATM   17  C   UNL     1     -12.592  11.021  71.444  1.00  0.00    -0.498 A  
BRANCH  15  18
HETATM   18  S   UNL     1     -11.356  13.681  68.691  1.00  0.00    -0.309 S  
HETATM   19  O   UNL     1     -11.244  14.763  69.644  1.00  0.00    -0.256 OA 
HETATM   20  O   UNL     1     -12.360  13.710  67.644  1.00  0.00    -0.257 OA 
BRANCH  18  21
HETATM   21  N   UNL     1      -9.842  13.445  67.954  1.00  0.00    -0.229 N  
HETATM   22  C   UNL     1      -8.703  14.184  68.524  1.00  0.00    -0.166 C  
HETATM   23  C   UNL     1      -9.822  13.382  66.482  1.00  0.00    -0.286 C  
ENDBRANCH  18  21
ENDBRANCH  15  18
ENDBRANCH   3   4
ENDBRANCH   2   3
BRANCH   2  24
HETATM   24  N   UNL     1      -9.010   8.936  65.897  1.00  0.00    -0.187 NA 
HETATM   25  C   UNL     1      -9.560   9.990  65.017  1.00  0.00    -0.297 C  
HETATM   26  C   UNL     1      -7.643   9.350  66.237  1.00  0.00    -0.097 C  
ENDBRANCH   2  24
TORSDOF 5
ENDMDL
MODEL       48
REMARK 921   NORMALIZED FREE ENERGY PREDICTED BY IDOCK:   -5.02 KCAL/MOL
REMARK 922        TOTAL FREE ENERGY PREDICTED BY IDOCK:   -7.35 KCAL/MOL
REMARK 923 INTER-LIGAND FREE ENERGY PREDICTED BY IDOCK:   -6.69 KCAL/MOL
REMARK 924 INTRA-LIGAND FREE ENERGY PREDICTED BY IDOCK:   -0.66 KCAL/MOL
REMARK 927      BINDING AFFINITY PREDICTED BY RF-SCORE:    0.00 PKD
ROOT
HETATM    1  C   UNL     1     -10.753   9.425  68.767  1.00  0.00    -0.200 C  
HETATM    2  C   UNL     1     -10.292   8.446  67.656  1.00  0.00    -0.252 C  
ENDROOT
BRANCH   2   3
HETATM    3  C   UNL     1      -8.992   9.105  67.039  1.00  0.00    -0.123 C  
BRANCH   3   4
HETATM    4  N   UNL     1      -8.890   9.219  65.558  1.00  0.00    -0.174 NA 
HETATM    5  C   UNL     1      -8.113   8.223  64.880  1.00  0.00    -0.150 A  
HETATM    6  C   UNL     1      -7.426   7.192  65.561  1.00  0.00    -0.083 A  
HETATM    7  C   UNL     1      -6.595   6.267  64.912  1.00  0.00    -0.039 A  
HETATM    8  C   UNL     1      -6.453   6.308  63.538  1.00  0.00    -0.029 A  
HETATM    9  C   UNL     1      -7.147   7.274  62.825  1.00  0.00    -0.072 A  
HETATM   10  C   UNL     1      -7.961   8.223  63.478  1.00  0.00    -0.154 A  
HETATM   11  S   UNL     1      -8.744   9.379  62.390  1.00  0.00    -0.237 SA 
HETATM   12  C   UNL     1      -9.589  10.453  63.516  1.00  0.00    -0.310 A  
HETATM   13  C   UNL     1      -9.611  10.283  64.919  1.00  0.00    -0.304 A  
HETATM   14  C   UNL     1     -10.368  11.245  65.634  1.00  0.00    -0.310 A  
HETATM   15  C   UNL     1     -11.052  12.293  64.992  1.00  0.00    -0.316 A  
HETATM   16  C   UNL     1     -11.006  12.435  63.615  1.00  0.00    -0.525 A  
HETATM   17  C   UNL     1     -10.266  11.520  62.884  1.00  0.00    -0.188 A  
BRANCH  15  18
HETATM   18  S   UNL     1     -12.083  13.396  65.943  1.00  0.00    -0.452 S  
HETATM   19  O   UNL     1     -12.320  12.775  67.229  1.00  0.00    -0.335 OA 
HETATM   20  O   UNL     1     -13.190  13.787  65.090  1.00  0.00    -0.757 OA 
BRANCH  18  21
HETATM   21  N   UNL     1     -11.093  14.759  66.170  1.00  0.00    -0.336 N  
HETATM   22  C   UNL     1     -11.149  15.408  67.491  1.00  0.00    -0.315 C  
HETATM   23  C   UNL     1     -11.009  15.713  65.051  1.00  0.00    -0.431 C  
ENDBRANCH  18  21
ENDBRANCH  15  18
ENDBRANCH   3   4
ENDBRANCH   2   3
BRANCH   2  24
HETATM   24  N   UNL     1     -10.282   7.052  68.207  1.00  0.00    -0.174 NA 
HETATM   25  C   UNL     1     -10.613   6.073  67.150  1.00  0.00    -0.302 C  
HETATM   26  C   UNL     1      -8.969   6.663  68.738  1.00  0.00    -0.125 C  
ENDBRANCH   2  24
TORSDOF 5
ENDMDL
MODEL       49
REMARK 921   NORMALIZED FREE ENERGY PREDICTED BY IDOCK:   -5.01 KCAL/MOL
REMARK 922        TOTAL FREE ENERGY PREDICTED BY IDOCK:   -7.34 KCAL/MOL
REMARK 923 INTER-LIGAND FREE ENERGY PREDICTED BY IDOCK:   -6.47 KCAL/MOL
REMARK 924 INTRA-LIGAND FREE ENERGY PREDICTED BY IDOCK:   -0.86 KCAL/MOL
REMARK 927      BINDING AFFINITY PREDICTED BY RF-SCORE:    0.00 PKD
ROOT
HETATM    1  C   UNL     1      -7.586   7.236  66.455  1.00  0.00    -0.092 C  
HETATM    2  C   UNL     1      -8.002   8.679  66.066  1.00  0.00    -0.107 C  
ENDROOT
BRANCH   2   3
HETATM    3  C   UNL     1      -9.585   8.673  66.089  1.00  0.00    -0.235 C  
BRANCH   3   4
HETATM    4  N   UNL     1     -10.290   9.844  66.677  1.00  0.00    -0.224 NA 
HETATM    5  C   UNL     1     -10.618  10.920  65.789  1.00  0.00    -0.163 A  
HETATM    6  C   UNL     1     -10.263  10.920  64.420  1.00  0.00    -0.423 A  
HETATM    7  C   UNL     1     -10.505  12.006  63.566  1.00  0.00    -0.505 A  
HETATM    8  C   UNL     1     -11.158  13.128  64.039  1.00  0.00    -0.395 A  
HETATM    9  C   UNL     1     -11.566  13.152  65.365  1.00  0.00    -0.362 A  
HETATM   10  C   UNL     1     -11.300  12.073  66.233  1.00  0.00    -0.357 A  
HETATM   11  S   UNL     1     -11.888  12.308  67.885  1.00  0.00    -0.195 SA 
HETATM   12  C   UNL     1     -11.318  10.846  68.707  1.00  0.00    -0.292 A  
HETATM   13  C   UNL     1     -10.629   9.789  68.071  1.00  0.00    -0.243 A  
HETATM   14  C   UNL     1     -10.283   8.701  68.911  1.00  0.00    -0.221 A  
HETATM   15  C   UNL     1     -10.606   8.673  70.279  1.00  0.00    -0.223 A  
HETATM   16  C   UNL     1     -11.278   9.728  70.874  1.00  0.00    -0.429 A  
HETATM   17  C   UNL     1     -11.622  10.816  70.086  1.00  0.00    -0.424 A  
BRANCH  15  18
HETATM   18  S   UNL     1     -10.246   7.218  71.248  1.00  0.00    -0.188 S  
HETATM   19  O   UNL     1      -9.091   6.575  70.661  1.00  0.00    -0.147 OA 
HETATM   20  O   UNL     1     -11.495   6.498  71.415  1.00  0.00    -0.282 OA 
BRANCH  18  21
HETATM   21  N   UNL     1      -9.805   7.855  72.761  1.00  0.00    -0.243 N  
HETATM   22  C   UNL     1      -8.396   8.247  72.932  1.00  0.00    -0.180 C  
HETATM   23  C   UNL     1     -10.380   7.202  73.950  1.00  0.00    -0.296 C  
ENDBRANCH  18  21
ENDBRANCH  15  18
ENDBRANCH   3   4
ENDBRANCH   2   3
BRANCH   2  24
HETATM   24  N   UNL     1      -7.207   9.653  66.882  1.00  0.00    -0.090 NA 
HETATM   25  C   UNL     1      -6.045   8.982  67.503  1.00  0.00    -0.051 C  
HETATM   26  C   UNL     1      -6.669  10.757  66.077  1.00  0.00    -0.109 C  
ENDBRANCH   2  24
TORSDOF 5
ENDMDL
MODEL       50
REMARK 921   NORMALIZED FREE ENERGY PREDICTED BY IDOCK:   -4.97 KCAL/MOL
REMARK 922        TOTAL FREE ENERGY PREDICTED BY IDOCK:   -7.28 KCAL/MOL
REMARK 923 INTER-LIGAND FREE ENERGY PREDICTED BY IDOCK:   -6.50 KCAL/MOL
REMARK 924 INTRA-LIGAND FREE ENERGY PREDICTED BY IDOCK:   -0.78 KCAL/MOL
REMARK 927      BINDING AFFINITY PREDICTED BY RF-SCORE:    0.00 PKD
ROOT
HETATM    1  C   UNL     1      -6.143  16.468  69.740  1.00  0.00    -0.215 C  
HETATM    2  C   UNL     1      -6.962  15.344  69.053  1.00  0.00    -0.138 C  
ENDROOT
BRANCH   2   3
HETATM    3  C   UNL     1      -8.476  15.768  69.234  1.00  0.00    -0.258 C  
BRANCH   3   4
HETATM    4  N   UNL     1      -9.312  15.948  68.015  1.00  0.00    -0.200 NA 
HETATM    5  C   UNL     1      -9.417  17.277  67.488  1.00  0.00    -0.245 A  
HETATM    6  C   UNL     1      -8.803  18.395  68.099  1.00  0.00    -0.319 A  
HETATM    7  C   UNL     1      -8.972  19.708  67.638  1.00  0.00    -0.384 A  
HETATM    8  C   UNL     1      -9.732  19.954  66.510  1.00  0.00    -0.547 A  
HETATM    9  C   UNL     1     -10.314  18.881  65.851  1.00  0.00    -0.408 A  
HETATM   10  C   UNL     1     -10.168  17.562  66.329  1.00  0.00    -0.355 A  
HETATM   11  S   UNL     1     -11.002  16.342  65.356  1.00  0.00    -0.065 SA 
HETATM   12  C   UNL     1     -10.698  14.853  66.265  1.00  0.00    -0.320 A  
HETATM   13  C   UNL     1      -9.908  14.778  67.435  1.00  0.00    -0.222 A  
HETATM   14  C   UNL     1      -9.776  13.482  67.994  1.00  0.00    -0.228 A  
HETATM   15  C   UNL     1     -10.384  12.350  67.423  1.00  0.00    -0.207 A  
HETATM   16  C   UNL     1     -11.157  12.458  66.278  1.00  0.00    -0.344 A  
HETATM   17  C   UNL     1     -11.319  13.712  65.710  1.00  0.00    -0.315 A  
BRANCH  15  18
HETATM   18  S   UNL     1     -10.074  10.733  68.110  1.00  0.00    -0.170 S  
HETATM   19  O   UNL     1      -8.640  10.562  68.201  1.00  0.00    -0.118 OA 
HETATM   20  O   UNL     1     -10.890   9.791  67.367  1.00  0.00    -0.274 OA 
BRANCH  18  21
HETATM   21  N   UNL     1     -10.711  10.848  69.682  1.00  0.00    -0.218 N  
HETATM   22  C   UNL     1     -10.587   9.656  70.538  1.00  0.00    -0.306 C  
HETATM   23  C   UNL     1     -12.003  11.540  69.827  1.00  0.00    -0.346 C  
ENDBRANCH  18  21
ENDBRANCH  15  18
ENDBRANCH   3   4
ENDBRANCH   2   3
BRANCH   2  24
HETATM   24  N   UNL     1      -6.377  15.069  67.701  1.00  0.00    -0.241 NA 
HETATM   25  C   UNL     1      -5.677  16.266  67.186  1.00  0.00    -0.050 C  
HETATM   26  C   UNL     1      -5.387  13.985  67.722  1.00  0.00    -0.009 C  
ENDBRANCH   2  24
TORSDOF 5
ENDMDL
MODEL       51
REMARK 921   NORMALIZED FREE ENERGY PREDICTED BY IDOCK:   -4.94 KCAL/MOL
REMARK 922        TOTAL FREE ENERGY PREDICTED BY IDOCK:   -7.25 KCAL/MOL
REMARK 923 INTER-LIGAND FREE ENERGY PREDICTED BY IDOCK:   -6.36 KCAL/MOL
REMARK 924 INTRA-LIGAND FREE ENERGY PREDICTED BY IDOCK:   -0.89 KCAL/MOL
REMARK 927      BINDING AFFINITY PREDICTED BY RF-SCORE:    0.00 PKD
ROOT
HETATM    1  C   UNL     1      -7.442   8.088  68.739  1.00  0.00    -0.091 C  
HETATM    2  C   UNL     1      -8.022   9.507  68.983  1.00  0.00    -0.092 C  
ENDROOT
BRANCH   2   3
HETATM    3  C   UNL     1      -9.521   9.431  68.480  1.00  0.00    -0.145 C  
BRANCH   3   4
HETATM    4  N   UNL     1     -10.603   9.851  69.412  1.00  0.00    -0.215 NA 
HETATM    5  C   UNL     1     -11.211   8.825  70.208  1.00  0.00    -0.195 A  
HETATM    6  C   UNL     1     -10.853   7.461  70.104  1.00  0.00    -0.270 A  
HETATM    7  C   UNL     1     -11.503   6.442  70.816  1.00  0.00    -0.415 A  
HETATM    8  C   UNL     1     -12.515   6.754  71.704  1.00  0.00    -0.398 A  
HETATM    9  C   UNL     1     -12.867   8.085  71.872  1.00  0.00    -0.343 A  
HETATM   10  C   UNL     1     -12.234   9.109  71.137  1.00  0.00    -0.285 A  
HETATM   11  S   UNL     1     -12.840  10.734  71.485  1.00  0.00    -0.456 SA 
HETATM   12  C   UNL     1     -11.920  11.738  70.353  1.00  0.00    -0.332 A  
HETATM   13  C   UNL     1     -10.922  11.249  69.480  1.00  0.00    -0.191 A  
HETATM   14  C   UNL     1     -10.292  12.227  68.671  1.00  0.00    -0.204 A  
HETATM   15  C   UNL     1     -10.632  13.591  68.736  1.00  0.00    -0.218 A  
HETATM   16  C   UNL     1     -11.619  14.038  69.600  1.00  0.00    -0.348 A  
HETATM   17  C   UNL     1     -12.265  13.107  70.398  1.00  0.00    -0.389 A  
BRANCH  15  18
HETATM   18  S   UNL     1      -9.713  14.783  67.778  1.00  0.00    -0.215 S  
HETATM   19  O   UNL     1     -10.309  16.082  68.006  1.00  0.00    -0.252 OA 
HETATM   20  O   UNL     1      -9.590  14.246  66.435  1.00  0.00    -0.282 OA 
BRANCH  18  21
HETATM   21  N   UNL     1      -8.172  14.756  68.494  1.00  0.00    -0.146 N  
HETATM   22  C   UNL     1      -7.726  15.992  69.158  1.00  0.00    -0.231 C  
HETATM   23  C   UNL     1      -7.102  14.076  67.742  1.00  0.00    -0.173 C  
ENDBRANCH  18  21
ENDBRANCH  15  18
ENDBRANCH   3   4
ENDBRANCH   2   3
BRANCH   2  24
HETATM   24  N   UNL     1      -7.679   9.942  70.375  1.00  0.00    -0.247 NA 
HETATM   25  C   UNL     1      -7.571   8.771  71.273  1.00  0.00    -0.110 C  
HETATM   26  C   UNL     1      -6.390  10.642  70.448  1.00  0.00    -0.117 C  
ENDBRANCH   2  24
TORSDOF 5
ENDMDL
MODEL       52
REMARK 921   NORMALIZED FREE ENERGY PREDICTED BY IDOCK:   -4.90 KCAL/MOL
REMARK 922        TOTAL FREE ENERGY PREDICTED BY IDOCK:   -7.20 KCAL/MOL
REMARK 923 INTER-LIGAND FREE ENERGY PREDICTED BY IDOCK:   -6.69 KCAL/MOL
REMARK 924 INTRA-LIGAND FREE ENERGY PREDICTED BY IDOCK:   -0.50 KCAL/MOL
REMARK 927      BINDING AFFINITY PREDICTED BY RF-SCORE:    0.00 PKD
ROOT
HETATM    1  C   UNL     1      -7.233   6.784  67.346  1.00  0.00    -0.090 C  
HETATM    2  C   UNL     1      -8.679   7.000  67.864  1.00  0.00    -0.125 C  
ENDROOT
BRANCH   2   3
HETATM    3  C   UNL     1      -8.546   8.068  69.025  1.00  0.00    -0.137 C  
BRANCH   3   4
HETATM    4  N   UNL     1      -9.705   8.272  69.936  1.00  0.00    -0.178 NA 
HETATM    5  C   UNL     1     -10.020   7.205  70.839  1.00  0.00    -0.189 A  
HETATM    6  C   UNL     1      -9.309   5.982  70.858  1.00  0.00    -0.175 A  
HETATM    7  C   UNL     1      -9.666   4.902  71.679  1.00  0.00    -0.231 A  
HETATM    8  C   UNL     1     -10.730   5.018  72.554  1.00  0.00    -0.271 A  
HETATM    9  C   UNL     1     -11.426   6.217  72.602  1.00  0.00    -0.277 A  
HETATM   10  C   UNL     1     -11.087   7.295  71.758  1.00  0.00    -0.235 A  
HETATM   11  S   UNL     1     -12.108   8.725  71.963  1.00  0.00    -0.384 SA 
HETATM   12  C   UNL     1     -11.484   9.823  70.720  1.00  0.00    -0.342 A  
HETATM   13  C   UNL     1     -10.388   9.534  69.876  1.00  0.00    -0.236 A  
HETATM   14  C   UNL     1     -10.039  10.562  68.964  1.00  0.00    -0.230 A  
HETATM   15  C   UNL     1     -10.732  11.784  68.906  1.00  0.00    -0.205 A  
HETATM   16  C   UNL     1     -11.807  12.034  69.744  1.00  0.00    -0.401 A  
HETATM   17  C   UNL     1     -12.184  11.047  70.641  1.00  0.00    -0.481 A  
BRANCH  15  18
HETATM   18  S   UNL     1     -10.162  13.078  67.818  1.00  0.00    -0.233 S  
HETATM   19  O   UNL     1      -9.891  12.480  66.528  1.00  0.00    -0.234 OA 
HETATM   20  O   UNL     1      -9.131  13.810  68.530  1.00  0.00    -0.192 OA 
BRANCH  18  21
HETATM   21  N   UNL     1     -11.517  14.094  67.674  1.00  0.00    -0.319 N  
HETATM   22  C   UNL     1     -12.305  13.979  66.435  1.00  0.00    -0.431 C  
HETATM   23  C   UNL     1     -11.360  15.482  68.141  1.00  0.00    -0.345 C  
ENDBRANCH  18  21
ENDBRANCH  15  18
ENDBRANCH   3   4
ENDBRANCH   2   3
BRANCH   2  24
HETATM   24  N   UNL     1      -9.590   7.218  66.693  1.00  0.00    -0.182 NA 
HETATM   25  C   UNL     1     -10.993   6.947  67.070  1.00  0.00    -0.334 C  
HETATM   26  C   UNL     1      -9.551   8.600  66.197  1.00  0.00    -0.235 C  
ENDBRANCH   2  24
TORSDOF 5
ENDMDL
MODEL       53
REMARK 921   NORMALIZED FREE ENERGY PREDICTED BY IDOCK:   -4.86 KCAL/MOL
REMARK 922        TOTAL FREE ENERGY PREDICTED BY IDOCK:   -7.14 KCAL/MOL
REMARK 923 INTER-LIGAND FREE ENERGY PREDICTED BY IDOCK:   -6.30 KCAL/MOL
REMARK 924 INTRA-LIGAND FREE ENERGY PREDICTED BY IDOCK:   -0.84 KCAL/MOL
REMARK 927      BINDING AFFINITY PREDICTED BY RF-SCORE:    0.00 PKD
ROOT
HETATM    1  C   UNL     1     -10.532   5.703  68.932  1.00  0.00    -0.310 C  
HETATM    2  C   UNL     1     -10.333   6.720  67.778  1.00  0.00    -0.198 C  
ENDROOT
BRANCH   2   3
HETATM    3  C   UNL     1      -9.683   7.993  68.457  1.00  0.00    -0.159 C  
BRANCH   3   4
HETATM    4  N   UNL     1     -10.379   9.302  68.322  1.00  0.00    -0.209 NA 
HETATM    5  C   UNL     1     -11.118   9.767  69.459  1.00  0.00    -0.192 A  
HETATM    6  C   UNL     1     -11.237   9.020  70.654  1.00  0.00    -0.318 A  
HETATM    7  C   UNL     1     -12.029   9.429  71.737  1.00  0.00    -0.452 A  
HETATM    8  C   UNL     1     -12.703  10.634  71.686  1.00  0.00    -0.531 A  
HETATM    9  C   UNL     1     -12.576  11.422  70.552  1.00  0.00    -0.309 A  
HETATM   10  C   UNL     1     -11.803  11.000  69.450  1.00  0.00    -0.335 A  
HETATM   11  S   UNL     1     -11.785  12.141  68.098  1.00  0.00    -0.308 SA 
HETATM   12  C   UNL     1     -10.826  11.279  66.882  1.00  0.00    -0.282 A  
HETATM   13  C   UNL     1     -10.219  10.019  67.089  1.00  0.00    -0.228 A  
HETATM   14  C   UNL     1      -9.477   9.518  65.991  1.00  0.00    -0.294 A  
HETATM   15  C   UNL     1      -9.348  10.226  64.782  1.00  0.00    -0.260 A  
HETATM   16  C   UNL     1      -9.960  11.457  64.610  1.00  0.00    -0.315 A  
HETATM   17  C   UNL     1     -10.704  11.974  65.658  1.00  0.00    -0.313 A  
BRANCH  15  18
HETATM   18  S   UNL     1      -8.298   9.590  63.487  1.00  0.00    -0.191 S  
HETATM   19  O   UNL     1      -7.215  10.532  63.299  1.00  0.00    -0.088 OA 
HETATM   20  O   UNL     1      -9.162   9.219  62.382  1.00  0.00    -0.217 OA 
BRANCH  18  21
HETATM   21  N   UNL     1      -7.669   8.162  64.160  1.00  0.00    -0.129 N  
HETATM   22  C   UNL     1      -6.282   8.215  64.653  1.00  0.00    -0.056 C  
HETATM   23  C   UNL     1      -7.998   6.902  63.471  1.00  0.00    -0.066 C  
ENDBRANCH  18  21
ENDBRANCH  15  18
ENDBRANCH   3   4
ENDBRANCH   2   3
BRANCH   2  24
HETATM   24  N   UNL     1      -9.682   6.025  66.621  1.00  0.00    -0.153 NA 
HETATM   25  C   UNL     1      -8.263   5.735  66.922  1.00  0.00    -0.101 C  
HETATM   26  C   UNL     1     -10.312   4.737  66.307  1.00  0.00    -0.291 C  
ENDBRANCH   2  24
TORSDOF 5
ENDMDL
MODEL       54
REMARK 921   NORMALIZED FREE ENERGY PREDICTED BY IDOCK:   -4.81 KCAL/MOL
REMARK 922        TOTAL FREE ENERGY PREDICTED BY IDOCK:   -7.07 KCAL/MOL
REMARK 923 INTER-LIGAND FREE ENERGY PREDICTED BY IDOCK:   -6.39 KCAL/MOL
REMARK 924 INTRA-LIGAND FREE ENERGY PREDICTED BY IDOCK:   -0.68 KCAL/MOL
REMARK 927      BINDING AFFINITY PREDICTED BY RF-SCORE:    0.00 PKD
ROOT
HETATM    1  C   UNL     1      -8.296   9.571  63.070  1.00  0.00    -0.175 C  
HETATM    2  C   UNL     1      -8.303  10.187  64.494  1.00  0.00    -0.167 C  
ENDROOT
BRANCH   2   3
HETATM    3  C   UNL     1      -9.680   9.737  65.131  1.00  0.00    -0.268 C  
BRANCH   3   4
HETATM    4  N   UNL     1     -10.360  10.664  66.077  1.00  0.00    -0.245 NA 
HETATM    5  C   UNL     1     -11.027  11.799  65.511  1.00  0.00    -0.290 A  
HETATM    6  C   UNL     1     -11.022  12.078  64.125  1.00  0.00    -0.418 A  
HETATM    7  C   UNL     1     -11.599  13.232  63.574  1.00  0.00    -0.301 A  
HETATM    8  C   UNL     1     -12.250  14.138  64.389  1.00  0.00    -0.466 A  
HETATM    9  C   UNL     1     -12.321  13.879  65.750  1.00  0.00    -0.518 A  
HETATM   10  C   UNL     1     -11.717  12.734  66.311  1.00  0.00    -0.402 A  
HETATM   11  S   UNL     1     -11.906  12.599  68.064  1.00  0.00    -0.257 SA 
HETATM   12  C   UNL     1     -10.975  11.139  68.439  1.00  0.00    -0.227 A  
HETATM   13  C   UNL     1     -10.336  10.328  67.473  1.00  0.00    -0.229 A  
HETATM   14  C   UNL     1      -9.662   9.193  67.987  1.00  0.00    -0.177 A  
HETATM   15  C   UNL     1      -9.633   8.891  69.360  1.00  0.00    -0.163 A  
HETATM   16  C   UNL     1     -10.264   9.710  70.282  1.00  0.00    -0.333 A  
HETATM   17  C   UNL     1     -10.924  10.836  69.818  1.00  0.00    -0.314 A  
BRANCH  15  18
HETATM   18  S   UNL     1      -8.868   7.380  69.922  1.00  0.00    -0.141 S  
HETATM   19  O   UNL     1      -7.853   7.736  70.890  1.00  0.00    -0.086 OA 
HETATM   20  O   UNL     1      -8.532   6.607  68.741  1.00  0.00    -0.122 OA 
BRANCH  18  21
HETATM   21  N   UNL     1     -10.132   6.578  70.728  1.00  0.00    -0.184 N  
HETATM   22  C   UNL     1      -9.753   5.683  71.834  1.00  0.00    -0.160 C  
HETATM   23  C   UNL     1     -11.222   6.046  69.891  1.00  0.00    -0.368 C  
ENDBRANCH  18  21
ENDBRANCH  15  18
ENDBRANCH   3   4
ENDBRANCH   2   3
BRANCH   2  24
HETATM   24  N   UNL     1      -6.993   9.891  65.160  1.00  0.00    -0.121 NA 
HETATM   25  C   UNL     1      -5.884   9.979  64.186  1.00  0.00    -0.128 C  
HETATM   26  C   UNL     1      -6.679  10.841  66.235  1.00  0.00    -0.134 C  
ENDBRANCH   2  24
TORSDOF 5
ENDMDL
MODEL       55
REMARK 921   NORMALIZED FREE ENERGY PREDICTED BY IDOCK:   -4.80 KCAL/MOL
REMARK 922        TOTAL FREE ENERGY PREDICTED BY IDOCK:   -7.07 KCAL/MOL
REMARK 923 INTER-LIGAND FREE ENERGY PREDICTED BY IDOCK:   -6.68 KCAL/MOL
REMARK 924 INTRA-LIGAND FREE ENERGY PREDICTED BY IDOCK:   -0.39 KCAL/MOL
REMARK 927      BINDING AFFINITY PREDICTED BY RF-SCORE:    0.00 PKD
ROOT
HETATM    1  C   UNL     1     -11.541  16.198  71.895  1.00  0.00    -0.491 C  
HETATM    2  C   UNL     1     -12.127  15.315  70.762  1.00  0.00    -0.351 C  
ENDROOT
BRANCH   2   3
HETATM    3  C   UNL     1     -10.929  14.391  70.297  1.00  0.00     0.117 C  
BRANCH   3   4
HETATM    4  N   UNL     1     -10.876  13.962  68.873  1.00  0.00    -0.256 NA 
HETATM    5  C   UNL     1     -10.746  14.994  67.886  1.00  0.00    -0.268 A  
HETATM    6  C   UNL     1     -10.713  16.369  68.215  1.00  0.00    -0.337 A  
HETATM    7  C   UNL     1     -10.674  17.386  67.250  1.00  0.00    -0.219 A  
HETATM    8  C   UNL     1     -10.620  17.065  65.907  1.00  0.00    -0.221 A  
HETATM    9  C   UNL     1     -10.603  15.728  65.541  1.00  0.00    -0.424 A  
HETATM   10  C   UNL     1     -10.670  14.703  66.508  1.00  0.00    -0.312 A  
HETATM   11  S   UNL     1     -10.653  13.067  65.834  1.00  0.00    -0.279 SA 
HETATM   12  C   UNL     1     -10.841  12.056  67.276  1.00  0.00    -0.246 A  
HETATM   13  C   UNL     1     -10.909  12.553  68.598  1.00  0.00    -0.248 A  
HETATM   14  C   UNL     1     -11.038  11.568  69.609  1.00  0.00    -0.211 A  
HETATM   15  C   UNL     1     -11.089  10.193  69.319  1.00  0.00    -0.225 A  
HETATM   16  C   UNL     1     -11.025   9.739  68.012  1.00  0.00    -0.236 A  
HETATM   17  C   UNL     1     -10.911  10.673  66.995  1.00  0.00    -0.298 A  
BRANCH  15  18
HETATM   18  S   UNL     1     -11.129   9.005  70.649  1.00  0.00    -0.276 S  
HETATM   19  O   UNL     1     -12.151   8.029  70.336  1.00  0.00     0.034 OA 
HETATM   20  O   UNL     1     -11.173   9.756  71.890  1.00  0.00    -0.132 OA 
BRANCH  18  21
HETATM   21  N   UNL     1      -9.608   8.254  70.548  1.00  0.00    -0.166 N  
HETATM   22  C   UNL     1      -9.416   7.031  71.347  1.00  0.00    -0.159 C  
HETATM   23  C   UNL     1      -8.429   9.138  70.540  1.00  0.00    -0.205 C  
ENDBRANCH  18  21
ENDBRANCH  15  18
ENDBRANCH   3   4
ENDBRANCH   2   3
BRANCH   2  24
HETATM   24  N   UNL     1     -13.434  14.740  71.217  1.00  0.00    -0.391 NA 
HETATM   25  C   UNL     1     -13.216  13.484  71.966  1.00  0.00    -0.439 C  
HETATM   26  C   UNL     1     -14.164  15.641  72.118  1.00  0.00    -0.437 C  
ENDBRANCH   2  24
TORSDOF 5
ENDMDL
MODEL       56
REMARK 921   NORMALIZED FREE ENERGY PREDICTED BY IDOCK:   -4.77 KCAL/MOL
REMARK 922        TOTAL FREE ENERGY PREDICTED BY IDOCK:   -7.03 KCAL/MOL
REMARK 923 INTER-LIGAND FREE ENERGY PREDICTED BY IDOCK:   -6.34 KCAL/MOL
REMARK 924 INTRA-LIGAND FREE ENERGY PREDICTED BY IDOCK:   -0.69 KCAL/MOL
REMARK 927      BINDING AFFINITY PREDICTED BY RF-SCORE:    0.00 PKD
ROOT
HETATM    1  C   UNL     1     -11.393   6.333  70.416  1.00  0.00    -0.440 C  
HETATM    2  C   UNL     1     -10.569   7.329  69.557  1.00  0.00    -0.234 C  
ENDROOT
BRANCH   2   3
HETATM    3  C   UNL     1     -11.015   7.053  68.064  1.00  0.00    -0.113 C  
BRANCH   3   4
HETATM    4  N   UNL     1     -10.015   7.247  66.978  1.00  0.00    -0.204 NA 
HETATM    5  C   UNL     1      -9.273   6.093  66.563  1.00  0.00    -0.149 A  
HETATM    6  C   UNL     1      -9.428   4.824  67.167  1.00  0.00    -0.164 A  
HETATM    7  C   UNL     1      -8.644   3.712  66.824  1.00  0.00    -0.110 A  
HETATM    8  C   UNL     1      -7.697   3.814  65.823  1.00  0.00    -0.089 A  
HETATM    9  C   UNL     1      -7.544   5.029  65.171  1.00  0.00    -0.081 A  
HETATM   10  C   UNL     1      -8.311   6.156  65.532  1.00  0.00    -0.147 A  
HETATM   11  S   UNL     1      -7.952   7.611  64.592  1.00  0.00    -0.115 SA 
HETATM   12  C   UNL     1      -8.997   8.825  65.348  1.00  0.00    -0.160 A  
HETATM   13  C   UNL     1      -9.904   8.556  66.399  1.00  0.00    -0.257 A  
HETATM   14  C   UNL     1     -10.661   9.668  66.844  1.00  0.00    -0.241 A  
HETATM   15  C   UNL     1     -10.524  10.948  66.278  1.00  0.00    -0.245 A  
HETATM   16  C   UNL     1      -9.622  11.179  65.252  1.00  0.00    -0.268 A  
HETATM   17  C   UNL     1      -8.855  10.118  64.799  1.00  0.00    -0.219 A  
BRANCH  15  18
HETATM   18  S   UNL     1     -11.596  12.273  66.805  1.00  0.00    -0.345 S  
HETATM   19  O   UNL     1     -12.135  11.913  68.099  1.00  0.00    -0.516 OA 
HETATM   20  O   UNL     1     -12.475  12.579  65.692  1.00  0.00    -0.648 OA 
BRANCH  18  21
HETATM   21  N   UNL     1     -10.531  13.583  67.003  1.00  0.00    -0.264 N  
HETATM   22  C   UNL     1      -9.995  13.804  68.357  1.00  0.00    -0.229 C  
HETATM   23  C   UNL     1     -10.872  14.830  66.298  1.00  0.00    -0.322 C  
ENDBRANCH  18  21
ENDBRANCH  15  18
ENDBRANCH   3   4
ENDBRANCH   2   3
BRANCH   2  24
HETATM   24  N   UNL     1     -10.663   8.694  70.168  1.00  0.00    -0.232 NA 
HETATM   25  C   UNL     1     -11.833   8.781  71.067  1.00  0.00    -0.271 C  
HETATM   26  C   UNL     1      -9.487   9.032  70.981  1.00  0.00    -0.274 C  
ENDBRANCH   2  24
TORSDOF 5
ENDMDL
MODEL       57
REMARK 921   NORMALIZED FREE ENERGY PREDICTED BY IDOCK:   -4.77 KCAL/MOL
REMARK 922        TOTAL FREE ENERGY PREDICTED BY IDOCK:   -7.02 KCAL/MOL
REMARK 923 INTER-LIGAND FREE ENERGY PREDICTED BY IDOCK:   -6.30 KCAL/MOL
REMARK 924 INTRA-LIGAND FREE ENERGY PREDICTED BY IDOCK:   -0.72 KCAL/MOL
REMARK 927      BINDING AFFINITY PREDICTED BY RF-SCORE:    0.00 PKD
ROOT
HETATM    1  C   UNL     1     -13.608  11.854  72.170  1.00  0.00    -0.188 C  
HETATM    2  C   UNL     1     -12.663  12.980  71.674  1.00  0.00    -0.207 C  
ENDROOT
BRANCH   2   3
HETATM    3  C   UNL     1     -12.650  12.842  70.097  1.00  0.00     0.054 C  
BRANCH   3   4
HETATM    4  N   UNL     1     -11.342  12.647  69.414  1.00  0.00    -0.238 NA 
HETATM    5  C   UNL     1     -10.711  13.813  68.870  1.00  0.00    -0.227 A  
HETATM    6  C   UNL     1     -11.298  15.098  68.923  1.00  0.00    -0.314 A  
HETATM    7  C   UNL     1     -10.728  16.227  68.317  1.00  0.00    -0.322 A  
HETATM    8  C   UNL     1      -9.513  16.125  67.666  1.00  0.00    -0.220 A  
HETATM    9  C   UNL     1      -8.878  14.892  67.631  1.00  0.00    -0.184 A  
HETATM   10  C   UNL     1      -9.463  13.749  68.215  1.00  0.00    -0.214 A  
HETATM   11  S   UNL     1      -8.501  12.274  68.044  1.00  0.00    -0.178 SA 
HETATM   12  C   UNL     1      -9.543  11.049  68.786  1.00  0.00    -0.187 A  
HETATM   13  C   UNL     1     -10.790  11.322  69.393  1.00  0.00    -0.189 A  
HETATM   14  C   UNL     1     -11.453  10.198  69.947  1.00  0.00    -0.317 A  
HETATM   15  C   UNL     1     -10.906   8.902  69.899  1.00  0.00    -0.211 A  
HETATM   16  C   UNL     1      -9.684   8.668  69.292  1.00  0.00    -0.173 A  
HETATM   17  C   UNL     1      -9.012   9.741  68.729  1.00  0.00    -0.133 A  
BRANCH  15  18
HETATM   18  S   UNL     1     -11.738   7.556  70.723  1.00  0.00    -0.216 S  
HETATM   19  O   UNL     1     -11.919   6.495  69.756  1.00  0.00    -0.277 OA 
HETATM   20  O   UNL     1     -12.873   8.123  71.426  1.00  0.00    -0.308 OA 
BRANCH  18  21
HETATM   21  N   UNL     1     -10.605   7.048  71.884  1.00  0.00    -0.213 N  
HETATM   22  C   UNL     1     -10.762   5.683  72.413  1.00  0.00    -0.237 C  
HETATM   23  C   UNL     1     -10.219   8.033  72.911  1.00  0.00    -0.314 C  
ENDBRANCH  18  21
ENDBRANCH  15  18
ENDBRANCH   3   4
ENDBRANCH   2   3
BRANCH   2  24
HETATM   24  N   UNL     1     -13.037  14.264  72.350  1.00  0.00    -0.402 NA 
HETATM   25  C   UNL     1     -11.851  15.133  72.506  1.00  0.00    -0.384 C  
HETATM   26  C   UNL     1     -14.022  15.039  71.584  1.00  0.00    -0.502 C  
ENDBRANCH   2  24
TORSDOF 5
ENDMDL
MODEL       58
REMARK 921   NORMALIZED FREE ENERGY PREDICTED BY IDOCK:   -4.75 KCAL/MOL
REMARK 922        TOTAL FREE ENERGY PREDICTED BY IDOCK:   -7.00 KCAL/MOL
REMARK 923 INTER-LIGAND FREE ENERGY PREDICTED BY IDOCK:   -6.57 KCAL/MOL
REMARK 924 INTRA-LIGAND FREE ENERGY PREDICTED BY IDOCK:   -0.43 KCAL/MOL
REMARK 927      BINDING AFFINITY PREDICTED BY RF-SCORE:    0.00 PKD
ROOT
HETATM    1  C   UNL     1     -10.952   6.036  67.516  1.00  0.00    -0.335 C  
HETATM    2  C   UNL     1      -9.736   6.892  67.074  1.00  0.00    -0.163 C  
ENDROOT
BRANCH   2   3
HETATM    3  C   UNL     1      -9.080   7.403  68.421  1.00  0.00    -0.132 C  
BRANCH   3   4
HETATM    4  N   UNL     1      -9.976   7.908  69.498  1.00  0.00    -0.185 NA 
HETATM    5  C   UNL     1     -10.101   7.098  70.674  1.00  0.00    -0.191 A  
HETATM    6  C   UNL     1      -9.452   5.850  70.818  1.00  0.00    -0.192 A  
HETATM    7  C   UNL     1      -9.639   5.013  71.927  1.00  0.00    -0.199 A  
HETATM    8  C   UNL     1     -10.453   5.415  72.969  1.00  0.00    -0.246 A  
HETATM    9  C   UNL     1     -11.072   6.654  72.891  1.00  0.00    -0.263 A  
HETATM   10  C   UNL     1     -10.909   7.485  71.764  1.00  0.00    -0.227 A  
HETATM   11  S   UNL     1     -11.796   9.013  71.854  1.00  0.00    -0.370 SA 
HETATM   12  C   UNL     1     -11.453   9.749  70.279  1.00  0.00    -0.255 A  
HETATM   13  C   UNL     1     -10.605   9.183  69.300  1.00  0.00    -0.216 A  
HETATM   14  C   UNL     1     -10.450   9.949  68.118  1.00  0.00    -0.256 A  
HETATM   15  C   UNL     1     -11.091  11.188  67.933  1.00  0.00    -0.273 A  
HETATM   16  C   UNL     1     -11.920  11.712  68.911  1.00  0.00    -0.355 A  
HETATM   17  C   UNL     1     -12.105  10.986  70.076  1.00  0.00    -0.441 A  
BRANCH  15  18
HETATM   18  S   UNL     1     -10.755  12.154  66.472  1.00  0.00    -0.266 S  
HETATM   19  O   UNL     1     -11.942  12.127  65.645  1.00  0.00    -0.503 OA 
HETATM   20  O   UNL     1      -9.475  11.708  65.952  1.00  0.00    -0.223 OA 
BRANCH  18  21
HETATM   21  N   UNL     1     -10.550  13.727  67.081  1.00  0.00    -0.275 N  
HETATM   22  C   UNL     1     -11.600  14.707  66.756  1.00  0.00    -0.360 C  
HETATM   23  C   UNL     1      -9.189  14.288  67.030  1.00  0.00    -0.239 C  
ENDBRANCH  18  21
ENDBRANCH  15  18
ENDBRANCH   3   4
ENDBRANCH   2   3
BRANCH   2  24
HETATM   24  N   UNL     1      -8.946   6.129  66.054  1.00  0.00    -0.156 NA 
HETATM   25  C   UNL     1      -7.641   5.714  66.612  1.00  0.00    -0.092 C  
HETATM   26  C   UNL     1      -9.622   4.900  65.619  1.00  0.00    -0.155 C  
ENDBRANCH   2  24
TORSDOF 5
ENDMDL
MODEL       59
REMARK 921   NORMALIZED FREE ENERGY PREDICTED BY IDOCK:   -4.74 KCAL/MOL
REMARK 922        TOTAL FREE ENERGY PREDICTED BY IDOCK:   -6.98 KCAL/MOL
REMARK 923 INTER-LIGAND FREE ENERGY PREDICTED BY IDOCK:   -6.19 KCAL/MOL
REMARK 924 INTRA-LIGAND FREE ENERGY PREDICTED BY IDOCK:   -0.80 KCAL/MOL
REMARK 927      BINDING AFFINITY PREDICTED BY RF-SCORE:    0.00 PKD
ROOT
HETATM    1  C   UNL     1     -12.632  13.490  66.688  1.00  0.00    -0.114 C  
HETATM    2  C   UNL     1     -11.615  14.644  66.896  1.00  0.00    -0.362 C  
ENDROOT
BRANCH   2   3
HETATM    3  C   UNL     1     -10.819  14.259  68.209  1.00  0.00    -0.246 C  
BRANCH   3   4
HETATM    4  N   UNL     1      -9.374  13.920  68.088  1.00  0.00    -0.198 NA 
HETATM    5  C   UNL     1      -9.041  12.534  67.939  1.00  0.00    -0.199 A  
HETATM    6  C   UNL     1     -10.013  11.506  67.948  1.00  0.00    -0.193 A  
HETATM    7  C   UNL     1      -9.687  10.143  67.890  1.00  0.00    -0.166 A  
HETATM    8  C   UNL     1      -8.367   9.751  67.774  1.00  0.00    -0.114 A  
HETATM    9  C   UNL     1      -7.384  10.728  67.714  1.00  0.00    -0.093 A  
HETATM   10  C   UNL     1      -7.706  12.098  67.800  1.00  0.00    -0.139 A  
HETATM   11  S   UNL     1      -6.308  13.179  67.722  1.00  0.00    -0.162 SA 
HETATM   12  C   UNL     1      -7.044  14.775  67.948  1.00  0.00    -0.158 A  
HETATM   13  C   UNL     1      -8.432  15.003  68.081  1.00  0.00    -0.151 A  
HETATM   14  C   UNL     1      -8.811  16.361  68.231  1.00  0.00    -0.202 A  
HETATM   15  C   UNL     1      -7.871  17.408  68.242  1.00  0.00    -0.247 A  
HETATM   16  C   UNL     1      -6.516  17.149  68.114  1.00  0.00    -0.148 A  
HETATM   17  C   UNL     1      -6.108  15.832  67.978  1.00  0.00    -0.149 A  
BRANCH  15  18
HETATM   18  S   UNL     1      -8.429  19.101  68.312  1.00  0.00    -0.342 S  
HETATM   19  O   UNL     1      -7.320  19.909  68.771  1.00  0.00    -0.316 OA 
HETATM   20  O   UNL     1      -9.695  19.104  69.021  1.00  0.00    -0.396 OA 
BRANCH  18  21
HETATM   21  N   UNL     1      -8.741  19.478  66.684  1.00  0.00    -0.324 N  
HETATM   22  C   UNL     1      -7.612  19.993  65.893  1.00  0.00    -0.300 C  
HETATM   23  C   UNL     1     -10.018  20.153  66.392  1.00  0.00    -0.448 C  
ENDBRANCH  18  21
ENDBRANCH  15  18
ENDBRANCH   3   4
ENDBRANCH   2   3
BRANCH   2  24
HETATM   24  N   UNL     1     -10.913  14.916  65.600  1.00  0.00    -0.331 NA 
HETATM   25  C   UNL     1     -11.584  14.209  64.488  1.00  0.00    -0.389 C  
HETATM   26  C   UNL     1     -10.911  16.341  65.247  1.00  0.00    -0.297 C  
ENDBRANCH   2  24
TORSDOF 5
ENDMDL
MODEL       60
REMARK 921   NORMALIZED FREE ENERGY PREDICTED BY IDOCK:   -4.73 KCAL/MOL
REMARK 922        TOTAL FREE ENERGY PREDICTED BY IDOCK:   -6.98 KCAL/MOL
REMARK 923 INTER-LIGAND FREE ENERGY PREDICTED BY IDOCK:   -6.15 KCAL/MOL
REMARK 924 INTRA-LIGAND FREE ENERGY PREDICTED BY IDOCK:   -0.83 KCAL/MOL
REMARK 927      BINDING AFFINITY PREDICTED BY RF-SCORE:    0.00 PKD
ROOT
HETATM    1  C   UNL     1     -13.834  13.700  72.081  1.00  0.00    -0.642 C  
HETATM    2  C   UNL     1     -12.474  13.336  71.431  1.00  0.00    -0.188 C  
ENDROOT
BRANCH   2   3
HETATM    3  C   UNL     1     -12.835  12.364  70.235  1.00  0.00     0.345 C  
BRANCH   3   4
HETATM    4  N   UNL     1     -11.974  11.172  70.005  1.00  0.00    -0.335 NA 
HETATM    5  C   UNL     1     -12.410   9.933  70.580  1.00  0.00    -0.214 A  
HETATM    6  C   UNL     1     -13.576   9.824  71.372  1.00  0.00    -0.322 A  
HETATM    7  C   UNL     1     -13.961   8.635  72.009  1.00  0.00    -0.506 A  
HETATM    8  C   UNL     1     -13.212   7.485  71.840  1.00  0.00    -0.291 A  
HETATM    9  C   UNL     1     -12.086   7.535  71.032  1.00  0.00    -0.305 A  
HETATM   10  C   UNL     1     -11.681   8.736  70.414  1.00  0.00    -0.019 A  
HETATM   11  S   UNL     1     -10.211   8.592  69.441  1.00  0.00    -0.213 SA 
HETATM   12  C   UNL     1      -9.942  10.257  68.901  1.00  0.00    -0.201 A  
HETATM   13  C   UNL     1     -10.805  11.340  69.190  1.00  0.00    -0.222 A  
HETATM   14  C   UNL     1     -10.415  12.587  68.641  1.00  0.00    -0.220 A  
HETATM   15  C   UNL     1      -9.254  12.737  67.861  1.00  0.00    -0.205 A  
HETATM   16  C   UNL     1      -8.427  11.657  67.601  1.00  0.00    -0.142 A  
HETATM   17  C   UNL     1      -8.770  10.423  68.131  1.00  0.00    -0.125 A  
BRANCH  15  18
HETATM   18  S   UNL     1      -8.890  14.310  67.103  1.00  0.00    -0.232 S  
HETATM   19  O   UNL     1      -9.749  14.450  65.947  1.00  0.00    -0.306 OA 
HETATM   20  O   UNL     1      -7.447  14.396  66.972  1.00  0.00    -0.035 OA 
BRANCH  18  21
HETATM   21  N   UNL     1      -9.374  15.435  68.282  1.00  0.00    -0.190 N  
HETATM   22  C   UNL     1      -9.840  16.745  67.798  1.00  0.00    -0.257 C  
HETATM   23  C   UNL     1      -8.548  15.519  69.499  1.00  0.00    -0.218 C  
ENDBRANCH  18  21
ENDBRANCH  15  18
ENDBRANCH   3   4
ENDBRANCH   2   3
BRANCH   2  24
HETATM   24  N   UNL     1     -11.684  14.591  71.214  1.00  0.00    -0.274 NA 
HETATM   25  C   UNL     1     -12.343  15.452  70.208  1.00  0.00    -0.388 C  
HETATM   26  C   UNL     1     -11.559  15.398  72.434  1.00  0.00    -0.447 C  
ENDBRANCH   2  24
TORSDOF 5
ENDMDL
MODEL       61
REMARK 921   NORMALIZED FREE ENERGY PREDICTED BY IDOCK:   -4.73 KCAL/MOL
REMARK 922        TOTAL FREE ENERGY PREDICTED BY IDOCK:   -6.98 KCAL/MOL
REMARK 923 INTER-LIGAND FREE ENERGY PREDICTED BY IDOCK:   -6.28 KCAL/MOL
REMARK 924 INTRA-LIGAND FREE ENERGY PREDICTED BY IDOCK:   -0.69 KCAL/MOL
REMARK 927      BINDING AFFINITY PREDICTED BY RF-SCORE:    0.00 PKD
ROOT
HETATM    1  C   UNL     1     -11.507   8.180  72.624  1.00  0.00    -0.454 C  
HETATM    2  C   UNL     1     -11.460   9.319  71.572  1.00  0.00    -0.384 C  
ENDROOT
BRANCH   2   3
HETATM    3  C   UNL     1     -10.640   8.725  70.356  1.00  0.00    -0.221 C  
BRANCH   3   4
HETATM    4  N   UNL     1      -9.262   9.233  70.115  1.00  0.00    -0.206 NA 
HETATM    5  C   UNL     1      -8.177   8.434  70.604  1.00  0.00    -0.116 A  
HETATM    6  C   UNL     1      -8.374   7.234  71.326  1.00  0.00    -0.111 A  
HETATM    7  C   UNL     1      -7.321   6.494  71.882  1.00  0.00    -0.091 A  
HETATM    8  C   UNL     1      -6.013   6.902  71.698  1.00  0.00    -0.037 A  
HETATM    9  C   UNL     1      -5.771   8.048  70.955  1.00  0.00    -0.033 A  
HETATM   10  C   UNL     1      -6.830   8.810  70.418  1.00  0.00    -0.045 A  
HETATM   11  S   UNL     1      -6.310  10.243  69.520  1.00  0.00    -0.063 SA 
HETATM   12  C   UNL     1      -7.850  10.999  69.078  1.00  0.00    -0.126 A  
HETATM   13  C   UNL     1      -9.121  10.454  69.373  1.00  0.00    -0.152 A  
HETATM   14  C   UNL     1     -10.226  11.211  68.908  1.00  0.00    -0.209 A  
HETATM   15  C   UNL     1     -10.069  12.416  68.200  1.00  0.00    -0.224 A  
HETATM   16  C   UNL     1      -8.809  12.925  67.932  1.00  0.00    -0.190 A  
HETATM   17  C   UNL     1      -7.705  12.219  68.381  1.00  0.00    -0.141 A  
BRANCH  15  18
HETATM   18  S   UNL     1     -11.501  13.252  67.540  1.00  0.00    -0.342 S  
HETATM   19  O   UNL     1     -12.285  13.728  68.659  1.00  0.00    -0.347 OA 
HETATM   20  O   UNL     1     -12.084  12.375  66.541  1.00  0.00    -0.599 OA 
BRANCH  18  21
HETATM   21  N   UNL     1     -10.834  14.591  66.732  1.00  0.00    -0.299 N  
HETATM   22  C   UNL     1     -11.027  15.909  67.360  1.00  0.00    -0.257 C  
HETATM   23  C   UNL     1     -10.967  14.616  65.265  1.00  0.00    -0.367 C  
ENDBRANCH  18  21
ENDBRANCH  15  18
ENDBRANCH   3   4
ENDBRANCH   2   3
BRANCH   2  24
HETATM   24  N   UNL     1     -12.840   9.875  71.394  1.00  0.00    -0.374 NA 
HETATM   25  C   UNL     1     -13.789   9.215  72.316  1.00  0.00    -0.463 C  
HETATM   26  C   UNL     1     -12.912  11.313  71.682  1.00  0.00    -0.432 C  
ENDBRANCH   2  24
TORSDOF 5
ENDMDL
MODEL       62
REMARK 921   NORMALIZED FREE ENERGY PREDICTED BY IDOCK:   -4.69 KCAL/MOL
REMARK 922        TOTAL FREE ENERGY PREDICTED BY IDOCK:   -6.92 KCAL/MOL
REMARK 923 INTER-LIGAND FREE ENERGY PREDICTED BY IDOCK:   -6.02 KCAL/MOL
REMARK 924 INTRA-LIGAND FREE ENERGY PREDICTED BY IDOCK:   -0.91 KCAL/MOL
REMARK 927      BINDING AFFINITY PREDICTED BY RF-SCORE:    0.00 PKD
ROOT
HETATM    1  C   UNL     1     -12.158  14.250  66.955  1.00  0.00    -0.440 C  
HETATM    2  C   UNL     1     -11.476  12.889  67.258  1.00  0.00    -0.336 C  
ENDROOT
BRANCH   2   3
HETATM    3  C   UNL     1     -10.239  12.819  66.273  1.00  0.00    -0.253 C  
BRANCH   3   4
HETATM    4  N   UNL     1      -8.896  12.520  66.841  1.00  0.00    -0.210 NA 
HETATM    5  C   UNL     1      -8.544  11.138  66.987  1.00  0.00    -0.147 A  
HETATM    6  C   UNL     1      -9.427  10.083  66.658  1.00  0.00    -0.215 A  
HETATM    7  C   UNL     1      -9.122   8.732  66.880  1.00  0.00    -0.169 A  
HETATM    8  C   UNL     1      -7.893   8.376  67.402  1.00  0.00    -0.099 A  
HETATM    9  C   UNL     1      -6.978   9.376  67.695  1.00  0.00    -0.081 A  
HETATM   10  C   UNL     1      -7.292  10.737  67.500  1.00  0.00    -0.092 A  
HETATM   11  S   UNL     1      -5.997  11.854  67.952  1.00  0.00    -0.062 SA 
HETATM   12  C   UNL     1      -6.741  13.437  67.676  1.00  0.00    -0.167 A  
HETATM   13  C   UNL     1      -8.040  13.629  67.154  1.00  0.00    -0.077 A  
HETATM   14  C   UNL     1      -8.433  14.981  66.991  1.00  0.00    -0.258 A  
HETATM   15  C   UNL     1      -7.589  16.056  67.322  1.00  0.00    -0.194 A  
HETATM   16  C   UNL     1      -6.322  15.834  67.837  1.00  0.00    -0.160 A  
HETATM   17  C   UNL     1      -5.908  14.524  68.021  1.00  0.00    -0.149 A  
BRANCH  15  18
HETATM   18  S   UNL     1      -8.103  17.730  66.977  1.00  0.00    -0.228 S  
HETATM   19  O   UNL     1      -7.724  18.033  65.614  1.00  0.00    -0.539 OA 
HETATM   20  O   UNL     1      -7.641  18.553  68.079  1.00  0.00    -0.244 OA 
BRANCH  18  21
HETATM   21  N   UNL     1      -9.798  17.644  67.065  1.00  0.00    -0.294 N  
HETATM   22  C   UNL     1     -10.553  18.256  65.959  1.00  0.00    -0.296 C  
HETATM   23  C   UNL     1     -10.408  17.873  68.387  1.00  0.00    -0.374 C  
ENDBRANCH  18  21
ENDBRANCH  15  18
ENDBRANCH   3   4
ENDBRANCH   2   3
BRANCH   2  24
HETATM   24  N   UNL     1     -11.311  12.745  68.741  1.00  0.00    -0.268 NA 
HETATM   25  C   UNL     1     -12.125  13.753  69.454  1.00  0.00    -0.328 C  
HETATM   26  C   UNL     1     -11.748  11.433  69.233  1.00  0.00    -0.337 C  
ENDBRANCH   2  24
TORSDOF 5
ENDMDL
MODEL       63
REMARK 921   NORMALIZED FREE ENERGY PREDICTED BY IDOCK:   -4.68 KCAL/MOL
REMARK 922        TOTAL FREE ENERGY PREDICTED BY IDOCK:   -6.91 KCAL/MOL
REMARK 923 INTER-LIGAND FREE ENERGY PREDICTED BY IDOCK:   -6.15 KCAL/MOL
REMARK 924 INTRA-LIGAND FREE ENERGY PREDICTED BY IDOCK:   -0.76 KCAL/MOL
REMARK 927      BINDING AFFINITY PREDICTED BY RF-SCORE:    0.00 PKD
ROOT
HETATM    1  C   UNL     1      -7.792   7.795  67.363  1.00  0.00    -0.118 C  
HETATM    2  C   UNL     1      -7.973   6.841  68.573  1.00  0.00    -0.119 C  
ENDROOT
BRANCH   2   3
HETATM    3  C   UNL     1      -9.534   6.597  68.676  1.00  0.00    -0.128 C  
BRANCH   3   4
HETATM    4  N   UNL     1     -10.228   6.971  69.939  1.00  0.00    -0.197 NA 
HETATM    5  C   UNL     1     -10.333   5.959  70.948  1.00  0.00    -0.229 A  
HETATM    6  C   UNL     1      -9.851   4.642  70.767  1.00  0.00    -0.284 A  
HETATM    7  C   UNL     1     -10.028   3.624  71.715  1.00  0.00    -0.210 A  
HETATM    8  C   UNL     1     -10.660   3.895  72.914  1.00  0.00    -0.233 A  
HETATM    9  C   UNL     1     -11.107   5.186  73.154  1.00  0.00    -0.391 A  
HETATM   10  C   UNL     1     -10.956   6.205  72.190  1.00  0.00    -0.262 A  
HETATM   11  S   UNL     1     -11.609   7.773  72.684  1.00  0.00    -0.305 SA 
HETATM   12  C   UNL     1     -11.343   8.770  71.244  1.00  0.00    -0.291 A  
HETATM   13  C   UNL     1     -10.694   8.322  70.070  1.00  0.00    -0.239 A  
HETATM   14  C   UNL     1     -10.566   9.290  69.043  1.00  0.00    -0.225 A  
HETATM   15  C   UNL     1     -11.046  10.604  69.182  1.00  0.00    -0.255 A  
HETATM   16  C   UNL     1     -11.683  11.010  70.343  1.00  0.00    -0.437 A  
HETATM   17  C   UNL     1     -11.837  10.088  71.365  1.00  0.00    -0.447 A  
BRANCH  15  18
HETATM   18  S   UNL     1     -10.743  11.802  67.895  1.00  0.00    -0.216 S  
HETATM   19  O   UNL     1     -10.048  12.922  68.493  1.00  0.00    -0.233 OA 
HETATM   20  O   UNL     1     -11.995  11.996  67.188  1.00  0.00    -0.601 OA 
BRANCH  18  21
HETATM   21  N   UNL     1      -9.674  10.992  66.850  1.00  0.00    -0.185 N  
HETATM   22  C   UNL     1      -8.374  11.637  66.599  1.00  0.00    -0.154 C  
HETATM   23  C   UNL     1     -10.261  10.370  65.650  1.00  0.00    -0.238 C  
ENDBRANCH  18  21
ENDBRANCH  15  18
ENDBRANCH   3   4
ENDBRANCH   2   3
BRANCH   2  24
HETATM   24  N   UNL     1      -7.006   5.703  68.447  1.00  0.00    -0.063 NA 
HETATM   25  C   UNL     1      -7.551   4.654  67.560  1.00  0.00    -0.078 C  
HETATM   26  C   UNL     1      -5.722   6.115  67.864  1.00  0.00    -0.009 C  
ENDBRANCH   2  24
TORSDOF 5
ENDMDL
MODEL       64
REMARK 921   NORMALIZED FREE ENERGY PREDICTED BY IDOCK:   -4.64 KCAL/MOL
REMARK 922        TOTAL FREE ENERGY PREDICTED BY IDOCK:   -6.86 KCAL/MOL
REMARK 923 INTER-LIGAND FREE ENERGY PREDICTED BY IDOCK:   -6.54 KCAL/MOL
REMARK 924 INTRA-LIGAND FREE ENERGY PREDICTED BY IDOCK:   -0.32 KCAL/MOL
REMARK 927      BINDING AFFINITY PREDICTED BY RF-SCORE:    0.00 PKD
ROOT
HETATM    1  C   UNL     1      -9.614   8.644  72.100  1.00  0.00    -0.378 C  
HETATM    2  C   UNL     1     -11.094   8.372  72.476  1.00  0.00    -0.326 C  
ENDROOT
BRANCH   2   3
HETATM    3  C   UNL     1     -11.900   8.531  71.123  1.00  0.00    -0.284 C  
BRANCH   3   4
HETATM    4  N   UNL     1     -11.547   9.657  70.216  1.00  0.00    -0.233 NA 
HETATM    5  C   UNL     1     -12.029  10.958  70.576  1.00  0.00    -0.371 A  
HETATM    6  C   UNL     1     -12.843  11.188  71.709  1.00  0.00    -0.479 A  
HETATM    7  C   UNL     1     -13.389  12.442  72.018  1.00  0.00    -0.511 A  
HETATM    8  C   UNL     1     -13.104  13.537  71.224  1.00  0.00    -0.339 A  
HETATM    9  C   UNL     1     -12.271  13.367  70.128  1.00  0.00    -0.385 A  
HETATM   10  C   UNL     1     -11.743  12.101  69.799  1.00  0.00    -0.310 A  
HETATM   11  S   UNL     1     -10.720  12.094  68.356  1.00  0.00    -0.236 SA 
HETATM   12  C   UNL     1     -10.313  10.379  68.182  1.00  0.00    -0.172 A  
HETATM   13  C   UNL     1     -10.716   9.366  69.083  1.00  0.00    -0.197 A  
HETATM   14  C   UNL     1     -10.262   8.061  68.768  1.00  0.00    -0.220 A  
HETATM   15  C   UNL     1      -9.464   7.792  67.641  1.00  0.00    -0.144 A  
HETATM   16  C   UNL     1      -9.092   8.806  66.775  1.00  0.00    -0.180 A  
HETATM   17  C   UNL     1      -9.526  10.094  67.044  1.00  0.00    -0.197 A  
BRANCH  15  18
HETATM   18  S   UNL     1      -8.829   6.146  67.375  1.00  0.00    -0.105 S  
HETATM   19  O   UNL     1      -9.380   5.291  68.404  1.00  0.00    -0.111 OA 
HETATM   20  O   UNL     1      -7.394   6.267  67.196  1.00  0.00    -0.080 OA 
BRANCH  18  21
HETATM   21  N   UNL     1      -9.505   5.704  65.879  1.00  0.00    -0.115 N  
HETATM   22  C   UNL     1     -10.630   4.755  65.913  1.00  0.00    -0.244 C  
HETATM   23  C   UNL     1      -8.565   5.458  64.771  1.00  0.00    -0.117 C  
ENDBRANCH  18  21
ENDBRANCH  15  18
ENDBRANCH   3   4
ENDBRANCH   2   3
BRANCH   2  24
HETATM   24  N   UNL     1     -11.167   7.118  73.294  1.00  0.00    -0.203 NA 
HETATM   25  C   UNL     1     -11.238   5.930  72.416  1.00  0.00    -0.291 C  
HETATM   26  C   UNL     1      -9.989   6.932  74.151  1.00  0.00    -0.316 C  
ENDBRANCH   2  24
TORSDOF 5
ENDMDL
MODEL       65
REMARK 921   NORMALIZED FREE ENERGY PREDICTED BY IDOCK:   -4.64 KCAL/MOL
REMARK 922        TOTAL FREE ENERGY PREDICTED BY IDOCK:   -6.85 KCAL/MOL
REMARK 923 INTER-LIGAND FREE ENERGY PREDICTED BY IDOCK:   -6.12 KCAL/MOL
REMARK 924 INTRA-LIGAND FREE ENERGY PREDICTED BY IDOCK:   -0.73 KCAL/MOL
REMARK 927      BINDING AFFINITY PREDICTED BY RF-SCORE:    0.00 PKD
ROOT
HETATM    1  C   UNL     1     -12.947  14.193  65.216  1.00  0.00    -0.268 C  
HETATM    2  C   UNL     1     -11.559  13.515  65.364  1.00  0.00    -0.316 C  
ENDROOT
BRANCH   2   3
HETATM    3  C   UNL     1     -11.130  13.777  66.865  1.00  0.00    -0.302 C  
BRANCH   3   4
HETATM    4  N   UNL     1      -9.685  13.962  67.167  1.00  0.00    -0.237 NA 
HETATM    5  C   UNL     1      -9.136  15.268  66.949  1.00  0.00    -0.240 A  
HETATM    6  C   UNL     1      -9.895  16.342  66.428  1.00  0.00    -0.310 A  
HETATM    7  C   UNL     1      -9.343  17.597  66.131  1.00  0.00    -0.159 A  
HETATM    8  C   UNL     1      -8.008  17.845  66.387  1.00  0.00    -0.302 A  
HETATM    9  C   UNL     1      -7.237  16.834  66.942  1.00  0.00    -0.258 A  
HETATM   10  C   UNL     1      -7.782  15.563  67.216  1.00  0.00    -0.212 A  
HETATM   11  S   UNL     1      -6.628  14.412  67.904  1.00  0.00    -0.176 SA 
HETATM   12  C   UNL     1      -7.594  12.932  68.033  1.00  0.00    -0.137 A  
HETATM   13  C   UNL     1      -8.964  12.839  67.697  1.00  0.00    -0.191 A  
HETATM   14  C   UNL     1      -9.551  11.565  67.897  1.00  0.00    -0.178 A  
HETATM   15  C   UNL     1      -8.824  10.471  68.398  1.00  0.00    -0.140 A  
HETATM   16  C   UNL     1      -7.480  10.593  68.713  1.00  0.00    -0.104 A  
HETATM   17  C   UNL     1      -6.869  11.822  68.520  1.00  0.00    -0.075 A  
BRANCH  15  18
HETATM   18  S   UNL     1      -9.657   8.930  68.738  1.00  0.00    -0.159 S  
HETATM   19  O   UNL     1     -10.872   9.239  69.462  1.00  0.00    -0.232 OA 
HETATM   20  O   UNL     1      -8.669   8.025  69.294  1.00  0.00    -0.135 OA 
BRANCH  18  21
HETATM   21  N   UNL     1     -10.074   8.361  67.192  1.00  0.00    -0.237 N  
HETATM   22  C   UNL     1     -10.808   7.086  67.129  1.00  0.00    -0.357 C  
HETATM   23  C   UNL     1      -9.058   8.505  66.135  1.00  0.00    -0.195 C  
ENDBRANCH  18  21
ENDBRANCH  15  18
ENDBRANCH   3   4
ENDBRANCH   2   3
BRANCH   2  24
HETATM   24  N   UNL     1     -11.628  12.131  64.795  1.00  0.00    -0.333 NA 
HETATM   25  C   UNL     1     -12.470  12.111  63.580  1.00  0.00    -0.555 C  
HETATM   26  C   UNL     1     -10.312  11.616  64.398  1.00  0.00    -0.313 C  
ENDBRANCH   2  24
TORSDOF 5
ENDMDL
MODEL       66
REMARK 921   NORMALIZED FREE ENERGY PREDICTED BY IDOCK:   -4.59 KCAL/MOL
REMARK 922        TOTAL FREE ENERGY PREDICTED BY IDOCK:   -6.79 KCAL/MOL
REMARK 923 INTER-LIGAND FREE ENERGY PREDICTED BY IDOCK:   -6.15 KCAL/MOL
REMARK 924 INTRA-LIGAND FREE ENERGY PREDICTED BY IDOCK:   -0.64 KCAL/MOL
REMARK 927      BINDING AFFINITY PREDICTED BY RF-SCORE:    0.00 PKD
ROOT
HETATM    1  C   UNL     1     -11.373  15.384  64.468  1.00  0.00    -0.321 C  
HETATM    2  C   UNL     1     -10.577  14.171  65.020  1.00  0.00    -0.419 C  
ENDROOT
BRANCH   2   3
HETATM    3  C   UNL     1     -10.319  14.507  66.545  1.00  0.00    -0.283 C  
BRANCH   3   4
HETATM    4  N   UNL     1      -8.931  14.388  67.071  1.00  0.00    -0.230 NA 
HETATM    5  C   UNL     1      -8.106  15.559  67.002  1.00  0.00    -0.237 A  
HETATM    6  C   UNL     1      -8.546  16.773  66.426  1.00  0.00    -0.338 A  
HETATM    7  C   UNL     1      -7.716  17.895  66.277  1.00  0.00    -0.302 A  
HETATM    8  C   UNL     1      -6.416  17.861  66.744  1.00  0.00    -0.218 A  
HETATM    9  C   UNL     1      -5.958  16.706  67.359  1.00  0.00    -0.194 A  
HETATM   10  C   UNL     1      -6.781  15.567  67.485  1.00  0.00    -0.190 A  
HETATM   11  S   UNL     1      -6.002  14.193  68.283  1.00  0.00    -0.131 SA 
HETATM   12  C   UNL     1      -7.250  12.939  68.192  1.00  0.00    -0.114 A  
HETATM   13  C   UNL     1      -8.540  13.133  67.648  1.00  0.00    -0.193 A  
HETATM   14  C   UNL     1      -9.393  12.002  67.694  1.00  0.00    -0.185 A  
HETATM   15  C   UNL     1      -8.986  10.774  68.245  1.00  0.00    -0.143 A  
HETATM   16  C   UNL     1      -7.712  10.615  68.765  1.00  0.00    -0.117 A  
HETATM   17  C   UNL     1      -6.846  11.696  68.727  1.00  0.00    -0.090 A  
BRANCH  15  18
HETATM   18  S   UNL     1     -10.151   9.430  68.380  1.00  0.00    -0.192 S  
HETATM   19  O   UNL     1      -9.394   8.201  68.477  1.00  0.00    -0.139 OA 
HETATM   20  O   UNL     1     -11.138   9.615  67.332  1.00  0.00    -0.183 OA 
BRANCH  18  21
HETATM   21  N   UNL     1     -10.913   9.721  69.871  1.00  0.00    -0.251 N  
HETATM   22  C   UNL     1     -11.680  10.972  69.992  1.00  0.00    -0.355 C  
HETATM   23  C   UNL     1     -10.150   9.382  71.085  1.00  0.00    -0.265 C  
ENDBRANCH  18  21
ENDBRANCH  15  18
ENDBRANCH   3   4
ENDBRANCH   2   3
BRANCH   2  24
HETATM   24  N   UNL     1     -11.260  12.906  64.597  1.00  0.00    -0.306 NA 
HETATM   25  C   UNL     1     -12.268  12.500  65.599  1.00  0.00    -0.335 C  
HETATM   26  C   UNL     1     -11.975  13.048  63.322  1.00  0.00    -0.421 C  
ENDBRANCH   2  24
TORSDOF 5
ENDMDL
MODEL       67
REMARK 921   NORMALIZED FREE ENERGY PREDICTED BY IDOCK:   -4.58 KCAL/MOL
REMARK 922        TOTAL FREE ENERGY PREDICTED BY IDOCK:   -6.78 KCAL/MOL
REMARK 923 INTER-LIGAND FREE ENERGY PREDICTED BY IDOCK:   -6.00 KCAL/MOL
REMARK 924 INTRA-LIGAND FREE ENERGY PREDICTED BY IDOCK:   -0.78 KCAL/MOL
REMARK 927      BINDING AFFINITY PREDICTED BY RF-SCORE:    0.00 PKD
ROOT
HETATM    1  C   UNL     1      -8.687  10.664  65.233  1.00  0.00    -0.198 C  
HETATM    2  C   UNL     1      -9.349  11.749  66.124  1.00  0.00    -0.225 C  
ENDROOT
BRANCH   2   3
HETATM    3  C   UNL     1     -10.784  11.178  66.472  1.00  0.00    -0.260 C  
BRANCH   3   4
HETATM    4  N   UNL     1     -11.100  10.873  67.894  1.00  0.00    -0.280 NA 
HETATM    5  C   UNL     1     -11.617  11.947  68.691  1.00  0.00    -0.310 A  
HETATM    6  C   UNL     1     -11.790  13.258  68.190  1.00  0.00    -0.388 A  
HETATM    7  C   UNL     1     -12.213  14.332  68.987  1.00  0.00    -0.255 A  
HETATM    8  C   UNL     1     -12.529  14.127  70.317  1.00  0.00    -0.416 A  
HETATM    9  C   UNL     1     -12.419  12.845  70.837  1.00  0.00    -0.383 A  
HETATM   10  C   UNL     1     -11.967  11.769  70.046  1.00  0.00    -0.344 A  
HETATM   11  S   UNL     1     -11.882  10.224  70.903  1.00  0.00    -0.388 SA 
HETATM   12  C   UNL     1     -11.205   9.141  69.675  1.00  0.00    -0.009 A  
HETATM   13  C   UNL     1     -10.909   9.524  68.347  1.00  0.00    -0.137 A  
HETATM   14  C   UNL     1     -10.394   8.495  67.520  1.00  0.00    -0.334 A  
HETATM   15  C   UNL     1     -10.195   7.183  67.987  1.00  0.00    -0.185 A  
HETATM   16  C   UNL     1     -10.490   6.841  69.297  1.00  0.00    -0.241 A  
HETATM   17  C   UNL     1     -10.985   7.825  70.138  1.00  0.00    -0.246 A  
BRANCH  15  18
HETATM   18  S   UNL     1      -9.658   5.910  66.858  1.00  0.00    -0.150 S  
HETATM   19  O   UNL     1      -8.699   6.503  65.952  1.00  0.00    -0.149 OA 
HETATM   20  O   UNL     1     -10.851   5.255  66.355  1.00  0.00    -0.292 OA 
BRANCH  18  21
HETATM   21  N   UNL     1      -8.846   4.809  67.868  1.00  0.00    -0.103 N  
HETATM   22  C   UNL     1      -7.428   5.088  68.151  1.00  0.00    -0.075 C  
HETATM   23  C   UNL     1      -9.130   3.379  67.656  1.00  0.00    -0.169 C  
ENDBRANCH  18  21
ENDBRANCH  15  18
ENDBRANCH   3   4
ENDBRANCH   2   3
BRANCH   2  24
HETATM   24  N   UNL     1      -8.383  12.157  67.195  1.00  0.00    -0.178 NA 
HETATM   25  C   UNL     1      -7.044  11.588  66.931  1.00  0.00    -0.135 C  
HETATM   26  C   UNL     1      -8.209  13.613  67.274  1.00  0.00    -0.152 C  
ENDBRANCH   2  24
TORSDOF 5
ENDMDL
MODEL       68
REMARK 921   NORMALIZED FREE ENERGY PREDICTED BY IDOCK:   -4.58 KCAL/MOL
REMARK 922        TOTAL FREE ENERGY PREDICTED BY IDOCK:   -6.77 KCAL/MOL
REMARK 923 INTER-LIGAND FREE ENERGY PREDICTED BY IDOCK:   -5.99 KCAL/MOL
REMARK 924 INTRA-LIGAND FREE ENERGY PREDICTED BY IDOCK:   -0.78 KCAL/MOL
REMARK 927      BINDING AFFINITY PREDICTED BY RF-SCORE:    0.00 PKD
ROOT
HETATM    1  C   UNL     1      -6.562   8.947  67.219  1.00  0.00    -0.062 C  
HETATM    2  C   UNL     1      -8.027   8.907  67.728  1.00  0.00    -0.102 C  
ENDROOT
BRANCH   2   3
HETATM    3  C   UNL     1      -8.116  10.050  68.819  1.00  0.00    -0.106 C  
BRANCH   3   4
HETATM    4  N   UNL     1      -9.462  10.514  69.252  1.00  0.00    -0.199 NA 
HETATM    5  C   UNL     1     -10.021  11.634  68.555  1.00  0.00    -0.194 A  
HETATM    6  C   UNL     1      -9.331  12.319  67.528  1.00  0.00    -0.183 A  
HETATM    7  C   UNL     1      -9.835  13.469  66.901  1.00  0.00    -0.257 A  
HETATM    8  C   UNL     1     -11.081  13.957  67.248  1.00  0.00    -0.312 A  
HETATM    9  C   UNL     1     -11.813  13.288  68.218  1.00  0.00    -0.389 A  
HETATM   10  C   UNL     1     -11.296  12.149  68.870  1.00  0.00    -0.283 A  
HETATM   11  S   UNL     1     -12.378  11.455  70.086  1.00  0.00    -0.234 SA 
HETATM   12  C   UNL     1     -11.407  10.134  70.755  1.00  0.00    -0.354 A  
HETATM   13  C   UNL     1     -10.118   9.778  70.297  1.00  0.00    -0.266 A  
HETATM   14  C   UNL     1      -9.524   8.674  70.958  1.00  0.00    -0.261 A  
HETATM   15  C   UNL     1     -10.173   7.978  71.993  1.00  0.00    -0.226 A  
HETATM   16  C   UNL     1     -11.435   8.356  72.423  1.00  0.00    -0.451 A  
HETATM   17  C   UNL     1     -12.042   9.439  71.808  1.00  0.00    -0.454 A  
BRANCH  15  18
HETATM   18  S   UNL     1      -9.417   6.523  72.696  1.00  0.00    -0.146 S  
HETATM   19  O   UNL     1      -9.708   6.519  74.114  1.00  0.00    -0.212 OA 
HETATM   20  O   UNL     1      -8.048   6.480  72.217  1.00  0.00    -0.106 OA 
BRANCH  18  21
HETATM   21  N   UNL     1     -10.267   5.247  71.962  1.00  0.00    -0.197 N  
HETATM   22  C   UNL     1     -10.280   3.959  72.676  1.00  0.00    -0.167 C  
HETATM   23  C   UNL     1     -10.123   5.106  70.502  1.00  0.00    -0.256 C  
ENDBRANCH  18  21
ENDBRANCH  15  18
ENDBRANCH   3   4
ENDBRANCH   2   3
BRANCH   2  24
HETATM   24  N   UNL     1      -8.952   8.870  66.550  1.00  0.00    -0.147 NA 
HETATM   25  C   UNL     1      -8.254   8.343  65.358  1.00  0.00    -0.144 C  
HETATM   26  C   UNL     1     -10.114   7.999  66.771  1.00  0.00    -0.287 C  
ENDBRANCH   2  24
TORSDOF 5
ENDMDL
MODEL       69
REMARK 921   NORMALIZED FREE ENERGY PREDICTED BY IDOCK:   -4.56 KCAL/MOL
REMARK 922        TOTAL FREE ENERGY PREDICTED BY IDOCK:   -6.75 KCAL/MOL
REMARK 923 INTER-LIGAND FREE ENERGY PREDICTED BY IDOCK:   -6.03 KCAL/MOL
REMARK 924 INTRA-LIGAND FREE ENERGY PREDICTED BY IDOCK:   -0.72 KCAL/MOL
REMARK 927      BINDING AFFINITY PREDICTED BY RF-SCORE:    0.00 PKD
ROOT
HETATM    1  C   UNL     1      -9.548  12.807  66.707  1.00  0.00    -0.244 C  
HETATM    2  C   UNL     1     -10.593  11.873  67.372  1.00  0.00    -0.225 C  
ENDROOT
BRANCH   2   3
HETATM    3  C   UNL     1      -9.903  11.362  68.702  1.00  0.00    -0.193 C  
BRANCH   3   4
HETATM    4  N   UNL     1     -10.264  10.012  69.213  1.00  0.00    -0.200 NA 
HETATM    5  C   UNL     1     -11.323   9.942  70.177  1.00  0.00    -0.275 A  
HETATM    6  C   UNL     1     -11.985  11.089  70.673  1.00  0.00    -0.464 A  
HETATM    7  C   UNL     1     -12.962  11.035  71.678  1.00  0.00    -0.561 A  
HETATM    8  C   UNL     1     -13.352   9.816  72.201  1.00  0.00    -0.527 A  
HETATM    9  C   UNL     1     -12.762   8.661  71.709  1.00  0.00    -0.401 A  
HETATM   10  C   UNL     1     -11.760   8.715  70.718  1.00  0.00    -0.210 A  
HETATM   11  S   UNL     1     -11.125   7.133  70.242  1.00  0.00    -0.272 SA 
HETATM   12  C   UNL     1      -9.855   7.562  69.084  1.00  0.00    -0.170 A  
HETATM   13  C   UNL     1      -9.562   8.883  68.672  1.00  0.00    -0.153 A  
HETATM   14  C   UNL     1      -8.520   9.002  67.719  1.00  0.00    -0.117 A  
HETATM   15  C   UNL     1      -7.829   7.885  67.214  1.00  0.00    -0.113 A  
HETATM   16  C   UNL     1      -8.138   6.605  67.642  1.00  0.00    -0.119 A  
HETATM   17  C   UNL     1      -9.143   6.450  68.583  1.00  0.00    -0.127 A  
BRANCH  15  18
HETATM   18  S   UNL     1      -6.613   8.100  65.927  1.00  0.00    -0.045 S  
HETATM   19  O   UNL     1      -5.892   6.852  65.792  1.00  0.00    -0.033 OA 
HETATM   20  O   UNL     1      -5.911   9.338  66.206  1.00  0.00    -0.055 OA 
BRANCH  18  21
HETATM   21  N   UNL     1      -7.556   8.339  64.533  1.00  0.00    -0.101 N  
HETATM   22  C   UNL     1      -7.730   7.179  63.642  1.00  0.00    -0.119 C  
HETATM   23  C   UNL     1      -7.366   9.609  63.811  1.00  0.00    -0.123 C  
ENDBRANCH  18  21
ENDBRANCH  15  18
ENDBRANCH   3   4
ENDBRANCH   2   3
BRANCH   2  24
HETATM   24  N   UNL     1     -11.923  12.564  67.390  1.00  0.00    -0.488 NA 
HETATM   25  C   UNL     1     -11.869  13.772  68.240  1.00  0.00    -0.378 C  
HETATM   26  C   UNL     1     -12.346  13.011  66.057  1.00  0.00    -0.319 C  
ENDBRANCH   2  24
TORSDOF 5
ENDMDL
MODEL       70
REMARK 921   NORMALIZED FREE ENERGY PREDICTED BY IDOCK:   -4.55 KCAL/MOL
REMARK 922        TOTAL FREE ENERGY PREDICTED BY IDOCK:   -6.75 KCAL/MOL
REMARK 923 INTER-LIGAND FREE ENERGY PREDICTED BY IDOCK:   -6.55 KCAL/MOL
REMARK 924 INTRA-LIGAND FREE ENERGY PREDICTED BY IDOCK:   -0.19 KCAL/MOL
REMARK 927      BINDING AFFINITY PREDICTED BY RF-SCORE:    0.00 PKD
ROOT
HETATM    1  C   UNL     1     -11.698   7.803  72.585  1.00  0.00    -0.364 C  
HETATM    2  C   UNL     1     -10.553   7.768  71.539  1.00  0.00    -0.213 C  
ENDROOT
BRANCH   2   3
HETATM    3  C   UNL     1     -11.274   7.876  70.134  1.00  0.00    -0.152 C  
BRANCH   3   4
HETATM    4  N   UNL     1     -10.518   7.473  68.917  1.00  0.00    -0.211 NA 
HETATM    5  C   UNL     1     -10.019   6.130  68.875  1.00  0.00    -0.152 A  
HETATM    6  C   UNL     1     -10.182   5.218  69.943  1.00  0.00    -0.364 A  
HETATM    7  C   UNL     1      -9.622   3.932  69.944  1.00  0.00    -0.270 A  
HETATM    8  C   UNL     1      -8.910   3.486  68.848  1.00  0.00    -0.162 A  
HETATM    9  C   UNL     1      -8.766   4.331  67.757  1.00  0.00    -0.117 A  
HETATM   10  C   UNL     1      -9.303   5.635  67.765  1.00  0.00    -0.110 A  
HETATM   11  S   UNL     1      -8.994   6.556  66.287  1.00  0.00    -0.144 SA 
HETATM   12  C   UNL     1      -9.705   8.134  66.662  1.00  0.00    -0.248 A  
HETATM   13  C   UNL     1     -10.387   8.439  67.862  1.00  0.00    -0.221 A  
HETATM   14  C   UNL     1     -10.899   9.757  67.950  1.00  0.00    -0.298 A  
HETATM   15  C   UNL     1     -10.744  10.696  66.914  1.00  0.00    -0.237 A  
HETATM   16  C   UNL     1     -10.065  10.368  65.752  1.00  0.00    -0.329 A  
HETATM   17  C   UNL     1      -9.540   9.090  65.635  1.00  0.00    -0.237 A  
BRANCH  15  18
HETATM   18  S   UNL     1     -11.519  12.298  67.042  1.00  0.00    -0.354 S  
HETATM   19  O   UNL     1     -11.977  12.455  68.406  1.00  0.00    -0.324 OA 
HETATM   20  O   UNL     1     -12.442  12.415  65.929  1.00  0.00    -0.583 OA 
BRANCH  18  21
HETATM   21  N   UNL     1     -10.234  13.377  66.771  1.00  0.00    -0.255 N  
HETATM   22  C   UNL     1      -9.435  13.767  67.944  1.00  0.00    -0.214 C  
HETATM   23  C   UNL     1     -10.486  14.489  65.838  1.00  0.00    -0.312 C  
ENDBRANCH  18  21
ENDBRANCH  15  18
ENDBRANCH   3   4
ENDBRANCH   2   3
BRANCH   2  24
HETATM   24  N   UNL     1      -9.484   8.734  71.952  1.00  0.00    -0.295 NA 
HETATM   25  C   UNL     1      -8.893   8.331  73.246  1.00  0.00    -0.213 C  
HETATM   26  C   UNL     1      -8.377   8.797  70.990  1.00  0.00    -0.171 C  
ENDBRANCH   2  24
TORSDOF 5
ENDMDL
MODEL       71
REMARK 921   NORMALIZED FREE ENERGY PREDICTED BY IDOCK:   -4.54 KCAL/MOL
REMARK 922        TOTAL FREE ENERGY PREDICTED BY IDOCK:   -6.73 KCAL/MOL
REMARK 923 INTER-LIGAND FREE ENERGY PREDICTED BY IDOCK:   -6.18 KCAL/MOL
REMARK 924 INTRA-LIGAND FREE ENERGY PREDICTED BY IDOCK:   -0.55 KCAL/MOL
REMARK 927      BINDING AFFINITY PREDICTED BY RF-SCORE:    0.00 PKD
ROOT
HETATM    1  C   UNL     1      -8.370   7.392  66.542  1.00  0.00    -0.124 C  
HETATM    2  C   UNL     1      -8.675   8.855  66.959  1.00  0.00    -0.123 C  
ENDROOT
BRANCH   2   3
HETATM    3  C   UNL     1     -10.253   8.936  67.056  1.00  0.00    -0.275 C  
BRANCH   3   4
HETATM    4  N   UNL     1     -10.855   9.873  68.043  1.00  0.00    -0.254 NA 
HETATM    5  C   UNL     1     -11.175  11.191  67.579  1.00  0.00    -0.301 A  
HETATM    6  C   UNL     1     -10.902  11.627  66.261  1.00  0.00    -0.333 A  
HETATM    7  C   UNL     1     -11.131  12.940  65.825  1.00  0.00    -0.312 A  
HETATM    8  C   UNL     1     -11.692  13.867  66.684  1.00  0.00    -0.417 A  
HETATM    9  C   UNL     1     -12.019  13.469  67.972  1.00  0.00    -0.372 A  
HETATM   10  C   UNL     1     -11.763  12.157  68.421  1.00  0.00    -0.332 A  
HETATM   11  S   UNL     1     -12.239  11.859  70.099  1.00  0.00    -0.195 SA 
HETATM   12  C   UNL     1     -11.705  10.190  70.359  1.00  0.00    -0.308 A  
HETATM   13  C   UNL     1     -11.114   9.376  69.365  1.00  0.00    -0.076 A  
HETATM   14  C   UNL     1     -10.781   8.062  69.778  1.00  0.00    -0.231 A  
HETATM   15  C   UNL     1     -11.024   7.599  71.084  1.00  0.00    -0.246 A  
HETATM   16  C   UNL     1     -11.599   8.424  72.036  1.00  0.00    -0.418 A  
HETATM   17  C   UNL     1     -11.928   9.720  71.672  1.00  0.00    -0.454 A  
BRANCH  15  18
HETATM   18  S   UNL     1     -10.690   5.896  71.499  1.00  0.00    -0.261 S  
HETATM   19  O   UNL     1     -10.710   5.133  70.270  1.00  0.00    -0.229 OA 
HETATM   20  O   UNL     1     -11.562   5.549  72.606  1.00  0.00    -0.300 OA 
BRANCH  18  21
HETATM   21  N   UNL     1      -9.095   5.942  72.086  1.00  0.00    -0.143 N  
HETATM   22  C   UNL     1      -8.772   5.037  73.202  1.00  0.00    -0.112 C  
HETATM   23  C   UNL     1      -8.471   7.271  72.211  1.00  0.00    -0.115 C  
ENDBRANCH  18  21
ENDBRANCH  15  18
ENDBRANCH   3   4
ENDBRANCH   2   3
BRANCH   2  24
HETATM   24  N   UNL     1      -7.795   9.227  68.114  1.00  0.00    -0.095 NA 
HETATM   25  C   UNL     1      -7.176   8.021  68.704  1.00  0.00    -0.081 C  
HETATM   26  C   UNL     1      -6.691  10.112  67.721  1.00  0.00    -0.071 C  
ENDBRANCH   2  24
TORSDOF 5
ENDMDL
MODEL       72
REMARK 921   NORMALIZED FREE ENERGY PREDICTED BY IDOCK:   -4.54 KCAL/MOL
REMARK 922        TOTAL FREE ENERGY PREDICTED BY IDOCK:   -6.72 KCAL/MOL
REMARK 923 INTER-LIGAND FREE ENERGY PREDICTED BY IDOCK:   -6.92 KCAL/MOL
REMARK 924 INTRA-LIGAND FREE ENERGY PREDICTED BY IDOCK:    0.20 KCAL/MOL
REMARK 927      BINDING AFFINITY PREDICTED BY RF-SCORE:    0.00 PKD
ROOT
HETATM    1  C   UNL     1     -10.127  13.626  68.901  1.00  0.00    -0.049 C  
HETATM    2  C   UNL     1     -11.642  13.459  69.188  1.00  0.00    -0.315 C  
ENDROOT
BRANCH   2   3
HETATM    3  C   UNL     1     -12.014  12.028  68.622  1.00  0.00    -0.235 C  
BRANCH   3   4
HETATM    4  N   UNL     1     -11.427  11.606  67.321  1.00  0.00    -0.466 NA 
HETATM    5  C   UNL     1     -11.578  12.506  66.216  1.00  0.00    -0.394 A  
HETATM    6  C   UNL     1     -12.285  13.727  66.312  1.00  0.00    -0.489 A  
HETATM    7  C   UNL     1     -12.511  14.570  65.215  1.00  0.00    -0.281 A  
HETATM    8  C   UNL     1     -11.994  14.247  63.974  1.00  0.00    -0.328 A  
HETATM    9  C   UNL     1     -11.253  13.082  63.844  1.00  0.00    -0.434 A  
HETATM   10  C   UNL     1     -11.049  12.217  64.940  1.00  0.00    -0.311 A  
HETATM   11  S   UNL     1     -10.092  10.778  64.561  1.00  0.00    -0.357 SA 
HETATM   12  C   UNL     1     -10.108   9.891  66.094  1.00  0.00    -0.245 A  
HETATM   13  C   UNL     1     -10.716  10.359  67.281  1.00  0.00    -0.273 A  
HETATM   14  C   UNL     1     -10.593   9.501  68.403  1.00  0.00    -0.261 A  
HETATM   15  C   UNL     1      -9.910   8.273  68.340  1.00  0.00    -0.172 A  
HETATM   16  C   UNL     1      -9.329   7.841  67.159  1.00  0.00    -0.185 A  
HETATM   17  C   UNL     1      -9.440   8.648  66.038  1.00  0.00    -0.278 A  
BRANCH  15  18
HETATM   18  S   UNL     1      -9.690   7.302  69.821  1.00  0.00    -0.166 S  
HETATM   19  O   UNL     1      -8.470   6.538  69.667  1.00  0.00    -0.128 OA 
HETATM   20  O   UNL     1     -10.953   6.641  70.089  1.00  0.00    -0.257 OA 
BRANCH  18  21
HETATM   21  N   UNL     1      -9.449   8.476  71.026  1.00  0.00    -0.172 N  
HETATM   22  C   UNL     1      -8.085   8.606  71.564  1.00  0.00    -0.142 C  
HETATM   23  C   UNL     1     -10.498   8.598  72.054  1.00  0.00    -0.352 C  
ENDBRANCH  18  21
ENDBRANCH  15  18
ENDBRANCH   3   4
ENDBRANCH   2   3
BRANCH   2  24
HETATM   24  N   UNL     1     -11.915  13.838  70.612  1.00  0.00    -0.301 NA 
HETATM   25  C   UNL     1     -11.738  15.293  70.804  1.00  0.00    -0.337 C  
HETATM   26  C   UNL     1     -13.289  13.527  71.026  1.00  0.00     0.008 C  
ENDBRANCH   2  24
TORSDOF 5
ENDMDL
MODEL       73
REMARK 921   NORMALIZED FREE ENERGY PREDICTED BY IDOCK:   -4.53 KCAL/MOL
REMARK 922        TOTAL FREE ENERGY PREDICTED BY IDOCK:   -6.72 KCAL/MOL
REMARK 923 INTER-LIGAND FREE ENERGY PREDICTED BY IDOCK:   -6.36 KCAL/MOL
REMARK 924 INTRA-LIGAND FREE ENERGY PREDICTED BY IDOCK:   -0.35 KCAL/MOL
REMARK 927      BINDING AFFINITY PREDICTED BY RF-SCORE:    0.00 PKD
ROOT
HETATM    1  C   UNL     1     -11.143  12.384  64.535  1.00  0.00    -0.360 C  
HETATM    2  C   UNL     1     -11.251  11.735  65.940  1.00  0.00    -0.290 C  
ENDROOT
BRANCH   2   3
HETATM    3  C   UNL     1      -9.771  11.319  66.318  1.00  0.00    -0.216 C  
BRANCH   3   4
HETATM    4  N   UNL     1      -9.377   9.891  66.172  1.00  0.00    -0.170 NA 
HETATM    5  C   UNL     1      -8.709   9.521  64.959  1.00  0.00    -0.177 A  
HETATM    6  C   UNL     1      -8.459  10.436  63.911  1.00  0.00    -0.161 A  
HETATM    7  C   UNL     1      -7.884  10.062  62.688  1.00  0.00    -0.138 A  
HETATM    8  C   UNL     1      -7.489   8.754  62.479  1.00  0.00    -0.102 A  
HETATM    9  C   UNL     1      -7.671   7.832  63.499  1.00  0.00    -0.131 A  
HETATM   10  C   UNL     1      -8.276   8.200  64.719  1.00  0.00    -0.133 A  
HETATM   11  S   UNL     1      -8.432   6.874  65.880  1.00  0.00    -0.142 SA 
HETATM   12  C   UNL     1      -9.292   7.640  67.226  1.00  0.00    -0.144 A  
HETATM   13  C   UNL     1      -9.651   9.007  67.269  1.00  0.00    -0.159 A  
HETATM   14  C   UNL     1     -10.316   9.420  68.450  1.00  0.00    -0.238 A  
HETATM   15  C   UNL     1     -10.594   8.535  69.507  1.00  0.00    -0.211 A  
HETATM   16  C   UNL     1     -10.233   7.200  69.431  1.00  0.00    -0.194 A  
HETATM   17  C   UNL     1      -9.592   6.756  68.286  1.00  0.00    -0.127 A  
BRANCH  15  18
HETATM   18  S   UNL     1     -11.325   9.151  71.014  1.00  0.00    -0.336 S  
HETATM   19  O   UNL     1     -11.837  10.477  70.743  1.00  0.00    -0.316 OA 
HETATM   20  O   UNL     1     -10.362   8.928  72.077  1.00  0.00    -0.339 OA 
BRANCH  18  21
HETATM   21  N   UNL     1     -12.637   8.101  71.271  1.00  0.00    -0.273 N  
HETATM   22  C   UNL     1     -13.893   8.709  71.738  1.00  0.00    -0.425 C  
HETATM   23  C   UNL     1     -12.338   6.809  71.912  1.00  0.00    -0.326 C  
ENDBRANCH  18  21
ENDBRANCH  15  18
ENDBRANCH   3   4
ENDBRANCH   2   3
BRANCH   2  24
HETATM   24  N   UNL     1     -12.070  12.623  66.827  1.00  0.00    -0.518 NA 
HETATM   25  C   UNL     1     -11.356  12.893  68.093  1.00  0.00    -0.289 C  
HETATM   26  C   UNL     1     -12.346  13.931  66.217  1.00  0.00    -0.449 C  
ENDBRANCH   2  24
TORSDOF 5
ENDMDL
MODEL       74
REMARK 921   NORMALIZED FREE ENERGY PREDICTED BY IDOCK:   -4.50 KCAL/MOL
REMARK 922        TOTAL FREE ENERGY PREDICTED BY IDOCK:   -6.68 KCAL/MOL
REMARK 923 INTER-LIGAND FREE ENERGY PREDICTED BY IDOCK:   -6.36 KCAL/MOL
REMARK 924 INTRA-LIGAND FREE ENERGY PREDICTED BY IDOCK:   -0.32 KCAL/MOL
REMARK 927      BINDING AFFINITY PREDICTED BY RF-SCORE:    0.00 PKD
ROOT
HETATM    1  C   UNL     1     -11.159   6.617  67.093  1.00  0.00    -0.427 C  
HETATM    2  C   UNL     1      -9.705   6.839  66.601  1.00  0.00    -0.158 C  
ENDROOT
BRANCH   2   3
HETATM    3  C   UNL     1      -9.086   7.896  67.604  1.00  0.00    -0.133 C  
BRANCH   3   4
HETATM    4  N   UNL     1      -9.991   8.909  68.213  1.00  0.00    -0.169 NA 
HETATM    5  C   UNL     1     -10.416   9.991  67.375  1.00  0.00    -0.260 A  
HETATM    6  C   UNL     1      -9.979  10.143  66.039  1.00  0.00    -0.322 A  
HETATM    7  C   UNL     1     -10.322  11.245  65.241  1.00  0.00    -0.337 A  
HETATM    8  C   UNL     1     -11.161  12.225  65.737  1.00  0.00    -0.362 A  
HETATM    9  C   UNL     1     -11.652  12.091  67.027  1.00  0.00    -0.387 A  
HETATM   10  C   UNL     1     -11.286  10.999  67.841  1.00  0.00    -0.311 A  
HETATM   11  S   UNL     1     -12.006  11.025  69.457  1.00  0.00    -0.331 SA 
HETATM   12  C   UNL     1     -11.282   9.601  70.222  1.00  0.00    -0.271 A  
HETATM   13  C   UNL     1     -10.407   8.702  69.572  1.00  0.00    -0.214 A  
HETATM   14  C   UNL     1      -9.959   7.614  70.362  1.00  0.00    -0.188 A  
HETATM   15  C   UNL     1     -10.361   7.439  71.698  1.00  0.00    -0.196 A  
HETATM   16  C   UNL     1     -11.216   8.341  72.309  1.00  0.00    -0.443 A  
HETATM   17  C   UNL     1     -11.666   9.424  71.570  1.00  0.00    -0.465 A  
BRANCH  15  18
HETATM   18  S   UNL     1      -9.855   5.981  72.595  1.00  0.00    -0.167 S  
HETATM   19  O   UNL     1      -9.673   4.916  71.633  1.00  0.00    -0.158 OA 
HETATM   20  O   UNL     1     -10.769   5.828  73.711  1.00  0.00    -0.270 OA 
BRANCH  18  21
HETATM   21  N   UNL     1      -8.335   6.416  73.222  1.00  0.00    -0.118 N  
HETATM   22  C   UNL     1      -7.412   5.316  73.547  1.00  0.00    -0.095 C  
HETATM   23  C   UNL     1      -8.311   7.511  74.206  1.00  0.00    -0.210 C  
ENDBRANCH  18  21
ENDBRANCH  15  18
ENDBRANCH   3   4
ENDBRANCH   2   3
BRANCH   2  24
HETATM   24  N   UNL     1      -9.061   5.507  66.365  1.00  0.00    -0.139 NA 
HETATM   25  C   UNL     1      -7.601   5.661  66.186  1.00  0.00    -0.091 C  
HETATM   26  C   UNL     1      -9.247   4.582  67.490  1.00  0.00    -0.137 C  
ENDBRANCH   2  24
TORSDOF 5
ENDMDL
MODEL       75
REMARK 921   NORMALIZED FREE ENERGY PREDICTED BY IDOCK:   -4.48 KCAL/MOL
REMARK 922        TOTAL FREE ENERGY PREDICTED BY IDOCK:   -6.66 KCAL/MOL
REMARK 923 INTER-LIGAND FREE ENERGY PREDICTED BY IDOCK:   -5.85 KCAL/MOL
REMARK 924 INTRA-LIGAND FREE ENERGY PREDICTED BY IDOCK:   -0.81 KCAL/MOL
REMARK 927      BINDING AFFINITY PREDICTED BY RF-SCORE:    0.00 PKD
ROOT
HETATM    1  C   UNL     1      -9.555  10.797  64.989  1.00  0.00    -0.305 C  
HETATM    2  C   UNL     1     -10.168  10.030  66.191  1.00  0.00    -0.213 C  
ENDROOT
BRANCH   2   3
HETATM    3  C   UNL     1      -8.978   9.168  66.780  1.00  0.00    -0.128 C  
BRANCH   3   4
HETATM    4  N   UNL     1      -9.150   7.693  66.872  1.00  0.00    -0.138 NA 
HETATM    5  C   UNL     1      -8.673   6.912  65.768  1.00  0.00    -0.106 A  
HETATM    6  C   UNL     1      -8.102   7.489  64.610  1.00  0.00    -0.101 A  
HETATM    7  C   UNL     1      -7.713   6.737  63.492  1.00  0.00    -0.114 A  
HETATM    8  C   UNL     1      -7.839   5.361  63.504  1.00  0.00    -0.094 A  
HETATM    9  C   UNL     1      -8.351   4.749  64.638  1.00  0.00    -0.130 A  
HETATM   10  C   UNL     1      -8.769   5.504  65.754  1.00  0.00    -0.151 A  
HETATM   11  S   UNL     1      -9.408   4.535  67.089  1.00  0.00    -0.159 SA 
HETATM   12  C   UNL     1      -9.912   5.771  68.253  1.00  0.00    -0.149 A  
HETATM   13  C   UNL     1      -9.732   7.161  68.071  1.00  0.00    -0.138 A  
HETATM   14  C   UNL     1     -10.189   7.975  69.138  1.00  0.00    -0.221 A  
HETATM   15  C   UNL     1     -10.776   7.438  70.297  1.00  0.00    -0.237 A  
HETATM   16  C   UNL     1     -10.943   6.070  70.442  1.00  0.00    -0.399 A  
HETATM   17  C   UNL     1     -10.519   5.243  69.415  1.00  0.00    -0.284 A  
BRANCH  15  18
HETATM   18  S   UNL     1     -11.216   8.513  71.651  1.00  0.00    -0.317 S  
HETATM   19  O   UNL     1     -10.252   9.592  71.686  1.00  0.00    -0.191 OA 
HETATM   20  O   UNL     1     -11.433   7.670  72.812  1.00  0.00    -0.355 OA 
BRANCH  18  21
HETATM   21  N   UNL     1     -12.722   9.143  71.176  1.00  0.00    -0.261 N  
HETATM   22  C   UNL     1     -12.740  10.536  70.700  1.00  0.00    -0.355 C  
HETATM   23  C   UNL     1     -13.882   8.796  72.016  1.00  0.00    -0.451 C  
ENDBRANCH  18  21
ENDBRANCH  15  18
ENDBRANCH   3   4
ENDBRANCH   2   3
BRANCH   2  24
HETATM   24  N   UNL     1     -10.940  10.992  67.042  1.00  0.00    -0.284 NA 
HETATM   25  C   UNL     1     -10.083  11.537  68.117  1.00  0.00    -0.193 C  
HETATM   26  C   UNL     1     -11.438  12.146  66.281  1.00  0.00    -0.374 C  
ENDBRANCH   2  24
TORSDOF 5
ENDMDL
MODEL       76
REMARK 921   NORMALIZED FREE ENERGY PREDICTED BY IDOCK:   -4.47 KCAL/MOL
REMARK 922        TOTAL FREE ENERGY PREDICTED BY IDOCK:   -6.63 KCAL/MOL
REMARK 923 INTER-LIGAND FREE ENERGY PREDICTED BY IDOCK:   -6.12 KCAL/MOL
REMARK 924 INTRA-LIGAND FREE ENERGY PREDICTED BY IDOCK:   -0.51 KCAL/MOL
REMARK 927      BINDING AFFINITY PREDICTED BY RF-SCORE:    0.00 PKD
ROOT
HETATM    1  C   UNL     1      -9.199  10.827  69.028  1.00  0.00    -0.157 C  
HETATM    2  C   UNL     1     -10.568  11.459  68.663  1.00  0.00    -0.199 C  
ENDROOT
BRANCH   2   3
HETATM    3  C   UNL     1     -11.147  10.548  67.504  1.00  0.00    -0.290 C  
BRANCH   3   4
HETATM    4  N   UNL     1     -10.744  10.845  66.102  1.00  0.00    -0.204 NA 
HETATM    5  C   UNL     1     -11.255  12.050  65.519  1.00  0.00    -0.321 A  
HETATM    6  C   UNL     1     -12.139  12.918  66.202  1.00  0.00    -0.458 A  
HETATM    7  C   UNL     1     -12.711  14.052  65.607  1.00  0.00    -0.515 A  
HETATM    8  C   UNL     1     -12.382  14.394  64.309  1.00  0.00    -0.402 A  
HETATM    9  C   UNL     1     -11.482  13.597  63.618  1.00  0.00     0.018 A  
HETATM   10  C   UNL     1     -10.927  12.440  64.203  1.00  0.00    -0.367 A  
HETATM   11  S   UNL     1      -9.816  11.555  63.150  1.00  0.00    -0.341 SA 
HETATM   12  C   UNL     1      -9.389  10.147  64.137  1.00  0.00    -0.287 A  
HETATM   13  C   UNL     1      -9.842   9.932  65.459  1.00  0.00    -0.311 A  
HETATM   14  C   UNL     1      -9.362   8.751  66.078  1.00  0.00    -0.296 A  
HETATM   15  C   UNL     1      -8.494   7.857  65.425  1.00  0.00    -0.119 A  
HETATM   16  C   UNL     1      -8.073   8.095  64.127  1.00  0.00    -0.128 A  
HETATM   17  C   UNL     1      -8.531   9.235  63.485  1.00  0.00    -0.199 A  
BRANCH  15  18
HETATM   18  S   UNL     1      -7.834   6.454  66.307  1.00  0.00    -0.104 S  
HETATM   19  O   UNL     1      -8.092   6.661  67.716  1.00  0.00    -0.114 OA 
HETATM   20  O   UNL     1      -6.484   6.242  65.821  1.00  0.00    -0.040 OA 
BRANCH  18  21
HETATM   21  N   UNL     1      -8.794   5.162  65.760  1.00  0.00    -0.138 N  
HETATM   22  C   UNL     1     -10.132   5.028  66.360  1.00  0.00    -0.249 C  
HETATM   23  C   UNL     1      -8.115   3.871  65.551  1.00  0.00    -0.101 C  
ENDBRANCH  18  21
ENDBRANCH  15  18
ENDBRANCH   3   4
ENDBRANCH   2   3
BRANCH   2  24
HETATM   24  N   UNL     1     -11.339  11.715  69.922  1.00  0.00    -0.204 NA 
HETATM   25  C   UNL     1     -11.933  13.069  69.901  1.00  0.00    -0.311 C  
HETATM   26  C   UNL     1     -12.453  10.775  70.104  1.00  0.00    -0.285 C  
ENDBRANCH   2  24
TORSDOF 5
ENDMDL
MODEL       77
REMARK 921   NORMALIZED FREE ENERGY PREDICTED BY IDOCK:   -4.46 KCAL/MOL
REMARK 922        TOTAL FREE ENERGY PREDICTED BY IDOCK:   -6.62 KCAL/MOL
REMARK 923 INTER-LIGAND FREE ENERGY PREDICTED BY IDOCK:   -6.42 KCAL/MOL
REMARK 924 INTRA-LIGAND FREE ENERGY PREDICTED BY IDOCK:   -0.20 KCAL/MOL
REMARK 927      BINDING AFFINITY PREDICTED BY RF-SCORE:    0.00 PKD
ROOT
HETATM    1  C   UNL     1     -11.428  11.854  64.112  1.00  0.00    -0.449 C  
HETATM    2  C   UNL     1     -10.998  12.157  65.572  1.00  0.00    -0.301 C  
ENDROOT
BRANCH   2   3
HETATM    3  C   UNL     1      -9.669  13.006  65.442  1.00  0.00    -0.017 C  
BRANCH   3   4
HETATM    4  N   UNL     1      -8.809  13.165  66.647  1.00  0.00    -0.128 NA 
HETATM    5  C   UNL     1      -8.108  12.002  67.104  1.00  0.00    -0.177 A  
HETATM    6  C   UNL     1      -8.239  10.735  66.489  1.00  0.00    -0.148 A  
HETATM    7  C   UNL     1      -7.625   9.576  66.983  1.00  0.00    -0.091 A  
HETATM    8  C   UNL     1      -6.809   9.645  68.096  1.00  0.00    -0.069 A  
HETATM    9  C   UNL     1      -6.613  10.876  68.704  1.00  0.00    -0.057 A  
HETATM   10  C   UNL     1      -7.253  12.039  68.226  1.00  0.00    -0.090 A  
HETATM   11  S   UNL     1      -6.885  13.501  69.151  1.00  0.00    -0.046 SA 
HETATM   12  C   UNL     1      -7.898  14.721  68.359  1.00  0.00    -0.128 A  
HETATM   13  C   UNL     1      -8.709  14.474  67.228  1.00  0.00    -0.210 A  
HETATM   14  C   UNL     1      -9.423  15.596  66.739  1.00  0.00    -0.261 A  
HETATM   15  C   UNL     1      -9.328  16.867  67.334  1.00  0.00    -0.235 A  
HETATM   16  C   UNL     1      -8.528  17.074  68.446  1.00  0.00    -0.239 A  
HETATM   17  C   UNL     1      -7.824  15.997  68.960  1.00  0.00    -0.222 A  
BRANCH  15  18
HETATM   18  S   UNL     1     -10.160  18.260  66.592  1.00  0.00    -0.395 S  
HETATM   19  O   UNL     1     -11.035  18.832  67.592  1.00  0.00    -0.384 OA 
HETATM   20  O   UNL     1     -10.681  17.814  65.314  1.00  0.00    -0.649 OA 
BRANCH  18  21
HETATM   21  N   UNL     1      -8.894  19.353  66.286  1.00  0.00    -0.358 N  
HETATM   22  C   UNL     1      -7.611  18.779  65.849  1.00  0.00    -0.158 C  
HETATM   23  C   UNL     1      -8.743  20.475  67.229  1.00  0.00    -0.285 C  
ENDBRANCH  18  21
ENDBRANCH  15  18
ENDBRANCH   3   4
ENDBRANCH   2   3
BRANCH   2  24
HETATM   24  N   UNL     1     -12.184  12.663  66.335  1.00  0.00    -0.543 NA 
HETATM   25  C   UNL     1     -11.855  12.805  67.770  1.00  0.00    -0.332 C  
HETATM   26  C   UNL     1     -12.630  13.985  65.877  1.00  0.00    -0.449 C  
ENDBRANCH   2  24
TORSDOF 5
ENDMDL
MODEL       78
REMARK 921   NORMALIZED FREE ENERGY PREDICTED BY IDOCK:   -4.46 KCAL/MOL
REMARK 922        TOTAL FREE ENERGY PREDICTED BY IDOCK:   -6.62 KCAL/MOL
REMARK 923 INTER-LIGAND FREE ENERGY PREDICTED BY IDOCK:   -5.82 KCAL/MOL
REMARK 924 INTRA-LIGAND FREE ENERGY PREDICTED BY IDOCK:   -0.80 KCAL/MOL
REMARK 927      BINDING AFFINITY PREDICTED BY RF-SCORE:    0.00 PKD
ROOT
HETATM    1  C   UNL     1     -11.097   9.844  69.692  1.00  0.00    -0.279 C  
HETATM    2  C   UNL     1     -10.629   9.269  68.329  1.00  0.00    -0.189 C  
ENDROOT
BRANCH   2   3
HETATM    3  C   UNL     1      -9.677  10.377  67.719  1.00  0.00    -0.160 C  
BRANCH   3   4
HETATM    4  N   UNL     1      -9.967  10.886  66.351  1.00  0.00    -0.213 NA 
HETATM    5  C   UNL     1     -10.718  12.103  66.254  1.00  0.00    -0.261 A  
HETATM    6  C   UNL     1     -11.214  12.790  67.386  1.00  0.00    -0.337 A  
HETATM    7  C   UNL     1     -12.022  13.932  67.295  1.00  0.00    -0.446 A  
HETATM    8  C   UNL     1     -12.332  14.465  66.058  1.00  0.00    -0.337 A  
HETATM    9  C   UNL     1     -11.827  13.851  64.922  1.00  0.00    -0.401 A  
HETATM   10  C   UNL     1     -11.037  12.685  65.009  1.00  0.00    -0.291 A  
HETATM   11  S   UNL     1     -10.509  12.048  63.446  1.00  0.00    -0.377 SA 
HETATM   12  C   UNL     1      -9.643  10.573  63.905  1.00  0.00    -0.309 A  
HETATM   13  C   UNL     1      -9.436  10.150  65.238  1.00  0.00    -0.248 A  
HETATM   14  C   UNL     1      -8.697   8.950  65.384  1.00  0.00    -0.224 A  
HETATM   15  C   UNL     1      -8.201   8.231  64.281  1.00  0.00    -0.113 A  
HETATM   16  C   UNL     1      -8.426   8.670  62.987  1.00  0.00    -0.113 A  
HETATM   17  C   UNL     1      -9.155   9.834  62.804  1.00  0.00    -0.286 A  
BRANCH  15  18
HETATM   18  S   UNL     1      -7.176   6.795  64.544  1.00  0.00    -0.078 S  
HETATM   19  O   UNL     1      -6.544   6.937  65.838  1.00  0.00    -0.049 OA 
HETATM   20  O   UNL     1      -6.382   6.613  63.343  1.00  0.00    -0.039 OA 
BRANCH  18  21
HETATM   21  N   UNL     1      -8.300   5.522  64.623  1.00  0.00    -0.137 N  
HETATM   22  C   UNL     1      -8.287   4.700  65.845  1.00  0.00    -0.115 C  
HETATM   23  C   UNL     1      -8.505   4.738  63.392  1.00  0.00    -0.120 C  
ENDBRANCH  18  21
ENDBRANCH  15  18
ENDBRANCH   3   4
ENDBRANCH   2   3
BRANCH   2  24
HETATM   24  N   UNL     1     -10.168   7.857  68.527  1.00  0.00    -0.202 NA 
HETATM   25  C   UNL     1     -10.442   7.411  69.910  1.00  0.00    -0.231 C  
HETATM   26  C   UNL     1     -10.855   6.909  67.641  1.00  0.00    -0.263 C  
ENDBRANCH   2  24
TORSDOF 5
ENDMDL
MODEL       79
REMARK 921   NORMALIZED FREE ENERGY PREDICTED BY IDOCK:   -4.45 KCAL/MOL
REMARK 922        TOTAL FREE ENERGY PREDICTED BY IDOCK:   -6.62 KCAL/MOL
REMARK 923 INTER-LIGAND FREE ENERGY PREDICTED BY IDOCK:   -6.21 KCAL/MOL
REMARK 924 INTRA-LIGAND FREE ENERGY PREDICTED BY IDOCK:   -0.41 KCAL/MOL
REMARK 927      BINDING AFFINITY PREDICTED BY RF-SCORE:    0.00 PKD
ROOT
HETATM    1  C   UNL     1      -6.268  16.248  69.898  1.00  0.00    -0.161 C  
HETATM    2  C   UNL     1      -7.004  15.198  69.024  1.00  0.00    -0.131 C  
ENDROOT
BRANCH   2   3
HETATM    3  C   UNL     1      -8.533  15.600  69.096  1.00  0.00    -0.253 C  
BRANCH   3   4
HETATM    4  N   UNL     1      -9.258  15.857  67.822  1.00  0.00    -0.201 NA 
HETATM    5  C   UNL     1      -9.566  17.222  67.511  1.00  0.00    -0.259 A  
HETATM    6  C   UNL     1      -9.249  18.295  68.375  1.00  0.00    -0.332 A  
HETATM    7  C   UNL     1      -9.624  19.622  68.119  1.00  0.00    -0.474 A  
HETATM    8  C   UNL     1     -10.297  19.939  66.954  1.00  0.00    -0.596 A  
HETATM    9  C   UNL     1     -10.587  18.923  66.055  1.00  0.00    -0.470 A  
HETATM   10  C   UNL     1     -10.237  17.584  66.324  1.00  0.00    -0.355 A  
HETATM   11  S   UNL     1     -10.712  16.441  65.059  1.00  0.00    -0.118 SA 
HETATM   12  C   UNL     1     -10.217  14.884  65.743  1.00  0.00    -0.336 A  
HETATM   13  C   UNL     1      -9.551  14.730  66.981  1.00  0.00    -0.241 A  
HETATM   14  C   UNL     1      -9.226  13.396  67.331  1.00  0.00    -0.213 A  
HETATM   15  C   UNL     1      -9.539  12.302  66.504  1.00  0.00    -0.238 A  
HETATM   16  C   UNL     1     -10.197  12.487  65.299  1.00  0.00    -0.302 A  
HETATM   17  C   UNL     1     -10.542  13.777  64.929  1.00  0.00    -0.427 A  
BRANCH  15  18
HETATM   18  S   UNL     1      -8.991  10.664  66.951  1.00  0.00    -0.138 S  
HETATM   19  O   UNL     1     -10.169   9.863  67.208  1.00  0.00    -0.195 OA 
HETATM   20  O   UNL     1      -7.963  10.820  67.963  1.00  0.00    -0.104 OA 
BRANCH  18  21
HETATM   21  N   UNL     1      -8.246  10.100  65.532  1.00  0.00    -0.149 N  
HETATM   22  C   UNL     1      -9.086   9.328  64.602  1.00  0.00    -0.121 C  
HETATM   23  C   UNL     1      -6.879   9.567  65.666  1.00  0.00    -0.087 C  
ENDBRANCH  18  21
ENDBRANCH  15  18
ENDBRANCH   3   4
ENDBRANCH   2   3
BRANCH   2  24
HETATM   24  N   UNL     1      -6.286  15.061  67.716  1.00  0.00    -0.185 NA 
HETATM   25  C   UNL     1      -5.700  16.356  67.308  1.00  0.00    -0.133 C  
HETATM   26  C   UNL     1      -5.175  14.103  67.778  1.00  0.00     0.011 C  
ENDBRANCH   2  24
TORSDOF 5
ENDMDL
MODEL       80
REMARK 921   NORMALIZED FREE ENERGY PREDICTED BY IDOCK:   -4.39 KCAL/MOL
REMARK 922        TOTAL FREE ENERGY PREDICTED BY IDOCK:   -6.53 KCAL/MOL
REMARK 923 INTER-LIGAND FREE ENERGY PREDICTED BY IDOCK:   -6.13 KCAL/MOL
REMARK 924 INTRA-LIGAND FREE ENERGY PREDICTED BY IDOCK:   -0.40 KCAL/MOL
REMARK 927      BINDING AFFINITY PREDICTED BY RF-SCORE:    0.00 PKD
ROOT
HETATM    1  C   UNL     1     -11.716  13.163  67.475  1.00  0.00    -0.414 C  
HETATM    2  C   UNL     1     -11.580  14.226  66.354  1.00  0.00    -0.372 C  
ENDROOT
BRANCH   2   3
HETATM    3  C   UNL     1     -10.036  14.261  66.004  1.00  0.00    -0.318 C  
BRANCH   3   4
HETATM    4  N   UNL     1      -9.111  14.945  66.948  1.00  0.00    -0.235 NA 
HETATM    5  C   UNL     1      -9.256  16.365  67.089  1.00  0.00    -0.213 A  
HETATM    6  C   UNL     1     -10.195  17.116  66.345  1.00  0.00    -0.331 A  
HETATM    7  C   UNL     1     -10.283  18.515  66.414  1.00  0.00    -0.449 A  
HETATM    8  C   UNL     1      -9.459  19.220  67.270  1.00  0.00    -0.380 A  
HETATM    9  C   UNL     1      -8.555  18.518  68.054  1.00  0.00    -0.310 A  
HETATM   10  C   UNL     1      -8.445  17.114  67.966  1.00  0.00    -0.219 A  
HETATM   11  S   UNL     1      -7.221  16.414  69.035  1.00  0.00    -0.222 SA 
HETATM   12  C   UNL     1      -7.281  14.695  68.613  1.00  0.00    -0.122 A  
HETATM   13  C   UNL     1      -8.181  14.132  67.679  1.00  0.00    -0.186 A  
HETATM   14  C   UNL     1      -8.074  12.730  67.506  1.00  0.00    -0.180 A  
HETATM   15  C   UNL     1      -7.143  11.952  68.217  1.00  0.00    -0.081 A  
HETATM   16  C   UNL     1      -6.271  12.535  69.121  1.00  0.00    -0.094 A  
HETATM   17  C   UNL     1      -6.337  13.907  69.308  1.00  0.00    -0.112 A  
BRANCH  15  18
HETATM   18  S   UNL     1      -7.147  10.176  68.038  1.00  0.00    -0.084 S  
HETATM   19  O   UNL     1      -5.791   9.712  68.233  1.00  0.00    -0.043 OA 
HETATM   20  O   UNL     1      -7.870   9.873  66.817  1.00  0.00    -0.108 OA 
BRANCH  18  21
HETATM   21  N   UNL     1      -8.096   9.654  69.349  1.00  0.00    -0.107 N  
HETATM   22  C   UNL     1      -9.413  10.292  69.511  1.00  0.00    -0.185 C  
HETATM   23  C   UNL     1      -7.397   9.421  70.624  1.00  0.00    -0.131 C  
ENDBRANCH  18  21
ENDBRANCH  15  18
ENDBRANCH   3   4
ENDBRANCH   2   3
BRANCH   2  24
HETATM   24  N   UNL     1     -12.618  13.966  65.305  1.00  0.00    -0.594 NA 
HETATM   25  C   UNL     1     -12.394  14.830  64.127  1.00  0.00    -0.231 C  
HETATM   26  C   UNL     1     -12.594  12.581  64.817  1.00  0.00    -0.413 C  
ENDBRANCH   2  24
TORSDOF 5
ENDMDL
MODEL       81
REMARK 921   NORMALIZED FREE ENERGY PREDICTED BY IDOCK:   -4.38 KCAL/MOL
REMARK 922        TOTAL FREE ENERGY PREDICTED BY IDOCK:   -6.52 KCAL/MOL
REMARK 923 INTER-LIGAND FREE ENERGY PREDICTED BY IDOCK:   -6.08 KCAL/MOL
REMARK 924 INTRA-LIGAND FREE ENERGY PREDICTED BY IDOCK:   -0.44 KCAL/MOL
REMARK 927      BINDING AFFINITY PREDICTED BY RF-SCORE:    0.00 PKD
ROOT
HETATM    1  C   UNL     1     -11.428  14.372  67.236  1.00  0.00    -0.377 C  
HETATM    2  C   UNL     1     -11.164  14.946  65.819  1.00  0.00    -0.334 C  
ENDROOT
BRANCH   2   3
HETATM    3  C   UNL     1      -9.609  15.241  65.777  1.00  0.00    -0.324 C  
BRANCH   3   4
HETATM    4  N   UNL     1      -9.007  16.031  66.886  1.00  0.00    -0.211 NA 
HETATM    5  C   UNL     1      -9.360  17.418  66.963  1.00  0.00    -0.260 A  
HETATM    6  C   UNL     1     -10.203  18.048  66.020  1.00  0.00    -0.304 A  
HETATM    7  C   UNL     1     -10.483  19.423  66.040  1.00  0.00    -0.596 A  
HETATM    8  C   UNL     1      -9.962  20.221  67.041  1.00  0.00    -0.601 A  
HETATM    9  C   UNL     1      -9.168  19.635  68.015  1.00  0.00    -0.409 A  
HETATM   10  C   UNL     1      -8.862  18.259  67.981  1.00  0.00    -0.280 A  
HETATM   11  S   UNL     1      -7.820  17.714  69.303  1.00  0.00     0.268 SA 
HETATM   12  C   UNL     1      -7.566  16.005  68.912  1.00  0.00    -0.192 A  
HETATM   13  C   UNL     1      -8.161  15.338  67.817  1.00  0.00    -0.147 A  
HETATM   14  C   UNL     1      -7.841  13.963  67.699  1.00  0.00    -0.187 A  
HETATM   15  C   UNL     1      -6.994  13.306  68.609  1.00  0.00    -0.101 A  
HETATM   16  C   UNL     1      -6.422  13.989  69.669  1.00  0.00    -0.122 A  
HETATM   17  C   UNL     1      -6.703  15.339  69.810  1.00  0.00    -0.176 A  
BRANCH  15  18
HETATM   18  S   UNL     1      -6.733  11.546  68.469  1.00  0.00    -0.073 S  
HETATM   19  O   UNL     1      -7.932  10.886  68.936  1.00  0.00    -0.133 OA 
HETATM   20  O   UNL     1      -5.443  11.259  69.068  1.00  0.00    -0.041 OA 
BRANCH  18  21
HETATM   21  N   UNL     1      -6.594  11.304  66.792  1.00  0.00    -0.130 N  
HETATM   22  C   UNL     1      -7.600  10.433  66.162  1.00  0.00    -0.130 C  
HETATM   23  C   UNL     1      -5.235  11.110  66.259  1.00  0.00    -0.132 C  
ENDBRANCH  18  21
ENDBRANCH  15  18
ENDBRANCH   3   4
ENDBRANCH   2   3
BRANCH   2  24
HETATM   24  N   UNL     1     -11.826  14.066  64.804  1.00  0.00    -0.381 NA 
HETATM   25  C   UNL     1     -10.820  13.255  64.085  1.00  0.00    -0.343 C  
HETATM   26  C   UNL     1     -12.771  13.118  65.407  1.00  0.00    -0.360 C  
ENDBRANCH   2  24
TORSDOF 5
ENDMDL
MODEL       82
REMARK 921   NORMALIZED FREE ENERGY PREDICTED BY IDOCK:   -4.37 KCAL/MOL
REMARK 922        TOTAL FREE ENERGY PREDICTED BY IDOCK:   -6.50 KCAL/MOL
REMARK 923 INTER-LIGAND FREE ENERGY PREDICTED BY IDOCK:   -6.05 KCAL/MOL
REMARK 924 INTRA-LIGAND FREE ENERGY PREDICTED BY IDOCK:   -0.45 KCAL/MOL
REMARK 927      BINDING AFFINITY PREDICTED BY RF-SCORE:    0.00 PKD
ROOT
HETATM    1  C   UNL     1      -7.897  14.143  68.536  1.00  0.00    -0.140 C  
HETATM    2  C   UNL     1      -9.361  14.520  68.184  1.00  0.00    -0.197 C  
ENDROOT
BRANCH   2   3
HETATM    3  C   UNL     1     -10.164  13.157  68.248  1.00  0.00    -0.250 C  
BRANCH   3   4
HETATM    4  N   UNL     1     -10.102  12.242  67.075  1.00  0.00    -0.212 NA 
HETATM    5  C   UNL     1     -10.711  12.698  65.861  1.00  0.00    -0.266 A  
HETATM    6  C   UNL     1     -11.387  13.936  65.760  1.00  0.00    -0.308 A  
HETATM    7  C   UNL     1     -12.060  14.349  64.600  1.00  0.00    -0.485 A  
HETATM    8  C   UNL     1     -12.044  13.554  63.470  1.00  0.00    -0.425 A  
HETATM    9  C   UNL     1     -11.352  12.353  63.509  1.00  0.00    -0.553 A  
HETATM   10  C   UNL     1     -10.699  11.922  64.683  1.00  0.00    -0.307 A  
HETATM   11  S   UNL     1      -9.891  10.355  64.530  1.00  0.00    -0.322 SA 
HETATM   12  C   UNL     1      -9.272  10.082  66.167  1.00  0.00    -0.165 A  
HETATM   13  C   UNL     1      -9.400  11.000  67.234  1.00  0.00    -0.156 A  
HETATM   14  C   UNL     1      -8.812  10.592  68.457  1.00  0.00    -0.148 A  
HETATM   15  C   UNL     1      -8.145   9.362  68.599  1.00  0.00    -0.104 A  
HETATM   16  C   UNL     1      -8.042   8.482  67.535  1.00  0.00    -0.107 A  
HETATM   17  C   UNL     1      -8.615   8.841  66.325  1.00  0.00    -0.144 A  
BRANCH  15  18
HETATM   18  S   UNL     1      -7.324   8.968  70.133  1.00  0.00    -0.076 S  
HETATM   19  O   UNL     1      -7.185  10.197  70.885  1.00  0.00    -0.291 OA 
HETATM   20  O   UNL     1      -6.163   8.164  69.801  1.00  0.00    -0.029 OA 
BRANCH  18  21
HETATM   21  N   UNL     1      -8.443   7.966  70.929  1.00  0.00    -0.124 N  
HETATM   22  C   UNL     1      -9.288   8.598  71.956  1.00  0.00    -0.292 C  
HETATM   23  C   UNL     1      -7.980   6.617  71.300  1.00  0.00    -0.107 C  
ENDBRANCH  18  21
ENDBRANCH  15  18
ENDBRANCH   3   4
ENDBRANCH   2   3
BRANCH   2  24
HETATM   24  N   UNL     1      -9.767  15.712  68.996  1.00  0.00    -0.224 NA 
HETATM   25  C   UNL     1      -8.916  16.876  68.671  1.00  0.00    -0.266 C  
HETATM   26  C   UNL     1     -11.153  16.125  68.740  1.00  0.00    -0.354 C  
ENDBRANCH   2  24
TORSDOF 5
ENDMDL
MODEL       83
REMARK 921   NORMALIZED FREE ENERGY PREDICTED BY IDOCK:   -4.36 KCAL/MOL
REMARK 922        TOTAL FREE ENERGY PREDICTED BY IDOCK:   -6.50 KCAL/MOL
REMARK 923 INTER-LIGAND FREE ENERGY PREDICTED BY IDOCK:   -6.51 KCAL/MOL
REMARK 924 INTRA-LIGAND FREE ENERGY PREDICTED BY IDOCK:    0.01 KCAL/MOL
REMARK 927      BINDING AFFINITY PREDICTED BY RF-SCORE:    0.00 PKD
ROOT
HETATM    1  C   UNL     1      -6.995   8.500  67.271  1.00  0.00    -0.075 C  
HETATM    2  C   UNL     1      -8.461   8.644  67.760  1.00  0.00    -0.125 C  
ENDROOT
BRANCH   2   3
HETATM    3  C   UNL     1      -8.529  10.069  68.446  1.00  0.00    -0.112 C  
BRANCH   3   4
HETATM    4  N   UNL     1      -9.788  10.465  69.133  1.00  0.00    -0.214 NA 
HETATM    5  C   UNL     1     -10.300   9.566  70.125  1.00  0.00    -0.255 A  
HETATM    6  C   UNL     1      -9.685   8.329  70.429  1.00  0.00    -0.175 A  
HETATM    7  C   UNL     1     -10.227   7.406  71.336  1.00  0.00    -0.198 A  
HETATM    8  C   UNL     1     -11.394   7.705  72.015  1.00  0.00    -0.322 A  
HETATM    9  C   UNL     1     -12.005   8.928  71.782  1.00  0.00    -0.429 A  
HETATM   10  C   UNL     1     -11.477   9.846  70.850  1.00  0.00    -0.376 A  
HETATM   11  S   UNL     1     -12.416  11.337  70.688  1.00  0.00    -0.328 SA 
HETATM   12  C   UNL     1     -11.550  12.199  69.406  1.00  0.00    -0.317 A  
HETATM   13  C   UNL     1     -10.367  11.733  68.788  1.00  0.00    -0.179 A  
HETATM   14  C   UNL     1      -9.823  12.589  67.799  1.00  0.00    -0.204 A  
HETATM   15  C   UNL     1     -10.416  13.819  67.459  1.00  0.00    -0.245 A  
HETATM   16  C   UNL     1     -11.578  14.245  68.080  1.00  0.00    -0.365 A  
HETATM   17  C   UNL     1     -12.146  13.428  69.045  1.00  0.00    -0.299 A  
BRANCH  15  18
HETATM   18  S   UNL     1      -9.610  14.902  66.292  1.00  0.00    -0.316 S  
HETATM   19  O   UNL     1     -10.054  14.527  64.967  1.00  0.00    -0.393 OA 
HETATM   20  O   UNL     1      -8.198  14.914  66.627  1.00  0.00    -0.137 OA 
BRANCH  18  21
HETATM   21  N   UNL     1     -10.249  16.430  66.670  1.00  0.00    -0.286 N  
HETATM   22  C   UNL     1     -10.576  17.313  65.538  1.00  0.00    -0.127 C  
HETATM   23  C   UNL     1      -9.643  17.141  67.810  1.00  0.00    -0.256 C  
ENDBRANCH  18  21
ENDBRANCH  15  18
ENDBRANCH   3   4
ENDBRANCH   2   3
BRANCH   2  24
HETATM   24  N   UNL     1      -9.387   8.261  66.646  1.00  0.00    -0.178 NA 
HETATM   25  C   UNL     1     -10.561   7.532  67.174  1.00  0.00    -0.345 C  
HETATM   26  C   UNL     1      -9.912   9.426  65.922  1.00  0.00    -0.256 C  
ENDBRANCH   2  24
TORSDOF 5
ENDMDL
MODEL       84
REMARK 921   NORMALIZED FREE ENERGY PREDICTED BY IDOCK:   -4.36 KCAL/MOL
REMARK 922        TOTAL FREE ENERGY PREDICTED BY IDOCK:   -6.50 KCAL/MOL
REMARK 923 INTER-LIGAND FREE ENERGY PREDICTED BY IDOCK:   -5.84 KCAL/MOL
REMARK 924 INTRA-LIGAND FREE ENERGY PREDICTED BY IDOCK:   -0.66 KCAL/MOL
REMARK 927      BINDING AFFINITY PREDICTED BY RF-SCORE:    0.00 PKD
ROOT
HETATM    1  C   UNL     1      -7.407  14.953  69.768  1.00  0.00    -0.100 C  
HETATM    2  C   UNL     1      -7.698  13.806  68.765  1.00  0.00    -0.080 C  
ENDROOT
BRANCH   2   3
HETATM    3  C   UNL     1      -9.272  13.793  68.600  1.00  0.00    -0.069 C  
BRANCH   3   4
HETATM    4  N   UNL     1      -9.841  13.517  67.253  1.00  0.00    -0.233 NA 
HETATM    5  C   UNL     1      -9.985  12.141  66.876  1.00  0.00    -0.204 A  
HETATM    6  C   UNL     1      -9.574  11.072  67.705  1.00  0.00    -0.181 A  
HETATM    7  C   UNL     1      -9.632   9.728  67.307  1.00  0.00    -0.194 A  
HETATM    8  C   UNL     1     -10.151   9.393  66.071  1.00  0.00    -0.302 A  
HETATM    9  C   UNL     1     -10.611  10.408  65.244  1.00  0.00    -0.064 A  
HETATM   10  C   UNL     1     -10.527  11.762  65.630  1.00  0.00    -0.265 A  
HETATM   11  S   UNL     1     -11.151  12.899  64.426  1.00  0.00    -0.385 SA 
HETATM   12  C   UNL     1     -10.816  14.470  65.173  1.00  0.00    -0.395 A  
HETATM   13  C   UNL     1     -10.245  14.640  66.455  1.00  0.00    -0.278 A  
HETATM   14  C   UNL     1     -10.083  15.985  66.872  1.00  0.00    -0.266 A  
HETATM   15  C   UNL     1     -10.467  17.074  66.068  1.00  0.00    -0.274 A  
HETATM   16  C   UNL     1     -11.018  16.873  64.814  1.00  0.00     0.079 A  
HETATM   17  C   UNL     1     -11.181  15.571  64.367  1.00  0.00    -0.232 A  
BRANCH  15  18
HETATM   18  S   UNL     1     -10.345  18.736  66.706  1.00  0.00    -0.434 S  
HETATM   19  O   UNL     1     -11.140  18.801  67.914  1.00  0.00    -0.193 OA 
HETATM   20  O   UNL     1     -10.600  19.637  65.598  1.00  0.00    -0.503 OA 
BRANCH  18  21
HETATM   21  N   UNL     1      -8.704  18.875  67.125  1.00  0.00    -0.279 N  
HETATM   22  C   UNL     1      -7.738  18.156  66.277  1.00  0.00    -0.255 C  
HETATM   23  C   UNL     1      -8.377  18.818  68.561  1.00  0.00    -0.346 C  
ENDBRANCH  18  21
ENDBRANCH  15  18
ENDBRANCH   3   4
ENDBRANCH   2   3
BRANCH   2  24
HETATM   24  N   UNL     1      -6.784  13.944  67.586  1.00  0.00    -0.178 NA 
HETATM   25  C   UNL     1      -5.745  14.963  67.851  1.00  0.00    -0.125 C  
HETATM   26  C   UNL     1      -6.074  12.698  67.272  1.00  0.00    -0.082 C  
ENDBRANCH   2  24
TORSDOF 5
ENDMDL
MODEL       85
REMARK 921   NORMALIZED FREE ENERGY PREDICTED BY IDOCK:   -4.35 KCAL/MOL
REMARK 922        TOTAL FREE ENERGY PREDICTED BY IDOCK:   -6.48 KCAL/MOL
REMARK 923 INTER-LIGAND FREE ENERGY PREDICTED BY IDOCK:   -6.12 KCAL/MOL
REMARK 924 INTRA-LIGAND FREE ENERGY PREDICTED BY IDOCK:   -0.36 KCAL/MOL
REMARK 927      BINDING AFFINITY PREDICTED BY RF-SCORE:    0.00 PKD
ROOT
HETATM    1  C   UNL     1      -8.465   7.339  66.947  1.00  0.00    -0.119 C  
HETATM    2  C   UNL     1      -9.875   7.862  66.565  1.00  0.00    -0.202 C  
ENDROOT
BRANCH   2   3
HETATM    3  C   UNL     1     -10.870   6.701  66.974  1.00  0.00    -0.397 C  
BRANCH   3   4
HETATM    4  N   UNL     1     -10.315   5.496  67.650  1.00  0.00    -0.203 NA 
HETATM    5  C   UNL     1      -9.873   4.423  66.808  1.00  0.00    -0.218 A  
HETATM    6  C   UNL     1      -9.988   4.456  65.399  1.00  0.00    -0.231 A  
HETATM    7  C   UNL     1      -9.639   3.376  64.576  1.00  0.00    -0.160 A  
HETATM    8  C   UNL     1      -9.113   2.224  65.131  1.00  0.00    -0.127 A  
HETATM    9  C   UNL     1      -8.938   2.166  66.506  1.00  0.00    -0.114 A  
HETATM   10  C   UNL     1      -9.315   3.240  67.338  1.00  0.00    -0.201 A  
HETATM   11  S   UNL     1      -9.028   2.959  69.061  1.00  0.00    -0.135 SA 
HETATM   12  C   UNL     1      -9.682   4.428  69.804  1.00  0.00    -0.221 A  
HETATM   13  C   UNL     1     -10.218   5.519  69.082  1.00  0.00    -0.239 A  
HETATM   14  C   UNL     1     -10.668   6.605  69.872  1.00  0.00    -0.297 A  
HETATM   15  C   UNL     1     -10.584   6.601  71.276  1.00  0.00    -0.223 A  
HETATM   16  C   UNL     1     -10.059   5.514  71.955  1.00  0.00    -0.239 A  
HETATM   17  C   UNL     1      -9.619   4.427  71.215  1.00  0.00    -0.242 A  
BRANCH  15  18
HETATM   18  S   UNL     1     -11.058   8.053  72.199  1.00  0.00    -0.338 S  
HETATM   19  O   UNL     1     -10.092   9.091  71.911  1.00  0.00    -0.339 OA 
HETATM   20  O   UNL     1     -11.308   7.627  73.564  1.00  0.00    -0.216 OA 
BRANCH  18  21
HETATM   21  N   UNL     1     -12.549   8.487  71.508  1.00  0.00    -0.314 N  
HETATM   22  C   UNL     1     -12.964   9.892  71.653  1.00  0.00    -0.434 C  
HETATM   23  C   UNL     1     -13.657   7.529  71.663  1.00  0.00    -0.368 C  
ENDBRANCH  18  21
ENDBRANCH  15  18
ENDBRANCH   3   4
ENDBRANCH   2   3
BRANCH   2  24
HETATM   24  N   UNL     1     -10.037   9.257  67.086  1.00  0.00    -0.218 NA 
HETATM   25  C   UNL     1      -9.172   9.475  68.265  1.00  0.00    -0.130 C  
HETATM   26  C   UNL     1      -9.659  10.277  66.099  1.00  0.00    -0.197 C  
ENDBRANCH   2  24
TORSDOF 5
ENDMDL
MODEL       86
REMARK 921   NORMALIZED FREE ENERGY PREDICTED BY IDOCK:   -4.32 KCAL/MOL
REMARK 922        TOTAL FREE ENERGY PREDICTED BY IDOCK:   -6.45 KCAL/MOL
REMARK 923 INTER-LIGAND FREE ENERGY PREDICTED BY IDOCK:   -5.58 KCAL/MOL
REMARK 924 INTRA-LIGAND FREE ENERGY PREDICTED BY IDOCK:   -0.87 KCAL/MOL
REMARK 927      BINDING AFFINITY PREDICTED BY RF-SCORE:    0.00 PKD
ROOT
HETATM    1  C   UNL     1     -10.641   8.260  67.016  1.00  0.00    -0.328 C  
HETATM    2  C   UNL     1     -10.511   9.574  66.203  1.00  0.00    -0.007 C  
ENDROOT
BRANCH   2   3
HETATM    3  C   UNL     1     -10.836  10.731  67.234  1.00  0.00    -0.288 C  
BRANCH   3   4
HETATM    4  N   UNL     1      -9.913  11.896  67.305  1.00  0.00    -0.186 NA 
HETATM    5  C   UNL     1     -10.276  13.063  66.555  1.00  0.00    -0.268 A  
HETATM    6  C   UNL     1     -11.429  13.121  65.739  1.00  0.00    -0.355 A  
HETATM    7  C   UNL     1     -11.744  14.226  64.935  1.00  0.00    -0.399 A  
HETATM    8  C   UNL     1     -10.936  15.347  64.951  1.00  0.00    -0.453 A  
HETATM    9  C   UNL     1      -9.819  15.352  65.774  1.00  0.00    -0.399 A  
HETATM   10  C   UNL     1      -9.485  14.230  66.562  1.00  0.00    -0.287 A  
HETATM   11  S   UNL     1      -8.015  14.433  67.525  1.00  0.00    -0.200 SA 
HETATM   12  C   UNL     1      -7.841  12.849  68.298  1.00  0.00    -0.142 A  
HETATM   13  C   UNL     1      -8.759  11.783  68.153  1.00  0.00    -0.168 A  
HETATM   14  C   UNL     1      -8.441  10.607  68.877  1.00  0.00    -0.154 A  
HETATM   15  C   UNL     1      -7.296  10.508  69.686  1.00  0.00    -0.149 A  
HETATM   16  C   UNL     1      -6.413  11.569  69.803  1.00  0.00    -0.125 A  
HETATM   17  C   UNL     1      -6.684  12.732  69.100  1.00  0.00    -0.080 A  
BRANCH  15  18
HETATM   18  S   UNL     1      -7.023   9.041  70.664  1.00  0.00    -0.087 S  
HETATM   19  O   UNL     1      -6.599   9.464  71.982  1.00  0.00    -0.300 OA 
HETATM   20  O   UNL     1      -6.201   8.146  69.870  1.00  0.00    -0.032 OA 
BRANCH  18  21
HETATM   21  N   UNL     1      -8.574   8.356  70.783  1.00  0.00    -0.135 N  
HETATM   22  C   UNL     1      -9.362   8.701  71.978  1.00  0.00    -0.292 C  
HETATM   23  C   UNL     1      -8.711   6.946  70.378  1.00  0.00    -0.147 C  
ENDBRANCH  18  21
ENDBRANCH  15  18
ENDBRANCH   3   4
ENDBRANCH   2   3
BRANCH   2  24
HETATM   24  N   UNL     1      -9.227   9.546  65.430  1.00  0.00    -0.231 NA 
HETATM   25  C   UNL     1      -8.704   8.165  65.344  1.00  0.00    -0.094 C  
HETATM   26  C   UNL     1      -9.388  10.017  64.049  1.00  0.00    -0.270 C  
ENDBRANCH   2  24
TORSDOF 5
ENDMDL
MODEL       87
REMARK 921   NORMALIZED FREE ENERGY PREDICTED BY IDOCK:   -4.30 KCAL/MOL
REMARK 922        TOTAL FREE ENERGY PREDICTED BY IDOCK:   -6.41 KCAL/MOL
REMARK 923 INTER-LIGAND FREE ENERGY PREDICTED BY IDOCK:   -6.04 KCAL/MOL
REMARK 924 INTRA-LIGAND FREE ENERGY PREDICTED BY IDOCK:   -0.38 KCAL/MOL
REMARK 927      BINDING AFFINITY PREDICTED BY RF-SCORE:    0.00 PKD
ROOT
HETATM    1  C   UNL     1     -10.341  12.423  64.778  1.00  0.00    -0.324 C  
HETATM    2  C   UNL     1     -11.627  11.973  65.521  1.00  0.00    -0.293 C  
ENDROOT
BRANCH   2   3
HETATM    3  C   UNL     1     -11.287  12.119  67.060  1.00  0.00    -0.337 C  
BRANCH   3   4
HETATM    4  N   UNL     1      -9.954  11.660  67.538  1.00  0.00    -0.186 NA 
HETATM    5  C   UNL     1      -9.677  10.257  67.447  1.00  0.00    -0.160 A  
HETATM    6  C   UNL     1     -10.622   9.318  66.971  1.00  0.00    -0.263 A  
HETATM    7  C   UNL     1     -10.390   7.935  66.960  1.00  0.00    -0.411 A  
HETATM    8  C   UNL     1      -9.174   7.433  67.386  1.00  0.00    -0.146 A  
HETATM    9  C   UNL     1      -8.200   8.322  67.817  1.00  0.00    -0.127 A  
HETATM   10  C   UNL     1      -8.442   9.711  67.855  1.00  0.00    -0.122 A  
HETATM   11  S   UNL     1      -7.079  10.668  68.452  1.00  0.00    -0.081 SA 
HETATM   12  C   UNL     1      -7.738  12.313  68.458  1.00  0.00    -0.118 A  
HETATM   13  C   UNL     1      -9.033  12.656  68.007  1.00  0.00    -0.200 A  
HETATM   14  C   UNL     1      -9.352  14.035  68.079  1.00  0.00    -0.205 A  
HETATM   15  C   UNL     1      -8.444  14.995  68.560  1.00  0.00    -0.163 A  
HETATM   16  C   UNL     1      -7.184  14.624  69.000  1.00  0.00    -0.135 A  
HETATM   17  C   UNL     1      -6.840  13.283  68.956  1.00  0.00    -0.096 A  
BRANCH  15  18
HETATM   18  S   UNL     1      -8.869  16.727  68.508  1.00  0.00    -0.255 S  
HETATM   19  O   UNL     1      -7.719  17.475  68.965  1.00  0.00    -0.236 OA 
HETATM   20  O   UNL     1     -10.157  16.869  69.160  1.00  0.00    -0.278 OA 
BRANCH  18  21
HETATM   21  N   UNL     1      -9.090  17.025  66.849  1.00  0.00    -0.228 N  
HETATM   22  C   UNL     1      -7.917  16.838  65.979  1.00  0.00    -0.075 C  
HETATM   23  C   UNL     1      -9.906  18.198  66.487  1.00  0.00    -0.362 C  
ENDBRANCH  18  21
ENDBRANCH  15  18
ENDBRANCH   3   4
ENDBRANCH   2   3
BRANCH   2  24
HETATM   24  N   UNL     1     -12.811  12.657  64.908  1.00  0.00    -0.842 NA 
HETATM   25  C   UNL     1     -12.810  14.097  65.245  1.00  0.00    -0.344 C  
HETATM   26  C   UNL     1     -12.816  12.573  63.442  1.00  0.00    -0.048 C  
ENDBRANCH   2  24
TORSDOF 5
ENDMDL
MODEL       88
REMARK 921   NORMALIZED FREE ENERGY PREDICTED BY IDOCK:   -4.28 KCAL/MOL
REMARK 922        TOTAL FREE ENERGY PREDICTED BY IDOCK:   -6.39 KCAL/MOL
REMARK 923 INTER-LIGAND FREE ENERGY PREDICTED BY IDOCK:   -6.29 KCAL/MOL
REMARK 924 INTRA-LIGAND FREE ENERGY PREDICTED BY IDOCK:   -0.10 KCAL/MOL
REMARK 927      BINDING AFFINITY PREDICTED BY RF-SCORE:    0.00 PKD
ROOT
HETATM    1  C   UNL     1      -8.687   7.747  67.463  1.00  0.00    -0.125 C  
HETATM    2  C   UNL     1      -9.891   7.780  66.485  1.00  0.00    -0.185 C  
ENDROOT
BRANCH   2   3
HETATM    3  C   UNL     1     -10.919   6.722  67.060  1.00  0.00    -0.368 C  
BRANCH   3   4
HETATM    4  N   UNL     1     -10.384   5.484  67.688  1.00  0.00    -0.203 NA 
HETATM    5  C   UNL     1      -9.894   4.465  66.806  1.00  0.00    -0.218 A  
HETATM    6  C   UNL     1      -9.943   4.582  65.398  1.00  0.00    -0.207 A  
HETATM    7  C   UNL     1      -9.546   3.554  64.530  1.00  0.00    -0.167 A  
HETATM    8  C   UNL     1      -9.035   2.375  65.040  1.00  0.00    -0.126 A  
HETATM    9  C   UNL     1      -8.925   2.236  66.415  1.00  0.00    -0.118 A  
HETATM   10  C   UNL     1      -9.350   3.257  67.291  1.00  0.00    -0.192 A  
HETATM   11  S   UNL     1      -9.140   2.876  69.006  1.00  0.00    -0.156 SA 
HETATM   12  C   UNL     1      -9.842   4.293  69.803  1.00  0.00    -0.187 A  
HETATM   13  C   UNL     1     -10.354   5.421  69.122  1.00  0.00    -0.230 A  
HETATM   14  C   UNL     1     -10.851   6.456  69.953  1.00  0.00    -0.370 A  
HETATM   15  C   UNL     1     -10.832   6.369  71.357  1.00  0.00    -0.253 A  
HETATM   16  C   UNL     1     -10.328   5.247  71.994  1.00  0.00    -0.273 A  
HETATM   17  C   UNL     1      -9.845   4.209  71.213  1.00  0.00    -0.249 A  
BRANCH  15  18
HETATM   18  S   UNL     1     -11.362   7.760  72.341  1.00  0.00    -0.371 S  
HETATM   19  O   UNL     1     -10.922   7.528  73.700  1.00  0.00    -0.322 OA 
HETATM   20  O   UNL     1     -12.764   7.985  72.041  1.00  0.00    -0.315 OA 
BRANCH  18  21
HETATM   21  N   UNL     1     -10.475   9.057  71.694  1.00  0.00    -0.337 N  
HETATM   22  C   UNL     1     -11.189   9.955  70.771  1.00  0.00    -0.353 C  
HETATM   23  C   UNL     1      -9.089   8.775  71.282  1.00  0.00    -0.234 C  
ENDBRANCH  18  21
ENDBRANCH  15  18
ENDBRANCH   3   4
ENDBRANCH   2   3
BRANCH   2  24
HETATM   24  N   UNL     1     -10.283   9.206  66.241  1.00  0.00    -0.248 NA 
HETATM   25  C   UNL     1      -9.934  10.047  67.406  1.00  0.00    -0.197 C  
HETATM   26  C   UNL     1      -9.594   9.791  65.084  1.00  0.00    -0.287 C  
ENDBRANCH   2  24
TORSDOF 5
ENDMDL
MODEL       89
REMARK 921   NORMALIZED FREE ENERGY PREDICTED BY IDOCK:   -4.21 KCAL/MOL
REMARK 922        TOTAL FREE ENERGY PREDICTED BY IDOCK:   -6.30 KCAL/MOL
REMARK 923 INTER-LIGAND FREE ENERGY PREDICTED BY IDOCK:   -6.16 KCAL/MOL
REMARK 924 INTRA-LIGAND FREE ENERGY PREDICTED BY IDOCK:   -0.15 KCAL/MOL
REMARK 927      BINDING AFFINITY PREDICTED BY RF-SCORE:    0.00 PKD
ROOT
HETATM    1  C   UNL     1      -8.318  15.456  69.477  1.00  0.00    -0.204 C  
HETATM    2  C   UNL     1      -7.132  14.753  68.765  1.00  0.00    -0.114 C  
ENDROOT
BRANCH   2   3
HETATM    3  C   UNL     1      -7.039  15.440  67.342  1.00  0.00    -0.196 C  
BRANCH   3   4
HETATM    4  N   UNL     1      -8.238  16.150  66.818  1.00  0.00    -0.240 NA 
HETATM    5  C   UNL     1      -8.252  17.579  66.936  1.00  0.00    -0.228 A  
HETATM    6  C   UNL     1      -7.211  18.307  67.556  1.00  0.00    -0.208 A  
HETATM    7  C   UNL     1      -7.258  19.695  67.751  1.00  0.00    -0.302 A  
HETATM    8  C   UNL     1      -8.338  20.424  67.290  1.00  0.00    -0.398 A  
HETATM    9  C   UNL     1      -9.361  19.756  66.633  1.00  0.00    -0.483 A  
HETATM   10  C   UNL     1      -9.329  18.356  66.460  1.00  0.00    -0.309 A  
HETATM   11  S   UNL     1     -10.736  17.697  65.614  1.00  0.00     0.115 SA 
HETATM   12  C   UNL     1     -10.425  15.954  65.651  1.00  0.00    -0.392 A  
HETATM   13  C   UNL     1      -9.263  15.361  66.196  1.00  0.00    -0.327 A  
HETATM   14  C   UNL     1      -9.204  13.948  66.102  1.00  0.00    -0.040 A  
HETATM   15  C   UNL     1     -10.228  13.189  65.506  1.00  0.00    -0.287 A  
HETATM   16  C   UNL     1     -11.357  13.801  64.987  1.00  0.00    -0.334 A  
HETATM   17  C   UNL     1     -11.455  15.181  65.070  1.00  0.00    -0.339 A  
BRANCH  15  18
HETATM   18  S   UNL     1     -10.031  11.426  65.315  1.00  0.00    -0.270 S  
HETATM   19  O   UNL     1      -8.626  11.121  65.483  1.00  0.00    -0.149 OA 
HETATM   20  O   UNL     1     -10.735  11.048  64.104  1.00  0.00    -0.378 OA 
BRANCH  18  21
HETATM   21  N   UNL     1     -10.889  10.791  66.638  1.00  0.00    -0.208 N  
HETATM   22  C   UNL     1     -11.407  11.758  67.620  1.00  0.00    -0.302 C  
HETATM   23  C   UNL     1     -10.352   9.564  67.252  1.00  0.00    -0.255 C  
ENDBRANCH  18  21
ENDBRANCH  15  18
ENDBRANCH   3   4
ENDBRANCH   2   3
BRANCH   2  24
HETATM   24  N   UNL     1      -5.959  14.709  69.696  1.00  0.00    -0.103 NA 
HETATM   25  C   UNL     1      -5.547  16.077  70.076  1.00  0.00    -0.159 C  
HETATM   26  C   UNL     1      -6.257  14.001  70.948  1.00  0.00    -0.049 C  
ENDBRANCH   2  24
TORSDOF 5
ENDMDL
MODEL       90
REMARK 921   NORMALIZED FREE ENERGY PREDICTED BY IDOCK:   -4.19 KCAL/MOL
REMARK 922        TOTAL FREE ENERGY PREDICTED BY IDOCK:   -6.28 KCAL/MOL
REMARK 923 INTER-LIGAND FREE ENERGY PREDICTED BY IDOCK:   -5.89 KCAL/MOL
REMARK 924 INTRA-LIGAND FREE ENERGY PREDICTED BY IDOCK:   -0.39 KCAL/MOL
REMARK 927      BINDING AFFINITY PREDICTED BY RF-SCORE:    0.00 PKD
ROOT
HETATM    1  C   UNL     1     -11.948  11.998  67.796  1.00  0.00    -0.177 C  
HETATM    2  C   UNL     1     -11.342  12.443  66.439  1.00  0.00    -0.342 C  
ENDROOT
BRANCH   2   3
HETATM    3  C   UNL     1     -10.212  11.380  66.124  1.00  0.00    -0.239 C  
BRANCH   3   4
HETATM    4  N   UNL     1      -9.298  10.970  67.225  1.00  0.00    -0.156 NA 
HETATM    5  C   UNL     1      -9.367   9.604  67.653  1.00  0.00    -0.126 A  
HETATM    6  C   UNL     1     -10.280   8.674  67.105  1.00  0.00    -0.353 A  
HETATM    7  C   UNL     1     -10.412   7.360  67.579  1.00  0.00    -0.338 A  
HETATM    8  C   UNL     1      -9.596   6.905  68.597  1.00  0.00    -0.133 A  
HETATM    9  C   UNL     1      -8.653   7.770  69.132  1.00  0.00    -0.138 A  
HETATM   10  C   UNL     1      -8.537   9.100  68.677  1.00  0.00    -0.128 A  
HETATM   11  S   UNL     1      -7.287  10.043  69.501  1.00  0.00    -0.130 SA 
HETATM   12  C   UNL     1      -7.472  11.646  68.771  1.00  0.00    -0.114 A  
HETATM   13  C   UNL     1      -8.390  11.955  67.741  1.00  0.00    -0.149 A  
HETATM   14  C   UNL     1      -8.359  13.296  67.285  1.00  0.00    -0.182 A  
HETATM   15  C   UNL     1      -7.475  14.252  67.816  1.00  0.00    -0.164 A  
HETATM   16  C   UNL     1      -6.591  13.919  68.829  1.00  0.00    -0.098 A  
HETATM   17  C   UNL     1      -6.601  12.619  69.310  1.00  0.00    -0.092 A  
BRANCH  15  18
HETATM   18  S   UNL     1      -7.407  15.890  67.110  1.00  0.00    -0.214 S  
HETATM   19  O   UNL     1      -8.342  15.930  66.006  1.00  0.00    -0.202 OA 
HETATM   20  O   UNL     1      -6.006  16.211  66.912  1.00  0.00    -0.330 OA 
BRANCH  18  21
HETATM   21  N   UNL     1      -7.997  16.879  68.360  1.00  0.00    -0.221 N  
HETATM   22  C   UNL     1      -6.995  17.543  69.210  1.00  0.00    -0.172 C  
HETATM   23  C   UNL     1      -9.162  16.379  69.110  1.00  0.00    -0.216 C  
ENDBRANCH  18  21
ENDBRANCH  15  18
ENDBRANCH   3   4
ENDBRANCH   2   3
BRANCH   2  24
HETATM   24  N   UNL     1     -12.455  12.718  65.473  1.00  0.00    -0.623 NA 
HETATM   25  C   UNL     1     -12.622  14.173  65.275  1.00  0.00    -0.442 C  
HETATM   26  C   UNL     1     -12.206  12.143  64.145  1.00  0.00    -0.413 C  
ENDBRANCH   2  24
TORSDOF 5
ENDMDL
MODEL       91
REMARK 921   NORMALIZED FREE ENERGY PREDICTED BY IDOCK:   -4.17 KCAL/MOL
REMARK 922        TOTAL FREE ENERGY PREDICTED BY IDOCK:   -6.25 KCAL/MOL
REMARK 923 INTER-LIGAND FREE ENERGY PREDICTED BY IDOCK:   -6.79 KCAL/MOL
REMARK 924 INTRA-LIGAND FREE ENERGY PREDICTED BY IDOCK:    0.53 KCAL/MOL
REMARK 927      BINDING AFFINITY PREDICTED BY RF-SCORE:    0.00 PKD
ROOT
HETATM    1  C   UNL     1      -8.322   9.343  66.169  1.00  0.00    -0.118 C  
HETATM    2  C   UNL     1      -8.814   9.294  67.640  1.00  0.00    -0.119 C  
ENDROOT
BRANCH   2   3
HETATM    3  C   UNL     1      -9.562  10.670  67.871  1.00  0.00    -0.162 C  
BRANCH   3   4
HETATM    4  N   UNL     1      -8.745  11.907  67.999  1.00  0.00    -0.165 NA 
HETATM    5  C   UNL     1      -7.575  11.834  68.825  1.00  0.00    -0.104 A  
HETATM    6  C   UNL     1      -7.211  10.666  69.535  1.00  0.00    -0.140 A  
HETATM    7  C   UNL     1      -6.117  10.614  70.412  1.00  0.00    -0.132 A  
HETATM    8  C   UNL     1      -5.310  11.723  70.581  1.00  0.00    -0.145 A  
HETATM    9  C   UNL     1      -5.603  12.875  69.867  1.00  0.00    -0.112 A  
HETATM   10  C   UNL     1      -6.719  12.940  69.006  1.00  0.00    -0.095 A  
HETATM   11  S   UNL     1      -6.927  14.503  68.205  1.00  0.00    -0.140 SA 
HETATM   12  C   UNL     1      -8.431  14.272  67.298  1.00  0.00    -0.210 A  
HETATM   13  C   UNL     1      -9.160  13.062  67.253  1.00  0.00    -0.209 A  
HETATM   14  C   UNL     1     -10.326  13.086  66.448  1.00  0.00    -0.287 A  
HETATM   15  C   UNL     1     -10.728  14.233  65.740  1.00  0.00    -0.305 A  
HETATM   16  C   UNL     1      -9.994  15.406  65.809  1.00  0.00    -0.393 A  
HETATM   17  C   UNL     1      -8.854  15.423  66.596  1.00  0.00    -0.330 A  
BRANCH  15  18
HETATM   18  S   UNL     1     -12.139  14.155  64.650  1.00  0.00    -0.456 S  
HETATM   19  O   UNL     1     -12.206  15.408  63.929  1.00  0.00    -0.607 OA 
HETATM   20  O   UNL     1     -13.263  13.691  65.442  1.00  0.00    -0.678 OA 
BRANCH  18  21
HETATM   21  N   UNL     1     -11.724  12.920  63.560  1.00  0.00    -0.514 N  
HETATM   22  C   UNL     1     -12.721  11.857  63.348  1.00  0.00    -0.366 C  
HETATM   23  C   UNL     1     -10.339  12.419  63.618  1.00  0.00    -0.403 C  
ENDBRANCH  18  21
ENDBRANCH  15  18
ENDBRANCH   3   4
ENDBRANCH   2   3
BRANCH   2  24
HETATM   24  N   UNL     1      -9.490   7.979  67.885  1.00  0.00    -0.144 NA 
HETATM   25  C   UNL     1     -10.454   8.091  69.000  1.00  0.00    -0.199 C  
HETATM   26  C   UNL     1     -10.253   7.510  66.721  1.00  0.00    -0.254 C  
ENDBRANCH   2  24
TORSDOF 5
ENDMDL
MODEL       92
REMARK 921   NORMALIZED FREE ENERGY PREDICTED BY IDOCK:   -4.14 KCAL/MOL
REMARK 922        TOTAL FREE ENERGY PREDICTED BY IDOCK:   -6.22 KCAL/MOL
REMARK 923 INTER-LIGAND FREE ENERGY PREDICTED BY IDOCK:   -5.65 KCAL/MOL
REMARK 924 INTRA-LIGAND FREE ENERGY PREDICTED BY IDOCK:   -0.57 KCAL/MOL
REMARK 927      BINDING AFFINITY PREDICTED BY RF-SCORE:    0.00 PKD
ROOT
HETATM    1  C   UNL     1      -9.666  11.736  63.263  1.00  0.00    -0.350 C  
HETATM    2  C   UNL     1     -10.695  11.991  64.396  1.00  0.00    -0.323 C  
ENDROOT
BRANCH   2   3
HETATM    3  C   UNL     1      -9.825  12.240  65.695  1.00  0.00    -0.231 C  
BRANCH   3   4
HETATM    4  N   UNL     1     -10.313  11.692  66.990  1.00  0.00    -0.212 NA 
HETATM    5  C   UNL     1     -11.037  12.587  67.844  1.00  0.00    -0.245 A  
HETATM    6  C   UNL     1     -11.256  13.946  67.521  1.00  0.00    -0.323 A  
HETATM    7  C   UNL     1     -11.887  14.848  68.390  1.00  0.00    -0.309 A  
HETATM    8  C   UNL     1     -12.370  14.413  69.610  1.00  0.00    -0.300 A  
HETATM    9  C   UNL     1     -12.219  13.076  69.947  1.00  0.00    -0.271 A  
HETATM   10  C   UNL     1     -11.559  12.173  69.087  1.00  0.00    -0.319 A  
HETATM   11  S   UNL     1     -11.456  10.521  69.711  1.00  0.00    -0.309 SA 
HETATM   12  C   UNL     1     -10.513   9.696  68.459  1.00  0.00    -0.212 A  
HETATM   13  C   UNL     1     -10.066  10.305  67.264  1.00  0.00    -0.203 A  
HETATM   14  C   UNL     1      -9.344   9.458  66.387  1.00  0.00    -0.241 A  
HETATM   15  C   UNL     1      -9.094   8.105  66.681  1.00  0.00    -0.165 A  
HETATM   16  C   UNL     1      -9.542   7.540  67.864  1.00  0.00    -0.161 A  
HETATM   17  C   UNL     1     -10.241   8.341  68.753  1.00  0.00    -0.226 A  
BRANCH  15  18
HETATM   18  S   UNL     1      -8.285   7.068  65.476  1.00  0.00    -0.130 S  
HETATM   19  O   UNL     1      -8.071   7.862  64.286  1.00  0.00    -0.139 OA 
HETATM   20  O   UNL     1      -9.030   5.824  65.416  1.00  0.00    -0.133 OA 
BRANCH  18  21
HETATM   21  N   UNL     1      -6.779   6.739  66.191  1.00  0.00    -0.051 N  
HETATM   22  C   UNL     1      -5.582   7.111  65.418  1.00  0.00    -0.032 C  
HETATM   23  C   UNL     1      -6.644   5.453  66.897  1.00  0.00    -0.053 C  
ENDBRANCH  18  21
ENDBRANCH  15  18
ENDBRANCH   3   4
ENDBRANCH   2   3
BRANCH   2  24
HETATM   24  N   UNL     1     -11.705  12.991  63.921  1.00  0.00    -0.437 NA 
HETATM   25  C   UNL     1     -13.014  12.751  64.566  1.00  0.00    -0.123 C  
HETATM   26  C   UNL     1     -11.329  14.373  64.245  1.00  0.00    -0.151 C  
ENDBRANCH   2  24
TORSDOF 5
ENDMDL
MODEL       93
REMARK 921   NORMALIZED FREE ENERGY PREDICTED BY IDOCK:   -4.11 KCAL/MOL
REMARK 922        TOTAL FREE ENERGY PREDICTED BY IDOCK:   -6.17 KCAL/MOL
REMARK 923 INTER-LIGAND FREE ENERGY PREDICTED BY IDOCK:   -5.54 KCAL/MOL
REMARK 924 INTRA-LIGAND FREE ENERGY PREDICTED BY IDOCK:   -0.63 KCAL/MOL
REMARK 927      BINDING AFFINITY PREDICTED BY RF-SCORE:    0.00 PKD
ROOT
HETATM    1  C   UNL     1      -7.984   9.589  66.763  1.00  0.00    -0.109 C  
HETATM    2  C   UNL     1      -9.407   9.540  67.379  1.00  0.00    -0.130 C  
ENDROOT
BRANCH   2   3
HETATM    3  C   UNL     1      -9.184   9.669  68.941  1.00  0.00    -0.147 C  
BRANCH   3   4
HETATM    4  N   UNL     1     -10.045   8.862  69.849  1.00  0.00    -0.189 NA 
HETATM    5  C   UNL     1     -11.147   9.536  70.471  1.00  0.00    -0.283 A  
HETATM    6  C   UNL     1     -11.407  10.913  70.286  1.00  0.00    -0.342 A  
HETATM    7  C   UNL     1     -12.430  11.597  70.958  1.00  0.00    -0.436 A  
HETATM    8  C   UNL     1     -13.273  10.914  71.815  1.00  0.00    -0.513 A  
HETATM    9  C   UNL     1     -13.084   9.551  71.990  1.00  0.00    -0.528 A  
HETATM   10  C   UNL     1     -12.038   8.867  71.337  1.00  0.00    -0.322 A  
HETATM   11  S   UNL     1     -11.959   7.139  71.707  1.00  0.00    -0.329 SA 
HETATM   12  C   UNL     1     -10.516   6.622  70.820  1.00  0.00    -0.216 A  
HETATM   13  C   UNL     1      -9.738   7.467  69.996  1.00  0.00    -0.172 A  
HETATM   14  C   UNL     1      -8.636   6.845  69.359  1.00  0.00    -0.133 A  
HETATM   15  C   UNL     1      -8.338   5.481  69.531  1.00  0.00    -0.102 A  
HETATM   16  C   UNL     1      -9.117   4.681  70.350  1.00  0.00    -0.167 A  
HETATM   17  C   UNL     1     -10.197   5.257  70.999  1.00  0.00    -0.299 A  
BRANCH  15  18
HETATM   18  S   UNL     1      -7.007   4.738  68.604  1.00  0.00    -0.053 S  
HETATM   19  O   UNL     1      -6.262   3.889  69.509  1.00  0.00    -0.026 OA 
HETATM   20  O   UNL     1      -6.350   5.805  67.872  1.00  0.00    -0.038 OA 
BRANCH  18  21
HETATM   21  N   UNL     1      -7.817   3.756  67.477  1.00  0.00    -0.082 N  
HETATM   22  C   UNL     1      -8.951   4.363  66.760  1.00  0.00    -0.118 C  
HETATM   23  C   UNL     1      -8.052   2.354  67.865  1.00  0.00    -0.063 C  
ENDBRANCH  18  21
ENDBRANCH  15  18
ENDBRANCH   3   4
ENDBRANCH   2   3
BRANCH   2  24
HETATM   24  N   UNL     1     -10.297  10.484  66.630  1.00  0.00    -0.236 NA 
HETATM   25  C   UNL     1     -10.013  11.882  67.017  1.00  0.00    -0.202 C  
HETATM   26  C   UNL     1     -10.106  10.408  65.176  1.00  0.00    -0.308 C  
ENDBRANCH   2  24
TORSDOF 5
ENDMDL
MODEL       94
REMARK 921   NORMALIZED FREE ENERGY PREDICTED BY IDOCK:   -4.08 KCAL/MOL
REMARK 922        TOTAL FREE ENERGY PREDICTED BY IDOCK:   -6.14 KCAL/MOL
REMARK 923 INTER-LIGAND FREE ENERGY PREDICTED BY IDOCK:   -5.82 KCAL/MOL
REMARK 924 INTRA-LIGAND FREE ENERGY PREDICTED BY IDOCK:   -0.31 KCAL/MOL
REMARK 927      BINDING AFFINITY PREDICTED BY RF-SCORE:    0.00 PKD
ROOT
HETATM    1  C   UNL     1     -10.419  15.334  69.675  1.00  0.00    -0.279 C  
HETATM    2  C   UNL     1     -11.174  15.504  68.331  1.00  0.00    -0.341 C  
ENDROOT
BRANCH   2   3
HETATM    3  C   UNL     1     -10.052  15.844  67.267  1.00  0.00    -0.260 C  
BRANCH   3   4
HETATM    4  N   UNL     1      -8.649  15.997  67.742  1.00  0.00    -0.162 NA 
HETATM    5  C   UNL     1      -8.260  17.293  68.214  1.00  0.00    -0.237 A  
HETATM    6  C   UNL     1      -9.130  18.408  68.202  1.00  0.00    -0.325 A  
HETATM    7  C   UNL     1      -8.730  19.697  68.581  1.00  0.00    -0.317 A  
HETATM    8  C   UNL     1      -7.443  19.917  69.035  1.00  0.00    -0.205 A  
HETATM    9  C   UNL     1      -6.569  18.843  69.109  1.00  0.00    -0.318 A  
HETATM   10  C   UNL     1      -6.961  17.551  68.701  1.00  0.00    -0.232 A  
HETATM   11  S   UNL     1      -5.694  16.325  68.857  1.00  0.00    -0.121 SA 
HETATM   12  C   UNL     1      -6.473  14.881  68.189  1.00  0.00    -0.133 A  
HETATM   13  C   UNL     1      -7.811  14.832  67.735  1.00  0.00    -0.151 A  
HETATM   14  C   UNL     1      -8.242  13.569  67.258  1.00  0.00    -0.164 A  
HETATM   15  C   UNL     1      -7.400  12.443  67.241  1.00  0.00    -0.127 A  
HETATM   16  C   UNL     1      -6.092  12.526  67.688  1.00  0.00    -0.140 A  
HETATM   17  C   UNL     1      -5.631  13.748  68.151  1.00  0.00    -0.117 A  
BRANCH  15  18
HETATM   18  S   UNL     1      -8.047  10.857  66.741  1.00  0.00    -0.148 S  
HETATM   19  O   UNL     1      -8.086  10.009  67.913  1.00  0.00    -0.108 OA 
HETATM   20  O   UNL     1      -7.314  10.454  65.555  1.00  0.00    -0.145 OA 
BRANCH  18  21
HETATM   21  N   UNL     1      -9.641  11.215  66.272  1.00  0.00    -0.200 N  
HETATM   22  C   UNL     1     -10.719  10.629  67.086  1.00  0.00    -0.272 C  
HETATM   23  C   UNL     1      -9.927  11.206  64.827  1.00  0.00    -0.287 C  
ENDBRANCH  18  21
ENDBRANCH  15  18
ENDBRANCH   3   4
ENDBRANCH   2   3
BRANCH   2  24
HETATM   24  N   UNL     1     -12.109  14.347  68.146  1.00  0.00    -0.277 NA 
HETATM   25  C   UNL     1     -12.055  13.853  66.754  1.00  0.00    -0.439 C  
HETATM   26  C   UNL     1     -11.772  13.205  69.006  1.00  0.00    -0.321 C  
ENDBRANCH   2  24
TORSDOF 5
ENDMDL
MODEL       95
REMARK 921   NORMALIZED FREE ENERGY PREDICTED BY IDOCK:   -4.06 KCAL/MOL
REMARK 922        TOTAL FREE ENERGY PREDICTED BY IDOCK:   -6.10 KCAL/MOL
REMARK 923 INTER-LIGAND FREE ENERGY PREDICTED BY IDOCK:   -5.30 KCAL/MOL
REMARK 924 INTRA-LIGAND FREE ENERGY PREDICTED BY IDOCK:   -0.80 KCAL/MOL
REMARK 927      BINDING AFFINITY PREDICTED BY RF-SCORE:    0.00 PKD
ROOT
HETATM    1  C   UNL     1      -8.189   9.949  67.342  1.00  0.00    -0.118 C  
HETATM    2  C   UNL     1      -8.378   8.638  68.151  1.00  0.00    -0.127 C  
ENDROOT
BRANCH   2   3
HETATM    3  C   UNL     1      -9.940   8.382  68.161  1.00  0.00    -0.191 C  
BRANCH   3   4
HETATM    4  N   UNL     1     -10.656   8.423  69.465  1.00  0.00    -0.227 NA 
HETATM    5  C   UNL     1     -11.307   9.653  69.812  1.00  0.00    -0.120 A  
HETATM    6  C   UNL     1     -11.253  10.806  68.995  1.00  0.00    -0.322 A  
HETATM    7  C   UNL     1     -11.814  12.036  69.368  1.00  0.00    -0.384 A  
HETATM    8  C   UNL     1     -12.497  12.152  70.563  1.00  0.00    -0.282 A  
HETATM    9  C   UNL     1     -12.616  11.033  71.374  1.00  0.00    -0.498 A  
HETATM   10  C   UNL     1     -12.029   9.802  71.015  1.00  0.00    -0.352 A  
HETATM   11  S   UNL     1     -12.280   8.506  72.193  1.00  0.00    -0.393 SA 
HETATM   12  C   UNL     1     -11.358   7.166  71.492  1.00  0.00    -0.255 A  
HETATM   13  C   UNL     1     -10.682   7.223  70.252  1.00  0.00    -0.236 A  
HETATM   14  C   UNL     1     -10.023   6.029  69.866  1.00  0.00    -0.225 A  
HETATM   15  C   UNL     1     -10.042   4.868  70.660  1.00  0.00    -0.236 A  
HETATM   16  C   UNL     1     -10.710   4.846  71.874  1.00  0.00    -0.128 A  
HETATM   17  C   UNL     1     -11.357   5.999  72.289  1.00  0.00    -0.353 A  
BRANCH  15  18
HETATM   18  S   UNL     1      -9.293   3.365  70.056  1.00  0.00    -0.166 S  
HETATM   19  O   UNL     1      -9.509   3.312  68.626  1.00  0.00    -0.173 OA 
HETATM   20  O   UNL     1      -9.744   2.288  70.917  1.00  0.00    -0.136 OA 
BRANCH  18  21
HETATM   21  N   UNL     1      -7.637   3.609  70.349  1.00  0.00    -0.041 N  
HETATM   22  C   UNL     1      -6.698   3.041  69.368  1.00  0.00    -0.034 C  
HETATM   23  C   UNL     1      -7.181   3.470  71.743  1.00  0.00    -0.046 C  
ENDBRANCH  18  21
ENDBRANCH  15  18
ENDBRANCH   3   4
ENDBRANCH   2   3
BRANCH   2  24
HETATM   24  N   UNL     1      -7.414   7.608  67.644  1.00  0.00    -0.102 NA 
HETATM   25  C   UNL     1      -6.615   7.053  68.757  1.00  0.00    -0.044 C  
HETATM   26  C   UNL     1      -8.087   6.469  67.007  1.00  0.00    -0.113 C  
ENDBRANCH   2  24
TORSDOF 5
ENDMDL
MODEL       96
REMARK 921   NORMALIZED FREE ENERGY PREDICTED BY IDOCK:   -4.03 KCAL/MOL
REMARK 922        TOTAL FREE ENERGY PREDICTED BY IDOCK:   -6.07 KCAL/MOL
REMARK 923 INTER-LIGAND FREE ENERGY PREDICTED BY IDOCK:   -5.49 KCAL/MOL
REMARK 924 INTRA-LIGAND FREE ENERGY PREDICTED BY IDOCK:   -0.58 KCAL/MOL
REMARK 927      BINDING AFFINITY PREDICTED BY RF-SCORE:    0.00 PKD
ROOT
HETATM    1  C   UNL     1     -11.468  12.944  67.654  1.00  0.00    -0.383 C  
HETATM    2  C   UNL     1     -10.653  11.676  68.022  1.00  0.00    -0.202 C  
ENDROOT
BRANCH   2   3
HETATM    3  C   UNL     1     -11.267  10.519  67.133  1.00  0.00    -0.056 C  
BRANCH   3   4
HETATM    4  N   UNL     1     -10.336   9.637  66.376  1.00  0.00    -0.214 NA 
HETATM    5  C   UNL     1      -9.879  10.111  65.103  1.00  0.00    -0.325 A  
HETATM    6  C   UNL     1     -10.308  11.337  64.543  1.00  0.00    -0.381 A  
HETATM    7  C   UNL     1      -9.933  11.766  63.262  1.00  0.00    -0.435 A  
HETATM    8  C   UNL     1      -9.068  11.002  62.500  1.00  0.00    -0.362 A  
HETATM    9  C   UNL     1      -8.585   9.815  63.030  1.00  0.00    -0.196 A  
HETATM   10  C   UNL     1      -8.983   9.367  64.307  1.00  0.00    -0.160 A  
HETATM   11  S   UNL     1      -8.268   7.823  64.790  1.00  0.00    -0.046 SA 
HETATM   12  C   UNL     1      -9.033   7.519  66.358  1.00  0.00    -0.167 A  
HETATM   13  C   UNL     1      -9.931   8.406  66.995  1.00  0.00    -0.253 A  
HETATM   14  C   UNL     1     -10.411   7.979  68.258  1.00  0.00    -0.240 A  
HETATM   15  C   UNL     1     -10.018   6.760  68.840  1.00  0.00    -0.155 A  
HETATM   16  C   UNL     1      -9.140   5.910  68.187  1.00  0.00    -0.117 A  
HETATM   17  C   UNL     1      -8.659   6.289  66.944  1.00  0.00    -0.113 A  
BRANCH  15  18
HETATM   18  S   UNL     1     -10.567   6.342  70.485  1.00  0.00    -0.256 S  
HETATM   19  O   UNL     1     -10.291   4.938  70.697  1.00  0.00    -0.228 OA 
HETATM   20  O   UNL     1     -11.912   6.867  70.632  1.00  0.00    -0.369 OA 
BRANCH  18  21
HETATM   21  N   UNL     1      -9.540   7.257  71.484  1.00  0.00    -0.157 N  
HETATM   22  C   UNL     1      -8.205   7.576  70.949  1.00  0.00    -0.112 C  
HETATM   23  C   UNL     1      -9.530   6.917  72.917  1.00  0.00    -0.140 C  
ENDBRANCH  18  21
ENDBRANCH  15  18
ENDBRANCH   3   4
ENDBRANCH   2   3
BRANCH   2  24
HETATM   24  N   UNL     1      -9.192  12.006  67.985  1.00  0.00    -0.186 NA 
HETATM   25  C   UNL     1      -8.962  13.395  68.436  1.00  0.00    -0.136 C  
HETATM   26  C   UNL     1      -8.395  11.145  68.867  1.00  0.00    -0.099 C  
ENDBRANCH   2  24
TORSDOF 5
ENDMDL
MODEL       97
REMARK 921   NORMALIZED FREE ENERGY PREDICTED BY IDOCK:   -4.01 KCAL/MOL
REMARK 922        TOTAL FREE ENERGY PREDICTED BY IDOCK:   -6.04 KCAL/MOL
REMARK 923 INTER-LIGAND FREE ENERGY PREDICTED BY IDOCK:   -5.51 KCAL/MOL
REMARK 924 INTRA-LIGAND FREE ENERGY PREDICTED BY IDOCK:   -0.53 KCAL/MOL
REMARK 927      BINDING AFFINITY PREDICTED BY RF-SCORE:    0.00 PKD
ROOT
HETATM    1  C   UNL     1     -11.167  13.400  68.368  1.00  0.00    -0.311 C  
HETATM    2  C   UNL     1     -10.817  12.513  67.144  1.00  0.00    -0.250 C  
ENDROOT
BRANCH   2   3
HETATM    3  C   UNL     1     -11.525  11.125  67.424  1.00  0.00    -0.180 C  
BRANCH   3   4
HETATM    4  N   UNL     1     -10.777  10.090  68.188  1.00  0.00    -0.225 NA 
HETATM    5  C   UNL     1     -11.261   9.770  69.499  1.00  0.00    -0.142 A  
HETATM    6  C   UNL     1     -12.369  10.423  70.087  1.00  0.00    -0.281 A  
HETATM    7  C   UNL     1     -12.795  10.178  71.400  1.00  0.00    -0.530 A  
HETATM    8  C   UNL     1     -12.151   9.227  72.171  1.00  0.00    -0.353 A  
HETATM    9  C   UNL     1     -11.088   8.529  71.617  1.00  0.00    -0.360 A  
HETATM   10  C   UNL     1     -10.641   8.794  70.306  1.00  0.00    -0.216 A  
HETATM   11  S   UNL     1      -9.263   7.808  69.797  1.00  0.00    -0.149 SA 
HETATM   12  C   UNL     1      -8.909   8.447  68.183  1.00  0.00    -0.142 A  
HETATM   13  C   UNL     1      -9.662   9.457  67.541  1.00  0.00    -0.157 A  
HETATM   14  C   UNL     1      -9.220   9.807  66.240  1.00  0.00    -0.207 A  
HETATM   15  C   UNL     1      -8.114   9.190  65.630  1.00  0.00    -0.113 A  
HETATM   16  C   UNL     1      -7.393   8.207  66.288  1.00  0.00    -0.078 A  
HETATM   17  C   UNL     1      -7.789   7.847  67.567  1.00  0.00    -0.122 A  
BRANCH  15  18
HETATM   18  S   UNL     1      -7.688   9.594  63.945  1.00  0.00    -0.139 S  
HETATM   19  O   UNL     1      -6.530  10.460  63.980  1.00  0.00    -0.111 OA 
HETATM   20  O   UNL     1      -8.911  10.013  63.285  1.00  0.00    -0.216 OA 
BRANCH  18  21
HETATM   21  N   UNL     1      -7.229   8.095  63.287  1.00  0.00    -0.087 N  
HETATM   22  C   UNL     1      -5.825   7.958  62.865  1.00  0.00    -0.064 C  
HETATM   23  C   UNL     1      -8.183   7.453  62.366  1.00  0.00    -0.084 C  
ENDBRANCH  18  21
ENDBRANCH  15  18
ENDBRANCH   3   4
ENDBRANCH   2   3
BRANCH   2  24
HETATM   24  N   UNL     1     -11.074  13.289  65.888  1.00  0.00    -0.284 NA 
HETATM   25  C   UNL     1     -12.199  14.230  66.081  1.00  0.00    -0.410 C  
HETATM   26  C   UNL     1      -9.920  14.098  65.477  1.00  0.00    -0.295 C  
ENDBRANCH   2  24
TORSDOF 5
ENDMDL
MODEL       98
REMARK 921   NORMALIZED FREE ENERGY PREDICTED BY IDOCK:   -4.00 KCAL/MOL
REMARK 922        TOTAL FREE ENERGY PREDICTED BY IDOCK:   -6.03 KCAL/MOL
REMARK 923 INTER-LIGAND FREE ENERGY PREDICTED BY IDOCK:   -5.52 KCAL/MOL
REMARK 924 INTRA-LIGAND FREE ENERGY PREDICTED BY IDOCK:   -0.51 KCAL/MOL
REMARK 927      BINDING AFFINITY PREDICTED BY RF-SCORE:    0.00 PKD
ROOT
HETATM    1  C   UNL     1      -9.028  15.946  69.185  1.00  0.00    -0.256 C  
HETATM    2  C   UNL     1      -8.162  14.658  69.166  1.00  0.00    -0.068 C  
ENDROOT
BRANCH   2   3
HETATM    3  C   UNL     1      -8.098  14.227  67.644  1.00  0.00    -0.179 C  
BRANCH   3   4
HETATM    4  N   UNL     1      -9.275  13.533  67.054  1.00  0.00    -0.239 NA 
HETATM    5  C   UNL     1     -10.084  14.285  66.140  1.00  0.00    -0.313 A  
HETATM    6  C   UNL     1      -9.829  15.640  65.826  1.00  0.00    -0.386 A  
HETATM    7  C   UNL     1     -10.665  16.406  65.001  1.00  0.00    -0.279 A  
HETATM    8  C   UNL     1     -11.776  15.830  64.414  1.00  0.00    -0.201 A  
HETATM    9  C   UNL     1     -12.038  14.489  64.657  1.00  0.00    -0.486 A  
HETATM   10  C   UNL     1     -11.214  13.724  65.509  1.00  0.00    -0.299 A  
HETATM   11  S   UNL     1     -11.731  12.043  65.700  1.00  0.00    -0.140 SA 
HETATM   12  C   UNL     1     -10.563  11.414  66.874  1.00  0.00    -0.252 A  
HETATM   13  C   UNL     1      -9.484  12.157  67.404  1.00  0.00    -0.179 A  
HETATM   14  C   UNL     1      -8.655  11.454  68.314  1.00  0.00    -0.156 A  
HETATM   15  C   UNL     1      -8.887  10.111  68.661  1.00  0.00    -0.136 A  
HETATM   16  C   UNL     1      -9.957   9.412  68.127  1.00  0.00    -0.202 A  
HETATM   17  C   UNL     1     -10.797  10.070  67.243  1.00  0.00    -0.284 A  
BRANCH  15  18
HETATM   18  S   UNL     1      -7.733   9.254  69.719  1.00  0.00    -0.110 S  
HETATM   19  O   UNL     1      -7.126  10.236  70.592  1.00  0.00    -0.322 OA 
HETATM   20  O   UNL     1      -6.916   8.413  68.864  1.00  0.00    -0.060 OA 
BRANCH  18  21
HETATM   21  N   UNL     1      -8.732   8.240  70.647  1.00  0.00    -0.133 N  
HETATM   22  C   UNL     1      -9.561   8.887  71.678  1.00  0.00    -0.293 C  
HETATM   23  C   UNL     1      -8.155   6.956  71.082  1.00  0.00    -0.110 C  
ENDBRANCH  18  21
ENDBRANCH  15  18
ENDBRANCH   3   4
ENDBRANCH   2   3
BRANCH   2  24
HETATM   24  N   UNL     1      -6.920  14.893  69.970  1.00  0.00    -0.159 NA 
HETATM   25  C   UNL     1      -5.847  13.966  69.552  1.00  0.00    -0.099 C  
HETATM   26  C   UNL     1      -6.385  16.251  69.802  1.00  0.00    -0.181 C  
ENDBRANCH   2  24
TORSDOF 5
ENDMDL
MODEL       99
REMARK 921   NORMALIZED FREE ENERGY PREDICTED BY IDOCK:   -3.99 KCAL/MOL
REMARK 922        TOTAL FREE ENERGY PREDICTED BY IDOCK:   -6.02 KCAL/MOL
REMARK 923 INTER-LIGAND FREE ENERGY PREDICTED BY IDOCK:   -5.42 KCAL/MOL
REMARK 924 INTRA-LIGAND FREE ENERGY PREDICTED BY IDOCK:   -0.60 KCAL/MOL
REMARK 927      BINDING AFFINITY PREDICTED BY RF-SCORE:    0.00 PKD
ROOT
HETATM    1  C   UNL     1      -7.983  10.321  66.560  1.00  0.00    -0.118 C  
HETATM    2  C   UNL     1      -8.187   9.539  67.885  1.00  0.00    -0.114 C  
ENDROOT
BRANCH   2   3
HETATM    3  C   UNL     1      -9.646   8.934  67.786  1.00  0.00    -0.147 C  
BRANCH   3   4
HETATM    4  N   UNL     1     -10.376   8.635  69.048  1.00  0.00    -0.212 NA 
HETATM    5  C   UNL     1     -10.321   7.286  69.529  1.00  0.00    -0.225 A  
HETATM    6  C   UNL     1      -9.650   6.252  68.836  1.00  0.00    -0.135 A  
HETATM    7  C   UNL     1      -9.665   4.914  69.254  1.00  0.00    -0.258 A  
HETATM    8  C   UNL     1     -10.320   4.559  70.419  1.00  0.00    -0.009 A  
HETATM    9  C   UNL     1     -10.952   5.550  71.156  1.00  0.00    -0.196 A  
HETATM   10  C   UNL     1     -10.962   6.892  70.722  1.00  0.00    -0.259 A  
HETATM   11  S   UNL     1     -11.836   7.994  71.794  1.00  0.00    -0.315 SA 
HETATM   12  C   UNL     1     -11.734   9.535  70.927  1.00  0.00    -0.317 A  
HETATM   13  C   UNL     1     -11.037   9.724  69.712  1.00  0.00    -0.237 A  
HETATM   14  C   UNL     1     -11.063  11.044  69.197  1.00  0.00    -0.301 A  
HETATM   15  C   UNL     1     -11.733  12.094  69.851  1.00  0.00    -0.287 A  
HETATM   16  C   UNL     1     -12.412  11.875  71.038  1.00  0.00    -0.390 A  
HETATM   17  C   UNL     1     -12.418  10.593  71.566  1.00  0.00    -0.471 A  
BRANCH  15  18
HETATM   18  S   UNL     1     -11.622  13.755  69.209  1.00  0.00    -0.331 S  
HETATM   19  O   UNL     1     -12.653  13.907  68.205  1.00  0.00     0.084 OA 
HETATM   20  O   UNL     1     -10.228  13.995  68.887  1.00  0.00    -0.223 OA 
BRANCH  18  21
HETATM   21  N   UNL     1     -12.021  14.720  70.550  1.00  0.00    -0.291 N  
HETATM   22  C   UNL     1     -13.406  15.214  70.624  1.00  0.00    -0.261 C  
HETATM   23  C   UNL     1     -11.021  15.715  70.974  1.00  0.00    -0.237 C  
ENDBRANCH  18  21
ENDBRANCH  15  18
ENDBRANCH   3   4
ENDBRANCH   2   3
BRANCH   2  24
HETATM   24  N   UNL     1      -6.989   8.672  68.129  1.00  0.00    -0.073 NA 
HETATM   25  C   UNL     1      -6.571   8.001  66.880  1.00  0.00    -0.057 C  
HETATM   26  C   UNL     1      -5.826   9.433  68.602  1.00  0.00    -0.040 C  
ENDBRANCH   2  24
TORSDOF 5
ENDMDL
MODEL      100
REMARK 921   NORMALIZED FREE ENERGY PREDICTED BY IDOCK:   -3.96 KCAL/MOL
REMARK 922        TOTAL FREE ENERGY PREDICTED BY IDOCK:   -5.98 KCAL/MOL
REMARK 923 INTER-LIGAND FREE ENERGY PREDICTED BY IDOCK:   -5.15 KCAL/MOL
REMARK 924 INTRA-LIGAND FREE ENERGY PREDICTED BY IDOCK:   -0.83 KCAL/MOL
REMARK 927      BINDING AFFINITY PREDICTED BY RF-SCORE:    0.00 PKD
ROOT
HETATM    1  C   UNL     1     -12.403  14.167  66.949  1.00  0.00    -0.293 C  
HETATM    2  C   UNL     1     -11.622  12.922  67.446  1.00  0.00    -0.360 C  
ENDROOT
BRANCH   2   3
HETATM    3  C   UNL     1     -10.406  12.770  66.443  1.00  0.00    -0.258 C  
BRANCH   3   4
HETATM    4  N   UNL     1      -9.024  12.836  66.990  1.00  0.00    -0.216 NA 
HETATM    5  C   UNL     1      -8.374  14.113  66.967  1.00  0.00    -0.118 A  
HETATM    6  C   UNL     1      -8.975  15.269  66.417  1.00  0.00    -0.339 A  
HETATM    7  C   UNL     1      -8.313  16.501  66.312  1.00  0.00    -0.364 A  
HETATM    8  C   UNL     1      -7.028  16.640  66.801  1.00  0.00    -0.264 A  
HETATM    9  C   UNL     1      -6.417  15.544  67.393  1.00  0.00    -0.143 A  
HETATM   10  C   UNL     1      -7.070  14.297  67.474  1.00  0.00    -0.167 A  
HETATM   11  S   UNL     1      -6.114  13.026  68.248  1.00  0.00    -0.098 SA 
HETATM   12  C   UNL     1      -7.168  11.609  68.101  1.00  0.00    -0.085 A  
HETATM   13  C   UNL     1      -8.465  11.633  67.540  1.00  0.00    -0.150 A  
HETATM   14  C   UNL     1      -9.147  10.391  67.541  1.00  0.00    -0.142 A  
HETATM   15  C   UNL     1      -8.576   9.218  68.066  1.00  0.00    -0.121 A  
HETATM   16  C   UNL     1      -7.300   9.227  68.604  1.00  0.00    -0.076 A  
HETATM   17  C   UNL     1      -6.597  10.422  68.610  1.00  0.00    -0.052 A  
BRANCH  15  18
HETATM   18  S   UNL     1      -9.539   7.718  68.144  1.00  0.00    -0.154 S  
HETATM   19  O   UNL     1     -10.752   7.935  67.385  1.00  0.00    -0.272 OA 
HETATM   20  O   UNL     1      -9.594   7.319  69.538  1.00  0.00    -0.155 OA 
BRANCH  18  21
HETATM   21  N   UNL     1      -8.573   6.590  67.316  1.00  0.00    -0.112 N  
HETATM   22  C   UNL     1      -8.538   6.695  65.848  1.00  0.00    -0.148 C  
HETATM   23  C   UNL     1      -8.610   5.200  67.803  1.00  0.00    -0.103 C  
ENDBRANCH  18  21
ENDBRANCH  15  18
ENDBRANCH   3   4
ENDBRANCH   2   3
BRANCH   2  24
HETATM   24  N   UNL     1     -11.412  13.035  68.926  1.00  0.00    -0.279 NA 
HETATM   25  C   UNL     1     -12.146  14.199  69.466  1.00  0.00    -0.340 C  
HETATM   26  C   UNL     1     -11.901  11.859  69.657  1.00  0.00    -0.337 C  
ENDBRANCH   2  24
TORSDOF 5
ENDMDL
MODEL      101
REMARK 921   NORMALIZED FREE ENERGY PREDICTED BY IDOCK:   -3.96 KCAL/MOL
REMARK 922        TOTAL FREE ENERGY PREDICTED BY IDOCK:   -5.97 KCAL/MOL
REMARK 923 INTER-LIGAND FREE ENERGY PREDICTED BY IDOCK:   -5.87 KCAL/MOL
REMARK 924 INTRA-LIGAND FREE ENERGY PREDICTED BY IDOCK:   -0.10 KCAL/MOL
REMARK 927      BINDING AFFINITY PREDICTED BY RF-SCORE:    0.00 PKD
ROOT
HETATM    1  C   UNL     1     -12.492  14.210  66.008  1.00  0.00    -0.454 C  
HETATM    2  C   UNL     1     -11.986  14.423  64.557  1.00  0.00    -0.472 C  
ENDROOT
BRANCH   2   3
HETATM    3  C   UNL     1     -10.464  14.832  64.707  1.00  0.00    -0.286 C  
BRANCH   3   4
HETATM    4  N   UNL     1      -9.910  15.011  66.077  1.00  0.00    -0.299 NA 
HETATM    5  C   UNL     1      -9.961  16.332  66.632  1.00  0.00    -0.264 A  
HETATM    6  C   UNL     1     -10.467  17.444  65.920  1.00  0.00    -0.256 A  
HETATM    7  C   UNL     1     -10.441  18.753  66.424  1.00  0.00    -0.485 A  
HETATM    8  C   UNL     1      -9.944  18.997  67.691  1.00  0.00    -0.420 A  
HETATM    9  C   UNL     1      -9.480  17.928  68.443  1.00  0.00    -0.304 A  
HETATM   10  C   UNL     1      -9.480  16.615  67.928  1.00  0.00    -0.225 A  
HETATM   11  S   UNL     1      -8.832  15.400  69.038  1.00  0.00    -0.246 SA 
HETATM   12  C   UNL     1      -8.890  13.921  68.065  1.00  0.00    -0.184 A  
HETATM   13  C   UNL     1      -9.413  13.847  66.754  1.00  0.00    -0.279 A  
HETATM   14  C   UNL     1      -9.384  12.560  66.162  1.00  0.00    -0.136 A  
HETATM   15  C   UNL     1      -8.874  11.434  66.834  1.00  0.00    -0.173 A  
HETATM   16  C   UNL     1      -8.364  11.541  68.117  1.00  0.00    -0.152 A  
HETATM   17  C   UNL     1      -8.365  12.787  68.723  1.00  0.00     0.139 A  
BRANCH  15  18
HETATM   18  S   UNL     1      -8.981   9.822  66.075  1.00  0.00    -0.164 S  
HETATM   19  O   UNL     1      -9.777   9.955  64.874  1.00  0.00    -0.302 OA 
HETATM   20  O   UNL     1      -9.355   8.884  67.116  1.00  0.00    -0.138 OA 
BRANCH  18  21
HETATM   21  N   UNL     1      -7.373   9.493  65.630  1.00  0.00    -0.092 N  
HETATM   22  C   UNL     1      -6.405   9.314  66.724  1.00  0.00    -0.066 C  
HETATM   23  C   UNL     1      -6.832  10.248  64.486  1.00  0.00    -0.069 C  
ENDBRANCH  18  21
ENDBRANCH  15  18
ENDBRANCH   3   4
ENDBRANCH   2   3
BRANCH   2  24
HETATM   24  N   UNL     1     -12.409  13.257  63.716  1.00  0.00    -0.693 NA 
HETATM   25  C   UNL     1     -11.228  12.570  63.150  1.00  0.00    -0.059 C  
HETATM   26  C   UNL     1     -13.151  12.248  64.481  1.00  0.00     0.205 C  
ENDBRANCH   2  24
TORSDOF 5
ENDMDL
MODEL      102
REMARK 921   NORMALIZED FREE ENERGY PREDICTED BY IDOCK:   -3.93 KCAL/MOL
REMARK 922        TOTAL FREE ENERGY PREDICTED BY IDOCK:   -5.93 KCAL/MOL
REMARK 923 INTER-LIGAND FREE ENERGY PREDICTED BY IDOCK:   -5.76 KCAL/MOL
REMARK 924 INTRA-LIGAND FREE ENERGY PREDICTED BY IDOCK:   -0.17 KCAL/MOL
REMARK 927      BINDING AFFINITY PREDICTED BY RF-SCORE:    0.00 PKD
ROOT
HETATM    1  C   UNL     1      -7.858   8.705  70.844  1.00  0.00    -0.129 C  
HETATM    2  C   UNL     1      -9.215   8.723  71.596  1.00  0.00    -0.263 C  
ENDROOT
BRANCH   2   3
HETATM    3  C   UNL     1     -10.316   8.672  70.459  1.00  0.00    -0.202 C  
BRANCH   3   4
HETATM    4  N   UNL     1      -9.951   8.076  69.145  1.00  0.00    -0.183 NA 
HETATM    5  C   UNL     1      -9.878   6.646  69.076  1.00  0.00    -0.144 A  
HETATM    6  C   UNL     1     -10.092   5.813  70.198  1.00  0.00    -0.274 A  
HETATM    7  C   UNL     1      -9.937   4.419  70.158  1.00  0.00    -0.249 A  
HETATM    8  C   UNL     1      -9.602   3.793  68.972  1.00  0.00    -0.190 A  
HETATM    9  C   UNL     1      -9.429   4.569  67.835  1.00  0.00    -0.200 A  
HETATM   10  C   UNL     1      -9.557   5.973  67.879  1.00  0.00    -0.116 A  
HETATM   11  S   UNL     1      -9.279   6.776  66.327  1.00  0.00    -0.083 SA 
HETATM   12  C   UNL     1      -9.422   8.490  66.751  1.00  0.00    -0.194 A  
HETATM   13  C   UNL     1      -9.749   8.970  68.040  1.00  0.00    -0.155 A  
HETATM   14  C   UNL     1      -9.833  10.380  68.157  1.00  0.00    -0.168 A  
HETATM   15  C   UNL     1      -9.612  11.241  67.067  1.00  0.00    -0.178 A  
HETATM   16  C   UNL     1      -9.288  10.738  65.818  1.00  0.00    -0.235 A  
HETATM   17  C   UNL     1      -9.184   9.364  65.668  1.00  0.00    -0.285 A  
BRANCH  15  18
HETATM   18  S   UNL     1      -9.854  12.998  67.259  1.00  0.00    -0.231 S  
HETATM   19  O   UNL     1      -9.462  13.633  66.019  1.00  0.00    -0.209 OA 
HETATM   20  O   UNL     1      -9.239  13.378  68.517  1.00  0.00    -0.171 OA 
BRANCH  18  21
HETATM   21  N   UNL     1     -11.538  13.143  67.438  1.00  0.00    -0.334 N  
HETATM   22  C   UNL     1     -12.285  13.673  66.285  1.00  0.00    -0.436 C  
HETATM   23  C   UNL     1     -12.029  13.644  68.733  1.00  0.00    -0.359 C  
ENDBRANCH  18  21
ENDBRANCH  15  18
ENDBRANCH   3   4
ENDBRANCH   2   3
BRANCH   2  24
HETATM   24  N   UNL     1      -9.176   7.710  72.700  1.00  0.00    -0.151 NA 
HETATM   25  C   UNL     1      -8.342   8.196  73.820  1.00  0.00    -0.248 C  
HETATM   26  C   UNL     1     -10.505   7.433  73.260  1.00  0.00    -0.374 C  
ENDBRANCH   2  24
TORSDOF 5
ENDMDL
MODEL      103
REMARK 921   NORMALIZED FREE ENERGY PREDICTED BY IDOCK:   -3.91 KCAL/MOL
REMARK 922        TOTAL FREE ENERGY PREDICTED BY IDOCK:   -5.92 KCAL/MOL
REMARK 923 INTER-LIGAND FREE ENERGY PREDICTED BY IDOCK:   -6.18 KCAL/MOL
REMARK 924 INTRA-LIGAND FREE ENERGY PREDICTED BY IDOCK:    0.26 KCAL/MOL
REMARK 927      BINDING AFFINITY PREDICTED BY RF-SCORE:    0.00 PKD
ROOT
HETATM    1  C   UNL     1     -11.140  11.150  66.879  1.00  0.00    -0.313 C  
HETATM    2  C   UNL     1      -9.605  11.281  67.061  1.00  0.00    -0.178 C  
ENDROOT
BRANCH   2   3
HETATM    3  C   UNL     1      -9.378  11.338  68.627  1.00  0.00    -0.164 C  
BRANCH   3   4
HETATM    4  N   UNL     1     -10.541  11.658  69.500  1.00  0.00     0.030 NA 
HETATM    5  C   UNL     1     -11.082  10.586  70.282  1.00  0.00    -0.285 A  
HETATM    6  C   UNL     1     -10.586   9.263  70.218  1.00  0.00    -0.278 A  
HETATM    7  C   UNL     1     -11.166   8.193  70.914  1.00  0.00    -0.286 A  
HETATM    8  C   UNL     1     -12.246   8.412  71.747  1.00  0.00    -0.377 A  
HETATM    9  C   UNL     1     -12.736   9.703  71.877  1.00  0.00    -0.499 A  
HETATM   10  C   UNL     1     -12.173  10.777  71.156  1.00  0.00    -0.352 A  
HETATM   11  S   UNL     1     -12.953  12.337  71.450  1.00  0.00    -0.140 SA 
HETATM   12  C   UNL     1     -12.083  13.415  70.346  1.00  0.00    -0.333 A  
HETATM   13  C   UNL     1     -11.000  13.018  69.529  1.00  0.00     0.097 A  
HETATM   14  C   UNL     1     -10.431  14.045  68.736  1.00  0.00    -0.238 A  
HETATM   15  C   UNL     1     -10.907  15.369  68.763  1.00  0.00    -0.252 A  
HETATM   16  C   UNL     1     -11.975  15.724  69.571  1.00  0.00    -0.326 A  
HETATM   17  C   UNL     1     -12.564  14.743  70.352  1.00  0.00    -0.399 A  
BRANCH  15  18
HETATM   18  S   UNL     1     -10.066  16.635  67.830  1.00  0.00    -0.280 S  
HETATM   19  O   UNL     1      -8.659  16.564  68.163  1.00  0.00    -0.184 OA 
HETATM   20  O   UNL     1     -10.813  17.866  68.013  1.00  0.00    -0.347 OA 
BRANCH  18  21
HETATM   21  N   UNL     1     -10.271  16.136  66.218  1.00  0.00    -0.304 N  
HETATM   22  C   UNL     1     -10.445  17.196  65.211  1.00  0.00     0.015 C  
HETATM   23  C   UNL     1     -11.135  14.964  65.991  1.00  0.00    -0.334 C  
ENDBRANCH  18  21
ENDBRANCH  15  18
ENDBRANCH   3   4
ENDBRANCH   2   3
BRANCH   2  24
HETATM   24  N   UNL     1      -8.923  10.258  66.204  1.00  0.00    -0.151 NA 
HETATM   25  C   UNL     1      -7.455  10.432  66.256  1.00  0.00    -0.127 C  
HETATM   26  C   UNL     1      -9.194   8.882  66.641  1.00  0.00    -0.170 C  
ENDBRANCH   2  24
TORSDOF 5
ENDMDL
MODEL      104
REMARK 921   NORMALIZED FREE ENERGY PREDICTED BY IDOCK:   -3.89 KCAL/MOL
REMARK 922        TOTAL FREE ENERGY PREDICTED BY IDOCK:   -5.89 KCAL/MOL
REMARK 923 INTER-LIGAND FREE ENERGY PREDICTED BY IDOCK:   -5.48 KCAL/MOL
REMARK 924 INTRA-LIGAND FREE ENERGY PREDICTED BY IDOCK:   -0.42 KCAL/MOL
REMARK 927      BINDING AFFINITY PREDICTED BY RF-SCORE:    0.00 PKD
ROOT
HETATM    1  C   UNL     1      -7.852  15.312  69.808  1.00  0.00    -0.057 C  
HETATM    2  C   UNL     1      -6.949  14.316  69.034  1.00  0.00    -0.112 C  
ENDROOT
BRANCH   2   3
HETATM    3  C   UNL     1      -7.062  14.750  67.516  1.00  0.00    -0.184 C  
BRANCH   3   4
HETATM    4  N   UNL     1      -8.416  14.843  66.905  1.00  0.00    -0.235 NA 
HETATM    5  C   UNL     1      -8.903  16.156  66.597  1.00  0.00    -0.264 A  
HETATM    6  C   UNL     1      -8.174  17.332  66.889  1.00  0.00    -0.256 A  
HETATM    7  C   UNL     1      -8.680  18.622  66.671  1.00  0.00    -0.307 A  
HETATM    8  C   UNL     1      -9.929  18.788  66.103  1.00  0.00    -0.378 A  
HETATM    9  C   UNL     1     -10.660  17.661  65.757  1.00  0.00    -0.177 A  
HETATM   10  C   UNL     1     -10.165  16.363  66.001  1.00  0.00    -0.356 A  
HETATM   11  S   UNL     1     -11.257  15.064  65.503  1.00  0.00    -0.322 SA 
HETATM   12  C   UNL     1     -10.389  13.611  66.026  1.00  0.00    -0.304 A  
HETATM   13  C   UNL     1      -9.109  13.617  66.626  1.00  0.00    -0.174 A  
HETATM   14  C   UNL     1      -8.586  12.340  66.949  1.00  0.00    -0.182 A  
HETATM   15  C   UNL     1      -9.288  11.150  66.687  1.00  0.00    -0.177 A  
HETATM   16  C   UNL     1     -10.543  11.179  66.102  1.00  0.00    -0.305 A  
HETATM   17  C   UNL     1     -11.093  12.411  65.784  1.00  0.00    -0.351 A  
BRANCH  15  18
HETATM   18  S   UNL     1      -8.517   9.574  67.008  1.00  0.00    -0.128 S  
HETATM   19  O   UNL     1      -7.130   9.823  67.337  1.00  0.00    -0.084 OA 
HETATM   20  O   UNL     1      -8.875   8.693  65.912  1.00  0.00    -0.163 OA 
BRANCH  18  21
HETATM   21  N   UNL     1      -9.318   9.023  68.403  1.00  0.00    -0.139 N  
HETATM   22  C   UNL     1     -10.340   7.981  68.214  1.00  0.00    -0.197 C  
HETATM   23  C   UNL     1      -9.698  10.042  69.397  1.00  0.00    -0.225 C  
ENDBRANCH  18  21
ENDBRANCH  15  18
ENDBRANCH   3   4
ENDBRANCH   2   3
BRANCH   2  24
HETATM   24  N   UNL     1      -5.624  14.217  69.728  1.00  0.00    -0.096 NA 
HETATM   25  C   UNL     1      -5.405  15.392  70.598  1.00  0.00    -0.138 C  
HETATM   26  C   UNL     1      -5.526  13.034  70.593  1.00  0.00    -0.169 C  
ENDBRANCH   2  24
TORSDOF 5
ENDMDL
MODEL      105
REMARK 921   NORMALIZED FREE ENERGY PREDICTED BY IDOCK:   -3.88 KCAL/MOL
REMARK 922        TOTAL FREE ENERGY PREDICTED BY IDOCK:   -5.87 KCAL/MOL
REMARK 923 INTER-LIGAND FREE ENERGY PREDICTED BY IDOCK:   -5.52 KCAL/MOL
REMARK 924 INTRA-LIGAND FREE ENERGY PREDICTED BY IDOCK:   -0.35 KCAL/MOL
REMARK 927      BINDING AFFINITY PREDICTED BY RF-SCORE:    0.00 PKD
ROOT
HETATM    1  C   UNL     1     -11.280   6.248  69.137  1.00  0.00    -0.439 C  
HETATM    2  C   UNL     1      -9.775   6.099  69.486  1.00  0.00    -0.146 C  
ENDROOT
BRANCH   2   3
HETATM    3  C   UNL     1      -9.308   7.547  69.924  1.00  0.00    -0.150 C  
BRANCH   3   4
HETATM    4  N   UNL     1     -10.117   8.716  69.483  1.00  0.00    -0.197 NA 
HETATM    5  C   UNL     1     -11.092   9.219  70.406  1.00  0.00    -0.255 A  
HETATM    6  C   UNL     1     -11.331   8.627  71.667  1.00  0.00    -0.377 A  
HETATM    7  C   UNL     1     -12.342   9.060  72.538  1.00  0.00    -0.276 A  
HETATM    8  C   UNL     1     -13.132  10.142  72.198  1.00  0.00    -0.463 A  
HETATM    9  C   UNL     1     -12.901  10.783  70.990  1.00  0.00    -0.480 A  
HETATM   10  C   UNL     1     -11.903  10.332  70.101  1.00  0.00    -0.263 A  
HETATM   11  S   UNL     1     -11.782  11.275  68.609  1.00  0.00    -0.310 SA 
HETATM   12  C   UNL     1     -10.532  10.404  67.705  1.00  0.00    -0.226 A  
HETATM   13  C   UNL     1      -9.829   9.280  68.195  1.00  0.00    -0.162 A  
HETATM   14  C   UNL     1      -8.853   8.747  67.316  1.00  0.00    -0.141 A  
HETATM   15  C   UNL     1      -8.598   9.300  66.048  1.00  0.00    -0.144 A  
HETATM   16  C   UNL     1      -9.309  10.399  65.596  1.00  0.00    -0.244 A  
HETATM   17  C   UNL     1     -10.280  10.941  66.423  1.00  0.00    -0.289 A  
BRANCH  15  18
HETATM   18  S   UNL     1      -7.271   8.652  65.046  1.00  0.00    -0.086 S  
HETATM   19  O   UNL     1      -6.346   7.974  65.928  1.00  0.00    -0.044 OA 
HETATM   20  O   UNL     1      -6.824   9.730  64.184  1.00  0.00    -0.109 OA 
BRANCH  18  21
HETATM   21  N   UNL     1      -8.046   7.494  64.073  1.00  0.00    -0.090 N  
HETATM   22  C   UNL     1      -7.713   6.082  64.328  1.00  0.00    -0.105 C  
HETATM   23  C   UNL     1      -8.184   7.813  62.642  1.00  0.00    -0.084 C  
ENDBRANCH  18  21
ENDBRANCH  15  18
ENDBRANCH   3   4
ENDBRANCH   2   3
BRANCH   2  24
HETATM   24  N   UNL     1      -9.597   4.910  70.380  1.00  0.00    -0.173 NA 
HETATM   25  C   UNL     1      -8.168   4.541  70.474  1.00  0.00    -0.071 C  
HETATM   26  C   UNL     1     -10.052   5.161  71.754  1.00  0.00    -0.200 C  
ENDBRANCH   2  24
TORSDOF 5
ENDMDL
MODEL      106
REMARK 921   NORMALIZED FREE ENERGY PREDICTED BY IDOCK:   -3.86 KCAL/MOL
REMARK 922        TOTAL FREE ENERGY PREDICTED BY IDOCK:   -5.85 KCAL/MOL
REMARK 923 INTER-LIGAND FREE ENERGY PREDICTED BY IDOCK:   -5.09 KCAL/MOL
REMARK 924 INTRA-LIGAND FREE ENERGY PREDICTED BY IDOCK:   -0.76 KCAL/MOL
REMARK 927      BINDING AFFINITY PREDICTED BY RF-SCORE:    0.00 PKD
ROOT
HETATM    1  C   UNL     1      -9.635  11.830  66.916  1.00  0.00    -0.204 C  
HETATM    2  C   UNL     1      -9.189  10.541  67.654  1.00  0.00    -0.145 C  
ENDROOT
BRANCH   2   3
HETATM    3  C   UNL     1     -10.463   9.601  67.651  1.00  0.00    -0.261 C  
BRANCH   3   4
HETATM    4  N   UNL     1     -10.737   8.774  68.858  1.00  0.00    -0.145 NA 
HETATM    5  C   UNL     1     -11.445   9.406  69.933  1.00  0.00    -0.022 A  
HETATM    6  C   UNL     1     -11.839  10.763  69.898  1.00  0.00    -0.413 A  
HETATM    7  C   UNL     1     -12.454  11.410  70.980  1.00  0.00    -0.486 A  
HETATM    8  C   UNL     1     -12.744  10.707  72.134  1.00  0.00    -0.117 A  
HETATM    9  C   UNL     1     -12.417   9.360  72.193  1.00  0.00    -0.396 A  
HETATM   10  C   UNL     1     -11.773   8.714  71.118  1.00  0.00    -0.288 A  
HETATM   11  S   UNL     1     -11.428   7.002  71.401  1.00  0.00    -0.293 SA 
HETATM   12  C   UNL     1     -10.557   6.538  69.930  1.00  0.00    -0.233 A  
HETATM   13  C   UNL     1     -10.317   7.402  68.836  1.00  0.00    -0.206 A  
HETATM   14  C   UNL     1      -9.620   6.821  67.748  1.00  0.00    -0.133 A  
HETATM   15  C   UNL     1      -9.199   5.479  67.753  1.00  0.00    -0.107 A  
HETATM   16  C   UNL     1      -9.444   4.660  68.843  1.00  0.00    -0.218 A  
HETATM   17  C   UNL     1     -10.114   5.197  69.931  1.00  0.00    -0.342 A  
BRANCH  15  18
HETATM   18  S   UNL     1      -8.433   4.782  66.300  1.00  0.00    -0.111 S  
HETATM   19  O   UNL     1      -7.215   4.122  66.719  1.00  0.00    -0.069 OA 
HETATM   20  O   UNL     1      -8.405   5.825  65.291  1.00  0.00    -0.137 OA 
BRANCH  18  21
HETATM   21  N   UNL     1      -9.548   3.601  65.799  1.00  0.00    -0.166 N  
HETATM   22  C   UNL     1      -9.028   2.239  65.598  1.00  0.00    -0.118 C  
HETATM   23  C   UNL     1     -10.534   4.007  64.782  1.00  0.00    -0.177 C  
ENDBRANCH  18  21
ENDBRANCH  15  18
ENDBRANCH   3   4
ENDBRANCH   2   3
BRANCH   2  24
HETATM   24  N   UNL     1      -7.875  10.087  67.094  1.00  0.00    -0.099 NA 
HETATM   25  C   UNL     1      -7.093  11.243  66.605  1.00  0.00    -0.127 C  
HETATM   26  C   UNL     1      -7.037   9.411  68.093  1.00  0.00    -0.076 C  
ENDBRANCH   2  24
TORSDOF 5
ENDMDL
MODEL      107
REMARK 921   NORMALIZED FREE ENERGY PREDICTED BY IDOCK:   -3.84 KCAL/MOL
REMARK 922        TOTAL FREE ENERGY PREDICTED BY IDOCK:   -5.83 KCAL/MOL
REMARK 923 INTER-LIGAND FREE ENERGY PREDICTED BY IDOCK:   -5.61 KCAL/MOL
REMARK 924 INTRA-LIGAND FREE ENERGY PREDICTED BY IDOCK:   -0.22 KCAL/MOL
REMARK 927      BINDING AFFINITY PREDICTED BY RF-SCORE:    0.00 PKD
ROOT
HETATM    1  C   UNL     1      -8.006  11.716  68.746  1.00  0.00    -0.086 C  
HETATM    2  C   UNL     1      -8.637  10.805  67.661  1.00  0.00    -0.123 C  
ENDROOT
BRANCH   2   3
HETATM    3  C   UNL     1     -10.129  11.313  67.512  1.00  0.00    -0.183 C  
BRANCH   3   4
HETATM    4  N   UNL     1     -10.923  11.548  68.749  1.00  0.00    -0.208 NA 
HETATM    5  C   UNL     1     -11.442  12.869  68.948  1.00  0.00    -0.304 A  
HETATM    6  C   UNL     1     -11.191  13.935  68.053  1.00  0.00    -0.295 A  
HETATM    7  C   UNL     1     -11.622  15.249  68.286  1.00  0.00    -0.357 A  
HETATM    8  C   UNL     1     -12.368  15.544  69.411  1.00  0.00    -0.143 A  
HETATM    9  C   UNL     1     -12.679  14.519  70.293  1.00  0.00    -0.325 A  
HETATM   10  C   UNL     1     -12.222  13.202  70.076  1.00  0.00    -0.253 A  
HETATM   11  S   UNL     1     -12.711  12.049  71.325  1.00  0.00    -0.182 SA 
HETATM   12  C   UNL     1     -11.912  10.556  70.803  1.00  0.00    -0.370 A  
HETATM   13  C   UNL     1     -11.150  10.429  69.620  1.00  0.00    -0.276 A  
HETATM   14  C   UNL     1     -10.616   9.139  69.380  1.00  0.00    -0.232 A  
HETATM   15  C   UNL     1     -10.832   8.059  70.255  1.00  0.00    -0.241 A  
HETATM   16  C   UNL     1     -11.579   8.219  71.410  1.00  0.00    -0.322 A  
HETATM   17  C   UNL     1     -12.108   9.470  71.684  1.00  0.00    -0.474 A  
BRANCH  15  18
HETATM   18  S   UNL     1     -10.231   6.435  69.828  1.00  0.00    -0.197 S  
HETATM   19  O   UNL     1      -9.089   6.604  68.956  1.00  0.00    -0.134 OA 
HETATM   20  O   UNL     1     -11.379   5.653  69.407  1.00  0.00    -0.099 OA 
BRANCH  18  21
HETATM   21  N   UNL     1      -9.694   5.812  71.316  1.00  0.00    -0.168 N  
HETATM   22  C   UNL     1      -8.273   5.436  71.404  1.00  0.00    -0.117 C  
HETATM   23  C   UNL     1     -10.593   4.872  72.006  1.00  0.00    -0.140 C  
ENDBRANCH  18  21
ENDBRANCH  15  18
ENDBRANCH   3   4
ENDBRANCH   2   3
BRANCH   2  24
HETATM   24  N   UNL     1      -7.710  10.731  66.485  1.00  0.00    -0.139 NA 
HETATM   25  C   UNL     1      -6.456  11.463  66.767  1.00  0.00    -0.140 C  
HETATM   26  C   UNL     1      -7.322   9.354  66.156  1.00  0.00    -0.096 C  
ENDBRANCH   2  24
TORSDOF 5
ENDMDL
MODEL      108
REMARK 921   NORMALIZED FREE ENERGY PREDICTED BY IDOCK:   -3.84 KCAL/MOL
REMARK 922        TOTAL FREE ENERGY PREDICTED BY IDOCK:   -5.83 KCAL/MOL
REMARK 923 INTER-LIGAND FREE ENERGY PREDICTED BY IDOCK:   -5.20 KCAL/MOL
REMARK 924 INTRA-LIGAND FREE ENERGY PREDICTED BY IDOCK:   -0.62 KCAL/MOL
REMARK 927      BINDING AFFINITY PREDICTED BY RF-SCORE:    0.00 PKD
ROOT
HETATM    1  C   UNL     1     -10.007  11.222  65.141  1.00  0.00    -0.312 C  
HETATM    2  C   UNL     1     -10.456  10.320  66.321  1.00  0.00    -0.144 C  
ENDROOT
BRANCH   2   3
HETATM    3  C   UNL     1      -9.140   9.582  66.799  1.00  0.00    -0.146 C  
BRANCH   3   4
HETATM    4  N   UNL     1      -9.072   8.101  66.670  1.00  0.00    -0.155 NA 
HETATM    5  C   UNL     1      -8.611   7.576  65.418  1.00  0.00    -0.049 A  
HETATM    6  C   UNL     1      -8.271   8.400  64.320  1.00  0.00    -0.130 A  
HETATM    7  C   UNL     1      -7.902   7.892  63.066  1.00  0.00    -0.140 A  
HETATM    8  C   UNL     1      -7.814   6.527  62.871  1.00  0.00    -0.099 A  
HETATM    9  C   UNL     1      -8.092   5.682  63.934  1.00  0.00    -0.122 A  
HETATM   10  C   UNL     1      -8.491   6.190  65.189  1.00  0.00    -0.100 A  
HETATM   11  S   UNL     1      -8.816   4.946  66.405  1.00  0.00    -0.115 SA 
HETATM   12  C   UNL     1      -9.367   5.901  67.791  1.00  0.00    -0.106 A  
HETATM   13  C   UNL     1      -9.425   7.313  67.817  1.00  0.00    -0.131 A  
HETATM   14  C   UNL     1      -9.876   7.878  69.036  1.00  0.00    -0.171 A  
HETATM   15  C   UNL     1     -10.236   7.090  70.144  1.00  0.00    -0.193 A  
HETATM   16  C   UNL     1     -10.174   5.707  70.084  1.00  0.00    -0.318 A  
HETATM   17  C   UNL     1      -9.749   5.118  68.904  1.00  0.00    -0.220 A  
BRANCH  15  18
HETATM   18  S   UNL     1     -10.679   7.872  71.686  1.00  0.00    -0.230 S  
HETATM   19  O   UNL     1     -12.068   7.565  71.951  1.00  0.00    -0.288 OA 
HETATM   20  O   UNL     1     -10.221   9.247  71.612  1.00  0.00    -0.332 OA 
BRANCH  18  21
HETATM   21  N   UNL     1      -9.714   7.061  72.826  1.00  0.00    -0.149 N  
HETATM   22  C   UNL     1     -10.404   6.146  73.750  1.00  0.00    -0.278 C  
HETATM   23  C   UNL     1      -8.644   7.845  73.469  1.00  0.00    -0.243 C  
ENDBRANCH  18  21
ENDBRANCH  15  18
ENDBRANCH   3   4
ENDBRANCH   2   3
BRANCH   2  24
HETATM   24  N   UNL     1     -11.292  11.130  67.265  1.00  0.00    -0.457 NA 
HETATM   25  C   UNL     1     -10.526  11.456  68.487  1.00  0.00    -0.203 C  
HETATM   26  C   UNL     1     -11.717  12.412  66.686  1.00  0.00    -0.372 C  
ENDBRANCH   2  24
TORSDOF 5
ENDMDL
MODEL      109
REMARK 921   NORMALIZED FREE ENERGY PREDICTED BY IDOCK:   -3.84 KCAL/MOL
REMARK 922        TOTAL FREE ENERGY PREDICTED BY IDOCK:   -5.83 KCAL/MOL
REMARK 923 INTER-LIGAND FREE ENERGY PREDICTED BY IDOCK:   -5.46 KCAL/MOL
REMARK 924 INTRA-LIGAND FREE ENERGY PREDICTED BY IDOCK:   -0.36 KCAL/MOL
REMARK 927      BINDING AFFINITY PREDICTED BY RF-SCORE:    0.00 PKD
ROOT
HETATM    1  C   UNL     1      -8.862   8.613  71.058  1.00  0.00    -0.235 C  
HETATM    2  C   UNL     1     -10.393   8.376  71.132  1.00  0.00    -0.212 C  
ENDROOT
BRANCH   2   3
HETATM    3  C   UNL     1     -10.937   8.743  69.691  1.00  0.00    -0.105 C  
BRANCH   3   4
HETATM    4  N   UNL     1     -10.898  10.167  69.260  1.00  0.00    -0.223 NA 
HETATM    5  C   UNL     1     -11.653  11.104  70.039  1.00  0.00    -0.338 A  
HETATM    6  C   UNL     1     -12.446  10.719  71.145  1.00  0.00    -0.519 A  
HETATM    7  C   UNL     1     -13.255  11.617  71.857  1.00  0.00    -0.475 A  
HETATM    8  C   UNL     1     -13.268  12.956  71.517  1.00  0.00    -0.346 A  
HETATM    9  C   UNL     1     -12.469  13.386  70.468  1.00  0.00    -0.350 A  
HETATM   10  C   UNL     1     -11.677  12.481  69.732  1.00  0.00    -0.285 A  
HETATM   11  S   UNL     1     -10.747  13.227  68.425  1.00  0.00    -0.262 SA 
HETATM   12  C   UNL     1      -9.960  11.832  67.669  1.00  0.00    -0.194 A  
HETATM   13  C   UNL     1     -10.074  10.501  68.133  1.00  0.00    -0.158 A  
HETATM   14  C   UNL     1      -9.344   9.538  67.393  1.00  0.00    -0.153 A  
HETATM   15  C   UNL     1      -8.557   9.881  66.279  1.00  0.00    -0.128 A  
HETATM   16  C   UNL     1      -8.471  11.194  65.847  1.00  0.00    -0.105 A  
HETATM   17  C   UNL     1      -9.181  12.163  66.538  1.00  0.00    -0.216 A  
BRANCH  15  18
HETATM   18  S   UNL     1      -7.569   8.635  65.470  1.00  0.00    -0.089 S  
HETATM   19  O   UNL     1      -8.266   7.373  65.596  1.00  0.00    -0.125 OA 
HETATM   20  O   UNL     1      -6.210   8.787  65.956  1.00  0.00    -0.054 OA 
BRANCH  18  21
HETATM   21  N   UNL     1      -7.596   9.112  63.839  1.00  0.00    -0.109 N  
HETATM   22  C   UNL     1      -8.642   8.518  62.990  1.00  0.00     0.005 C  
HETATM   23  C   UNL     1      -6.293   9.238  63.162  1.00  0.00    -0.091 C  
ENDBRANCH  18  21
ENDBRANCH  15  18
ENDBRANCH   3   4
ENDBRANCH   2   3
BRANCH   2  24
HETATM   24  N   UNL     1     -10.651   7.037  71.753  1.00  0.00    -0.210 NA 
HETATM   25  C   UNL     1      -9.506   6.130  71.524  1.00  0.00    -0.148 C  
HETATM   26  C   UNL     1     -10.836   7.115  73.208  1.00  0.00    -0.338 C  
ENDBRANCH   2  24
TORSDOF 5
ENDMDL
MODEL      110
REMARK 921   NORMALIZED FREE ENERGY PREDICTED BY IDOCK:   -3.82 KCAL/MOL
REMARK 922        TOTAL FREE ENERGY PREDICTED BY IDOCK:   -5.80 KCAL/MOL
REMARK 923 INTER-LIGAND FREE ENERGY PREDICTED BY IDOCK:   -6.05 KCAL/MOL
REMARK 924 INTRA-LIGAND FREE ENERGY PREDICTED BY IDOCK:    0.26 KCAL/MOL
REMARK 927      BINDING AFFINITY PREDICTED BY RF-SCORE:    0.00 PKD
ROOT
HETATM    1  C   UNL     1      -8.256  13.089  68.702  1.00  0.00     0.011 C  
HETATM    2  C   UNL     1      -9.779  12.829  68.560  1.00  0.00    -0.126 C  
ENDROOT
BRANCH   2   3
HETATM    3  C   UNL     1      -9.938  11.256  68.643  1.00  0.00    -0.204 C  
BRANCH   3   4
HETATM    4  N   UNL     1      -9.484  10.436  67.487  1.00  0.00    -0.148 NA 
HETATM    5  C   UNL     1      -8.735   9.250  67.785  1.00  0.00    -0.120 A  
HETATM    6  C   UNL     1      -8.388   8.873  69.103  1.00  0.00    -0.124 A  
HETATM    7  C   UNL     1      -7.582   7.763  69.395  1.00  0.00    -0.101 A  
HETATM    8  C   UNL     1      -7.125   6.951  68.374  1.00  0.00    -0.086 A  
HETATM    9  C   UNL     1      -7.481   7.257  67.068  1.00  0.00    -0.105 A  
HETATM   10  C   UNL     1      -8.267   8.389  66.770  1.00  0.00    -0.102 A  
HETATM   11  S   UNL     1      -8.594   8.611  65.045  1.00  0.00    -0.118 SA 
HETATM   12  C   UNL     1      -9.500  10.133  65.019  1.00  0.00    -0.271 A  
HETATM   13  C   UNL     1      -9.869  10.864  66.172  1.00  0.00    -0.222 A  
HETATM   14  C   UNL     1     -10.612  12.045  65.928  1.00  0.00    -0.302 A  
HETATM   15  C   UNL     1     -10.962  12.460  64.630  1.00  0.00    -0.305 A  
HETATM   16  C   UNL     1     -10.581  11.724  63.521  1.00  0.00    -0.499 A  
HETATM   17  C   UNL     1      -9.843  10.568  63.720  1.00  0.00    -0.363 A  
BRANCH  15  18
HETATM   18  S   UNL     1     -12.002  13.892  64.405  1.00  0.00    -0.444 S  
HETATM   19  O   UNL     1     -12.962  13.912  65.488  1.00  0.00    -0.673 OA 
HETATM   20  O   UNL     1     -12.441  13.887  63.022  1.00  0.00    -0.689 OA 
BRANCH  18  21
HETATM   21  N   UNL     1     -10.926  15.193  64.605  1.00  0.00    -0.355 N  
HETATM   22  C   UNL     1      -9.801  14.987  65.532  1.00  0.00    -0.317 C  
HETATM   23  C   UNL     1     -11.519  16.539  64.694  1.00  0.00     0.021 C  
ENDBRANCH  18  21
ENDBRANCH  15  18
ENDBRANCH   3   4
ENDBRANCH   2   3
BRANCH   2  24
HETATM   24  N   UNL     1     -10.519  13.746  69.486  1.00  0.00     0.166 NA 
HETATM   25  C   UNL     1     -10.283  15.158  69.116  1.00  0.00    -0.249 C  
HETATM   26  C   UNL     1     -11.973  13.542  69.441  1.00  0.00    -0.330 C  
ENDBRANCH   2  24
TORSDOF 5
ENDMDL
MODEL      111
REMARK 921   NORMALIZED FREE ENERGY PREDICTED BY IDOCK:   -3.82 KCAL/MOL
REMARK 922        TOTAL FREE ENERGY PREDICTED BY IDOCK:   -5.79 KCAL/MOL
REMARK 923 INTER-LIGAND FREE ENERGY PREDICTED BY IDOCK:   -5.26 KCAL/MOL
REMARK 924 INTRA-LIGAND FREE ENERGY PREDICTED BY IDOCK:   -0.53 KCAL/MOL
REMARK 927      BINDING AFFINITY PREDICTED BY RF-SCORE:    0.00 PKD
ROOT
HETATM    1  C   UNL     1      -8.781   7.417  64.554  1.00  0.00     0.430 C  
HETATM    2  C   UNL     1      -8.594   6.776  65.954  1.00  0.00    -0.147 C  
ENDROOT
BRANCH   2   3
HETATM    3  C   UNL     1     -10.036   6.782  66.606  1.00  0.00    -0.136 C  
BRANCH   3   4
HETATM    4  N   UNL     1     -10.220   7.472  67.912  1.00  0.00    -0.184 NA 
HETATM    5  C   UNL     1     -10.204   6.655  69.089  1.00  0.00    -0.179 A  
HETATM    6  C   UNL     1     -10.067   5.248  69.044  1.00  0.00    -0.272 A  
HETATM    7  C   UNL     1     -10.137   4.434  70.184  1.00  0.00    -0.155 A  
HETATM    8  C   UNL     1     -10.303   5.003  71.432  1.00  0.00    -0.251 A  
HETATM    9  C   UNL     1     -10.395   6.384  71.529  1.00  0.00    -0.239 A  
HETATM   10  C   UNL     1     -10.353   7.203  70.381  1.00  0.00    -0.203 A  
HETATM   11  S   UNL     1     -10.504   8.933  70.718  1.00  0.00    -0.248 SA 
HETATM   12  C   UNL     1     -10.507   9.641  69.094  1.00  0.00    -0.214 A  
HETATM   13  C   UNL     1     -10.351   8.902  67.899  1.00  0.00    -0.230 A  
HETATM   14  C   UNL     1     -10.360   9.669  66.708  1.00  0.00    -0.292 A  
HETATM   15  C   UNL     1     -10.510  11.068  66.713  1.00  0.00    -0.251 A  
HETATM   16  C   UNL     1     -10.666  11.762  67.902  1.00  0.00    -0.241 A  
HETATM   17  C   UNL     1     -10.673  11.044  69.087  1.00  0.00    -0.274 A  
BRANCH  15  18
HETATM   18  S   UNL     1     -10.391  11.980  65.185  1.00  0.00    -0.285 S  
HETATM   19  O   UNL     1      -9.835  11.093  64.186  1.00  0.00    -0.245 OA 
HETATM   20  O   UNL     1      -9.753  13.247  65.493  1.00  0.00    -0.175 OA 
BRANCH  18  21
HETATM   21  N   UNL     1     -12.014  12.297  64.790  1.00  0.00    -0.378 N  
HETATM   22  C   UNL     1     -12.330  12.459  63.362  1.00  0.00    -0.499 C  
HETATM   23  C   UNL     1     -12.738  13.238  65.662  1.00  0.00    -0.308 C  
ENDBRANCH  18  21
ENDBRANCH  15  18
ENDBRANCH   3   4
ENDBRANCH   2   3
BRANCH   2  24
HETATM   24  N   UNL     1      -7.801   5.513  65.810  1.00  0.00    -0.102 NA 
HETATM   25  C   UNL     1      -6.951   5.295  67.001  1.00  0.00    -0.065 C  
HETATM   26  C   UNL     1      -8.651   4.322  65.682  1.00  0.00    -0.118 C  
ENDBRANCH   2  24
TORSDOF 5
ENDMDL
MODEL      112
REMARK 921   NORMALIZED FREE ENERGY PREDICTED BY IDOCK:   -3.82 KCAL/MOL
REMARK 922        TOTAL FREE ENERGY PREDICTED BY IDOCK:   -5.79 KCAL/MOL
REMARK 923 INTER-LIGAND FREE ENERGY PREDICTED BY IDOCK:   -5.04 KCAL/MOL
REMARK 924 INTRA-LIGAND FREE ENERGY PREDICTED BY IDOCK:   -0.75 KCAL/MOL
REMARK 927      BINDING AFFINITY PREDICTED BY RF-SCORE:    0.00 PKD
ROOT
HETATM    1  C   UNL     1     -10.441   9.983  67.050  1.00  0.00    -0.302 C  
HETATM    2  C   UNL     1      -9.633   8.722  67.458  1.00  0.00    -0.152 C  
ENDROOT
BRANCH   2   3
HETATM    3  C   UNL     1     -10.724   7.622  67.784  1.00  0.00    -0.145 C  
BRANCH   3   4
HETATM    4  N   UNL     1     -10.422   6.616  68.839  1.00  0.00    -0.196 NA 
HETATM    5  C   UNL     1     -10.594   7.028  70.201  1.00  0.00    -0.228 A  
HETATM    6  C   UNL     1     -10.989   8.337  70.562  1.00  0.00    -0.253 A  
HETATM    7  C   UNL     1     -11.076   8.772  71.892  1.00  0.00    -0.434 A  
HETATM    8  C   UNL     1     -10.813   7.894  72.927  1.00  0.00    -0.451 A  
HETATM    9  C   UNL     1     -10.468   6.586  72.619  1.00  0.00    -0.236 A  
HETATM   10  C   UNL     1     -10.353   6.154  71.282  1.00  0.00    -0.217 A  
HETATM   11  S   UNL     1      -9.885   4.457  71.105  1.00  0.00    -0.173 SA 
HETATM   12  C   UNL     1      -9.744   4.278  69.348  1.00  0.00    -0.187 A  
HETATM   13  C   UNL     1     -10.029   5.302  68.416  1.00  0.00    -0.159 A  
HETATM   14  C   UNL     1      -9.872   4.940  67.054  1.00  0.00    -0.214 A  
HETATM   15  C   UNL     1      -9.466   3.653  66.658  1.00  0.00    -0.176 A  
HETATM   16  C   UNL     1      -9.190   2.674  67.598  1.00  0.00    -0.232 A  
HETATM   17  C   UNL     1      -9.321   2.994  68.940  1.00  0.00    -0.228 A  
BRANCH  15  18
HETATM   18  S   UNL     1      -9.407   3.233  64.925  1.00  0.00    -0.149 S  
HETATM   19  O   UNL     1     -10.566   3.824  64.291  1.00  0.00    -0.258 OA 
HETATM   20  O   UNL     1      -9.159   1.806  64.841  1.00  0.00    -0.122 OA 
BRANCH  18  21
HETATM   21  N   UNL     1      -8.015   4.038  64.375  1.00  0.00    -0.085 N  
HETATM   22  C   UNL     1      -7.907   4.262  62.923  1.00  0.00    -0.066 C  
HETATM   23  C   UNL     1      -6.738   3.664  65.006  1.00  0.00    -0.048 C  
ENDBRANCH  18  21
ENDBRANCH  15  18
ENDBRANCH   3   4
ENDBRANCH   2   3
BRANCH   2  24
HETATM   24  N   UNL     1      -8.554   8.485  66.446  1.00  0.00    -0.119 NA 
HETATM   25  C   UNL     1      -8.147   9.758  65.813  1.00  0.00    -0.119 C  
HETATM   26  C   UNL     1      -7.341   7.908  67.038  1.00  0.00    -0.091 C  
ENDBRANCH   2  24
TORSDOF 5
ENDMDL
MODEL      113
REMARK 921   NORMALIZED FREE ENERGY PREDICTED BY IDOCK:   -3.81 KCAL/MOL
REMARK 922        TOTAL FREE ENERGY PREDICTED BY IDOCK:   -5.79 KCAL/MOL
REMARK 923 INTER-LIGAND FREE ENERGY PREDICTED BY IDOCK:   -5.41 KCAL/MOL
REMARK 924 INTRA-LIGAND FREE ENERGY PREDICTED BY IDOCK:   -0.37 KCAL/MOL
REMARK 927      BINDING AFFINITY PREDICTED BY RF-SCORE:    0.00 PKD
ROOT
HETATM    1  C   UNL     1     -10.525   9.566  70.438  1.00  0.00    -0.336 C  
HETATM    2  C   UNL     1     -10.879   8.393  69.485  1.00  0.00    -0.117 C  
ENDROOT
BRANCH   2   3
HETATM    3  C   UNL     1      -9.853   8.513  68.285  1.00  0.00    -0.169 C  
BRANCH   3   4
HETATM    4  N   UNL     1      -8.665   9.394  68.454  1.00  0.00    -0.124 NA 
HETATM    5  C   UNL     1      -7.536   8.841  69.141  1.00  0.00    -0.076 A  
HETATM    6  C   UNL     1      -7.534   7.536  69.686  1.00  0.00    -0.092 A  
HETATM    7  C   UNL     1      -6.466   7.020  70.434  1.00  0.00    -0.043 A  
HETATM    8  C   UNL     1      -5.327   7.778  70.630  1.00  0.00    -0.023 A  
HETATM    9  C   UNL     1      -5.267   9.047  70.073  1.00  0.00    -0.028 A  
HETATM   10  C   UNL     1      -6.351   9.579  69.344  1.00  0.00    -0.043 A  
HETATM   11  S   UNL     1      -6.080  11.217  68.732  1.00  0.00    -0.045 SA 
HETATM   12  C   UNL     1      -7.631  11.603  67.968  1.00  0.00    -0.117 A  
HETATM   13  C   UNL     1      -8.721  10.707  67.876  1.00  0.00    -0.127 A  
HETATM   14  C   UNL     1      -9.862  11.211  67.204  1.00  0.00    -0.212 A  
HETATM   15  C   UNL     1      -9.906  12.508  66.662  1.00  0.00    -0.241 A  
HETATM   16  C   UNL     1      -8.822  13.363  66.774  1.00  0.00    -0.145 A  
HETATM   17  C   UNL     1      -7.692  12.909  67.436  1.00  0.00    -0.160 A  
BRANCH  15  18
HETATM   18  S   UNL     1     -11.330  13.032  65.724  1.00  0.00    -0.313 S  
HETATM   19  O   UNL     1     -11.086  14.386  65.274  1.00  0.00    -0.311 OA 
HETATM   20  O   UNL     1     -12.504  12.710  66.514  1.00  0.00    -0.407 OA 
BRANCH  18  21
HETATM   21  N   UNL     1     -11.312  11.998  64.375  1.00  0.00    -0.336 N  
HETATM   22  C   UNL     1     -10.060  11.939  63.601  1.00  0.00    -0.426 C  
HETATM   23  C   UNL     1     -12.521  11.980  63.534  1.00  0.00    -0.540 C  
ENDBRANCH  18  21
ENDBRANCH  15  18
ENDBRANCH   3   4
ENDBRANCH   2   3
BRANCH   2  24
HETATM   24  N   UNL     1     -11.008   7.134  70.288  1.00  0.00    -0.256 NA 
HETATM   25  C   UNL     1     -12.325   7.079  70.958  1.00  0.00    -0.356 C  
HETATM   26  C   UNL     1     -10.910   5.924  69.462  1.00  0.00    -0.372 C  
ENDBRANCH   2  24
TORSDOF 5
ENDMDL
MODEL      114
REMARK 921   NORMALIZED FREE ENERGY PREDICTED BY IDOCK:   -3.79 KCAL/MOL
REMARK 922        TOTAL FREE ENERGY PREDICTED BY IDOCK:   -5.75 KCAL/MOL
REMARK 923 INTER-LIGAND FREE ENERGY PREDICTED BY IDOCK:   -5.28 KCAL/MOL
REMARK 924 INTRA-LIGAND FREE ENERGY PREDICTED BY IDOCK:   -0.47 KCAL/MOL
REMARK 927      BINDING AFFINITY PREDICTED BY RF-SCORE:    0.00 PKD
ROOT
HETATM    1  C   UNL     1      -9.736   8.623  71.390  1.00  0.00    -0.314 C  
HETATM    2  C   UNL     1     -11.004   9.486  71.159  1.00  0.00    -0.368 C  
ENDROOT
BRANCH   2   3
HETATM    3  C   UNL     1     -11.261   9.432  69.598  1.00  0.00    -0.074 C  
BRANCH   3   4
HETATM    4  N   UNL     1     -10.440  10.305  68.714  1.00  0.00    -0.191 NA 
HETATM    5  C   UNL     1     -10.702  11.713  68.764  1.00  0.00    -0.219 A  
HETATM    6  C   UNL     1     -11.717  12.276  69.573  1.00  0.00    -0.398 A  
HETATM    7  C   UNL     1     -12.035  13.642  69.562  1.00  0.00    -0.397 A  
HETATM    8  C   UNL     1     -11.315  14.515  68.769  1.00  0.00    -0.298 A  
HETATM    9  C   UNL     1     -10.279  14.013  67.995  1.00  0.00    -0.238 A  
HETATM   10  C   UNL     1      -9.975  12.636  67.983  1.00  0.00    -0.220 A  
HETATM   11  S   UNL     1      -8.632  12.199  66.918  1.00  0.00    -0.167 SA 
HETATM   12  C   UNL     1      -8.581  10.434  67.068  1.00  0.00    -0.130 A  
HETATM   13  C   UNL     1      -9.422   9.680  67.918  1.00  0.00    -0.131 A  
HETATM   14  C   UNL     1      -9.200   8.281  67.902  1.00  0.00    -0.140 A  
HETATM   15  C   UNL     1      -8.210   7.684  67.100  1.00  0.00    -0.118 A  
HETATM   16  C   UNL     1      -7.406   8.451  66.273  1.00  0.00    -0.086 A  
HETATM   17  C   UNL     1      -7.602   9.823  66.253  1.00  0.00    -0.100 A  
BRANCH  15  18
HETATM   18  S   UNL     1      -7.906   5.930  67.221  1.00  0.00    -0.102 S  
HETATM   19  O   UNL     1      -8.889   5.376  68.127  1.00  0.00    -0.106 OA 
HETATM   20  O   UNL     1      -6.486   5.760  67.469  1.00  0.00    -0.044 OA 
BRANCH  18  21
HETATM   21  N   UNL     1      -8.232   5.367  65.651  1.00  0.00    -0.119 N  
HETATM   22  C   UNL     1      -9.451   4.559  65.475  1.00  0.00    -0.173 C  
HETATM   23  C   UNL     1      -7.084   4.873  64.870  1.00  0.00    -0.062 C  
ENDBRANCH  18  21
ENDBRANCH  15  18
ENDBRANCH   3   4
ENDBRANCH   2   3
BRANCH   2  24
HETATM   24  N   UNL     1     -12.058   9.079  72.144  1.00  0.00    -0.360 NA 
HETATM   25  C   UNL     1     -13.271   9.909  71.979  1.00  0.00    -0.456 C  
HETATM   26  C   UNL     1     -12.481   7.684  71.975  1.00  0.00    -0.270 C  
ENDBRANCH   2  24
TORSDOF 5
ENDMDL
MODEL      115
REMARK 921   NORMALIZED FREE ENERGY PREDICTED BY IDOCK:   -3.79 KCAL/MOL
REMARK 922        TOTAL FREE ENERGY PREDICTED BY IDOCK:   -5.75 KCAL/MOL
REMARK 923 INTER-LIGAND FREE ENERGY PREDICTED BY IDOCK:   -5.32 KCAL/MOL
REMARK 924 INTRA-LIGAND FREE ENERGY PREDICTED BY IDOCK:   -0.44 KCAL/MOL
REMARK 927      BINDING AFFINITY PREDICTED BY RF-SCORE:    0.00 PKD
ROOT
HETATM    1  C   UNL     1     -11.877  11.737  63.861  1.00  0.00    -0.449 C  
HETATM    2  C   UNL     1     -11.449  12.222  65.272  1.00  0.00    -0.351 C  
ENDROOT
BRANCH   2   3
HETATM    3  C   UNL     1     -10.082  12.987  65.048  1.00  0.00    -0.215 C  
BRANCH   3   4
HETATM    4  N   UNL     1      -9.262  13.337  66.241  1.00  0.00    -0.123 NA 
HETATM    5  C   UNL     1      -9.166  14.726  66.580  1.00  0.00    -0.276 A  
HETATM    6  C   UNL     1      -9.772  15.747  65.811  1.00  0.00    -0.372 A  
HETATM    7  C   UNL     1      -9.610  17.112  66.087  1.00  0.00    -0.242 A  
HETATM    8  C   UNL     1      -8.866  17.515  67.180  1.00  0.00    -0.246 A  
HETATM    9  C   UNL     1      -8.292  16.546  67.989  1.00  0.00    -0.180 A  
HETATM   10  C   UNL     1      -8.430  15.172  67.697  1.00  0.00    -0.160 A  
HETATM   11  S   UNL     1      -7.608  14.102  68.841  1.00  0.00    -0.058 SA 
HETATM   12  C   UNL     1      -7.899  12.500  68.144  1.00  0.00    -0.151 A  
HETATM   13  C   UNL     1      -8.673  12.260  66.986  1.00  0.00    -0.199 A  
HETATM   14  C   UNL     1      -8.797  10.899  66.611  1.00  0.00    -0.164 A  
HETATM   15  C   UNL     1      -8.196   9.859  67.342  1.00  0.00    -0.118 A  
HETATM   16  C   UNL     1      -7.438  10.128  68.470  1.00  0.00    -0.086 A  
HETATM   17  C   UNL     1      -7.285  11.448  68.860  1.00  0.00    -0.113 A  
BRANCH  15  18
HETATM   18  S   UNL     1      -8.495   8.161  66.882  1.00  0.00    -0.122 S  
HETATM   19  O   UNL     1      -7.446   7.356  67.471  1.00  0.00    -0.095 OA 
HETATM   20  O   UNL     1      -8.733   8.143  65.451  1.00  0.00    -0.160 OA 
BRANCH  18  21
HETATM   21  N   UNL     1      -9.962   7.798  67.659  1.00  0.00    -0.166 N  
HETATM   22  C   UNL     1      -9.924   7.670  69.125  1.00  0.00    -0.181 C  
HETATM   23  C   UNL     1     -10.831   6.803  67.007  1.00  0.00    -0.383 C  
ENDBRANCH  18  21
ENDBRANCH  15  18
ENDBRANCH   3   4
ENDBRANCH   2   3
BRANCH   2  24
HETATM   24  N   UNL     1     -12.620  12.879  65.938  1.00  0.00    -0.464 NA 
HETATM   25  C   UNL     1     -12.339  13.108  67.372  1.00  0.00     0.028 C  
HETATM   26  C   UNL     1     -12.935  14.192  65.361  1.00  0.00    -0.270 C  
ENDBRANCH   2  24
TORSDOF 5
ENDMDL
MODEL      116
REMARK 921   NORMALIZED FREE ENERGY PREDICTED BY IDOCK:   -3.78 KCAL/MOL
REMARK 922        TOTAL FREE ENERGY PREDICTED BY IDOCK:   -5.74 KCAL/MOL
REMARK 923 INTER-LIGAND FREE ENERGY PREDICTED BY IDOCK:   -5.76 KCAL/MOL
REMARK 924 INTRA-LIGAND FREE ENERGY PREDICTED BY IDOCK:    0.02 KCAL/MOL
REMARK 927      BINDING AFFINITY PREDICTED BY RF-SCORE:    0.00 PKD
ROOT
HETATM    1  C   UNL     1      -7.186  10.562  69.680  1.00  0.00    -0.148 C  
HETATM    2  C   UNL     1      -7.156  10.868  68.159  1.00  0.00    -0.077 C  
ENDROOT
BRANCH   2   3
HETATM    3  C   UNL     1      -8.612  10.526  67.640  1.00  0.00    -0.118 C  
BRANCH   3   4
HETATM    4  N   UNL     1      -9.764  11.265  68.225  1.00  0.00    -0.191 NA 
HETATM    5  C   UNL     1     -10.127  12.504  67.602  1.00  0.00    -0.217 A  
HETATM    6  C   UNL     1      -9.417  13.049  66.508  1.00  0.00    -0.246 A  
HETATM    7  C   UNL     1      -9.713  14.301  65.949  1.00  0.00    -0.289 A  
HETATM    8  C   UNL     1     -10.771  15.044  66.437  1.00  0.00    -0.322 A  
HETATM    9  C   UNL     1     -11.525  14.526  67.480  1.00  0.00    -0.375 A  
HETATM   10  C   UNL     1     -11.212  13.280  68.062  1.00  0.00    -0.276 A  
HETATM   11  S   UNL     1     -12.284  12.808  69.388  1.00  0.00     0.034 SA 
HETATM   12  C   UNL     1     -11.569  11.283  69.935  1.00  0.00    -0.334 A  
HETATM   13  C   UNL     1     -10.451  10.663  69.332  1.00  0.00    -0.225 A  
HETATM   14  C   UNL     1     -10.054   9.433  69.915  1.00  0.00    -0.243 A  
HETATM   15  C   UNL     1     -10.727   8.868  71.013  1.00  0.00    -0.247 A  
HETATM   16  C   UNL     1     -11.816   9.504  71.584  1.00  0.00    -0.468 A  
HETATM   17  C   UNL     1     -12.226  10.715  71.049  1.00  0.00    -0.498 A  
BRANCH  15  18
HETATM   18  S   UNL     1     -10.247   7.259  71.618  1.00  0.00    -0.191 S  
HETATM   19  O   UNL     1     -11.325   6.762  72.444  1.00  0.00    -0.257 OA 
HETATM   20  O   UNL     1      -8.902   7.387  72.147  1.00  0.00    -0.122 OA 
BRANCH  18  21
HETATM   21  N   UNL     1     -10.164   6.319  70.204  1.00  0.00    -0.182 N  
HETATM   22  C   UNL     1     -11.411   6.163  69.436  1.00  0.00    -0.331 C  
HETATM   23  C   UNL     1      -9.361   5.086  70.272  1.00  0.00    -0.154 C  
ENDBRANCH  18  21
ENDBRANCH  15  18
ENDBRANCH   3   4
ENDBRANCH   2   3
BRANCH   2  24
HETATM   24  N   UNL     1      -6.539  12.216  67.944  1.00  0.00    -0.075 NA 
HETATM   25  C   UNL     1      -6.244  12.865  69.239  1.00  0.00    -0.104 C  
HETATM   26  C   UNL     1      -5.267  12.147  67.214  1.00  0.00    -0.106 C  
ENDBRANCH   2  24
TORSDOF 5
ENDMDL
MODEL      117
REMARK 921   NORMALIZED FREE ENERGY PREDICTED BY IDOCK:   -3.75 KCAL/MOL
REMARK 922        TOTAL FREE ENERGY PREDICTED BY IDOCK:   -5.71 KCAL/MOL
REMARK 923 INTER-LIGAND FREE ENERGY PREDICTED BY IDOCK:   -5.52 KCAL/MOL
REMARK 924 INTRA-LIGAND FREE ENERGY PREDICTED BY IDOCK:   -0.19 KCAL/MOL
REMARK 927      BINDING AFFINITY PREDICTED BY RF-SCORE:    0.00 PKD
ROOT
HETATM    1  C   UNL     1     -10.810  16.629  65.156  1.00  0.00    -0.199 C  
HETATM    2  C   UNL     1     -10.145  16.633  66.558  1.00  0.00    -0.305 C  
ENDROOT
BRANCH   2   3
HETATM    3  C   UNL     1      -8.636  17.032  66.297  1.00  0.00    -0.262 C  
BRANCH   3   4
HETATM    4  N   UNL     1      -7.664  16.897  67.417  1.00  0.00    -0.165 NA 
HETATM    5  C   UNL     1      -7.080  18.104  67.922  1.00  0.00    -0.218 A  
HETATM    6  C   UNL     1      -7.359  19.378  67.376  1.00  0.00    -0.252 A  
HETATM    7  C   UNL     1      -6.727  20.553  67.809  1.00  0.00    -0.351 A  
HETATM    8  C   UNL     1      -5.814  20.506  68.846  1.00  0.00    -0.376 A  
HETATM    9  C   UNL     1      -5.545  19.284  69.443  1.00  0.00    -0.237 A  
HETATM   10  C   UNL     1      -6.159  18.097  68.991  1.00  0.00    -0.227 A  
HETATM   11  S   UNL     1      -5.668  16.644  69.874  1.00  0.00    -0.216 SA 
HETATM   12  C   UNL     1      -6.531  15.361  69.011  1.00  0.00    -0.113 A  
HETATM   13  C   UNL     1      -7.421  15.580  67.935  1.00  0.00    -0.137 A  
HETATM   14  C   UNL     1      -8.024  14.413  67.401  1.00  0.00    -0.220 A  
HETATM   15  C   UNL     1      -7.758  13.129  67.908  1.00  0.00    -0.147 A  
HETATM   16  C   UNL     1      -6.876  12.948  68.961  1.00  0.00    -0.080 A  
HETATM   17  C   UNL     1      -6.259  14.064  69.501  1.00  0.00    -0.117 A  
BRANCH  15  18
HETATM   18  S   UNL     1      -8.645  11.719  67.267  1.00  0.00    -0.169 S  
HETATM   19  O   UNL     1      -8.302  10.576  68.086  1.00  0.00    -0.114 OA 
HETATM   20  O   UNL     1      -8.431  11.698  65.832  1.00  0.00    -0.031 OA 
BRANCH  18  21
HETATM   21  N   UNL     1     -10.273  12.121  67.546  1.00  0.00    -0.197 N  
HETATM   22  C   UNL     1     -10.555  12.985  68.705  1.00  0.00    -0.236 C  
HETATM   23  C   UNL     1     -11.264  11.047  67.361  1.00  0.00    -0.285 C  
ENDBRANCH  18  21
ENDBRANCH  15  18
ENDBRANCH   3   4
ENDBRANCH   2   3
BRANCH   2  24
HETATM   24  N   UNL     1     -11.011  17.406  67.506  1.00  0.00    -0.189 NA 
HETATM   25  C   UNL     1     -10.702  17.042  68.905  1.00  0.00    -0.300 C  
HETATM   26  C   UNL     1     -10.812  18.857  67.400  1.00  0.00    -0.374 C  
ENDBRANCH   2  24
TORSDOF 5
ENDMDL
MODEL      118
REMARK 921   NORMALIZED FREE ENERGY PREDICTED BY IDOCK:   -3.75 KCAL/MOL
REMARK 922        TOTAL FREE ENERGY PREDICTED BY IDOCK:   -5.71 KCAL/MOL
REMARK 923 INTER-LIGAND FREE ENERGY PREDICTED BY IDOCK:   -5.31 KCAL/MOL
REMARK 924 INTRA-LIGAND FREE ENERGY PREDICTED BY IDOCK:   -0.40 KCAL/MOL
REMARK 927      BINDING AFFINITY PREDICTED BY RF-SCORE:    0.00 PKD
ROOT
HETATM    1  C   UNL     1      -9.746   8.852  72.075  1.00  0.00    -0.304 C  
HETATM    2  C   UNL     1     -10.809   9.151  70.985  1.00  0.00    -0.291 C  
ENDROOT
BRANCH   2   3
HETATM    3  C   UNL     1     -11.412   7.740  70.598  1.00  0.00    -0.245 C  
BRANCH   3   4
HETATM    4  N   UNL     1     -10.474   6.650  70.213  1.00  0.00    -0.202 NA 
HETATM    5  C   UNL     1     -10.420   5.504  71.072  1.00  0.00    -0.244 A  
HETATM    6  C   UNL     1     -11.177   5.401  72.262  1.00  0.00    -0.235 A  
HETATM    7  C   UNL     1     -11.065   4.322  73.151  1.00  0.00    -0.293 A  
HETATM    8  C   UNL     1     -10.217   3.271  72.861  1.00  0.00    -0.235 A  
HETATM    9  C   UNL     1      -9.490   3.307  71.680  1.00  0.00    -0.220 A  
HETATM   10  C   UNL     1      -9.580   4.404  70.798  1.00  0.00    -0.188 A  
HETATM   11  S   UNL     1      -8.560   4.265  69.359  1.00  0.00    -0.083 SA 
HETATM   12  C   UNL     1      -8.838   5.810  68.540  1.00  0.00    -0.110 A  
HETATM   13  C   UNL     1      -9.734   6.805  68.993  1.00  0.00    -0.145 A  
HETATM   14  C   UNL     1      -9.821   7.959  68.175  1.00  0.00    -0.193 A  
HETATM   15  C   UNL     1      -9.072   8.103  66.993  1.00  0.00    -0.143 A  
HETATM   16  C   UNL     1      -8.198   7.111  66.579  1.00  0.00    -0.117 A  
HETATM   17  C   UNL     1      -8.078   5.972  67.360  1.00  0.00    -0.106 A  
BRANCH  15  18
HETATM   18  S   UNL     1      -9.323   9.528  65.949  1.00  0.00    -0.246 S  
HETATM   19  O   UNL     1     -10.683   9.981  66.144  1.00  0.00    -0.067 OA 
HETATM   20  O   UNL     1      -8.837   9.179  64.627  1.00  0.00    -0.192 OA 
BRANCH  18  21
HETATM   21  N   UNL     1      -8.264  10.684  66.606  1.00  0.00    -0.129 N  
HETATM   22  C   UNL     1      -6.834  10.529  66.292  1.00  0.00    -0.127 C  
HETATM   23  C   UNL     1      -8.516  11.104  67.995  1.00  0.00    -0.135 C  
ENDBRANCH  18  21
ENDBRANCH  15  18
ENDBRANCH   3   4
ENDBRANCH   2   3
BRANCH   2  24
HETATM   24  N   UNL     1     -11.680  10.279  71.449  1.00  0.00    -0.302 NA 
HETATM   25  C   UNL     1     -11.776  11.323  70.407  1.00  0.00    -0.304 C  
HETATM   26  C   UNL     1     -13.054   9.850  71.737  1.00  0.00    -0.452 C  
ENDBRANCH   2  24
TORSDOF 5
ENDMDL
MODEL      119
REMARK 921   NORMALIZED FREE ENERGY PREDICTED BY IDOCK:   -3.74 KCAL/MOL
REMARK 922        TOTAL FREE ENERGY PREDICTED BY IDOCK:   -5.69 KCAL/MOL
REMARK 923 INTER-LIGAND FREE ENERGY PREDICTED BY IDOCK:   -5.29 KCAL/MOL
REMARK 924 INTRA-LIGAND FREE ENERGY PREDICTED BY IDOCK:   -0.40 KCAL/MOL
REMARK 927      BINDING AFFINITY PREDICTED BY RF-SCORE:    0.00 PKD
ROOT
HETATM    1  C   UNL     1     -11.374   6.243  69.492  1.00  0.00    -0.475 C  
HETATM    2  C   UNL     1      -9.975   5.993  70.114  1.00  0.00    -0.178 C  
ENDROOT
BRANCH   2   3
HETATM    3  C   UNL     1      -9.247   7.398  70.071  1.00  0.00    -0.148 C  
BRANCH   3   4
HETATM    4  N   UNL     1      -9.758   8.432  69.131  1.00  0.00    -0.168 NA 
HETATM    5  C   UNL     1     -10.630   9.432  69.674  1.00  0.00    -0.225 A  
HETATM    6  C   UNL     1     -11.041   9.438  71.027  1.00  0.00    -0.414 A  
HETATM    7  C   UNL     1     -11.961  10.362  71.544  1.00  0.00    -0.300 A  
HETATM    8  C   UNL     1     -12.477  11.354  70.732  1.00  0.00    -0.460 A  
HETATM    9  C   UNL     1     -12.065  11.415  69.409  1.00  0.00    -0.358 A  
HETATM   10  C   UNL     1     -11.161  10.470  68.880  1.00  0.00    -0.266 A  
HETATM   11  S   UNL     1     -10.778  10.712  67.170  1.00  0.00    -0.259 SA 
HETATM   12  C   UNL     1      -9.722   9.336  66.814  1.00  0.00    -0.200 A  
HETATM   13  C   UNL     1      -9.305   8.380  67.770  1.00  0.00    -0.134 A  
HETATM   14  C   UNL     1      -8.441   7.370  67.278  1.00  0.00    -0.118 A  
HETATM   15  C   UNL     1      -8.023   7.324  65.936  1.00  0.00    -0.115 A  
HETATM   16  C   UNL     1      -8.454   8.272  65.023  1.00  0.00    -0.141 A  
HETATM   17  C   UNL     1      -9.310   9.269  65.465  1.00  0.00    -0.303 A  
BRANCH  15  18
HETATM   18  S   UNL     1      -6.838   6.095  65.416  1.00  0.00    -0.049 S  
HETATM   19  O   UNL     1      -5.797   6.037  66.419  1.00  0.00    -0.019 OA 
HETATM   20  O   UNL     1      -6.520   6.372  64.027  1.00  0.00    -0.029 OA 
BRANCH  18  21
HETATM   21  N   UNL     1      -7.728   4.647  65.468  1.00  0.00    -0.089 N  
HETATM   22  C   UNL     1      -9.029   4.642  64.780  1.00  0.00    -0.153 C  
HETATM   23  C   UNL     1      -7.740   3.921  66.750  1.00  0.00    -0.088 C  
ENDBRANCH  18  21
ENDBRANCH  15  18
ENDBRANCH   3   4
ENDBRANCH   2   3
BRANCH   2  24
HETATM   24  N   UNL     1     -10.138   5.229  71.393  1.00  0.00    -0.195 NA 
HETATM   25  C   UNL     1      -8.921   5.342  72.224  1.00  0.00    -0.129 C  
HETATM   26  C   UNL     1     -11.249   5.730  72.212  1.00  0.00    -0.278 C  
ENDBRANCH   2  24
TORSDOF 5
ENDMDL
MODEL      120
REMARK 921   NORMALIZED FREE ENERGY PREDICTED BY IDOCK:   -3.73 KCAL/MOL
REMARK 922        TOTAL FREE ENERGY PREDICTED BY IDOCK:   -5.67 KCAL/MOL
REMARK 923 INTER-LIGAND FREE ENERGY PREDICTED BY IDOCK:   -6.13 KCAL/MOL
REMARK 924 INTRA-LIGAND FREE ENERGY PREDICTED BY IDOCK:    0.46 KCAL/MOL
REMARK 927      BINDING AFFINITY PREDICTED BY RF-SCORE:    0.00 PKD
ROOT
HETATM    1  C   UNL     1     -10.494  12.455  65.546  1.00  0.00    -0.304 C  
HETATM    2  C   UNL     1      -9.009  12.044  65.729  1.00  0.00     0.101 C  
ENDROOT
BRANCH   2   3
HETATM    3  C   UNL     1      -8.693  12.311  67.257  1.00  0.00    -0.188 C  
BRANCH   3   4
HETATM    4  N   UNL     1      -9.750  12.930  68.102  1.00  0.00    -0.224 NA 
HETATM    5  C   UNL     1      -9.969  14.338  67.944  1.00  0.00    -0.230 A  
HETATM    6  C   UNL     1      -9.203  15.139  67.066  1.00  0.00    -0.239 A  
HETATM    7  C   UNL     1      -9.354  16.530  66.970  1.00  0.00    -0.242 A  
HETATM    8  C   UNL     1     -10.318  17.176  67.721  1.00  0.00    -0.347 A  
HETATM    9  C   UNL     1     -11.124  16.422  68.561  1.00  0.00    -0.357 A  
HETATM   10  C   UNL     1     -10.956  15.027  68.680  1.00  0.00    -0.257 A  
HETATM   11  S   UNL     1     -12.072  14.256  69.816  1.00  0.00    -0.350 SA 
HETATM   12  C   UNL     1     -11.537  12.568  69.794  1.00  0.00    -0.221 A  
HETATM   13  C   UNL     1     -10.500  12.069  68.973  1.00  0.00    -0.053 A  
HETATM   14  C   UNL     1     -10.246  10.680  69.095  1.00  0.00    -0.238 A  
HETATM   15  C   UNL     1     -10.977   9.855  69.968  1.00  0.00    -0.291 A  
HETATM   16  C   UNL     1     -11.984  10.376  70.764  1.00  0.00    -0.462 A  
HETATM   17  C   UNL     1     -12.253  11.733  70.680  1.00  0.00    -0.443 A  
BRANCH  15  18
HETATM   18  S   UNL     1     -10.685   8.095  69.981  1.00  0.00    -0.230 S  
HETATM   19  O   UNL     1     -10.785   7.623  68.617  1.00  0.00    -0.163 OA 
HETATM   20  O   UNL     1     -11.521   7.532  71.026  1.00  0.00    -0.268 OA 
BRANCH  18  21
HETATM   21  N   UNL     1      -9.067   7.970  70.485  1.00  0.00    -0.152 N  
HETATM   22  C   UNL     1      -8.711   6.793  71.295  1.00  0.00    -0.128 C  
HETATM   23  C   UNL     1      -8.415   9.211  70.939  1.00  0.00    -0.201 C  
ENDBRANCH  18  21
ENDBRANCH  15  18
ENDBRANCH   3   4
ENDBRANCH   2   3
BRANCH   2  24
HETATM   24  N   UNL     1      -8.794  10.700  65.104  1.00  0.00    -0.190 NA 
HETATM   25  C   UNL     1      -7.495  10.133  65.527  1.00  0.00    -0.146 C  
HETATM   26  C   UNL     1      -9.820   9.724  65.492  1.00  0.00    -0.308 C  
ENDBRANCH   2  24
TORSDOF 5
ENDMDL
MODEL      121
REMARK 921   NORMALIZED FREE ENERGY PREDICTED BY IDOCK:   -3.72 KCAL/MOL
REMARK 922        TOTAL FREE ENERGY PREDICTED BY IDOCK:   -5.67 KCAL/MOL
REMARK 923 INTER-LIGAND FREE ENERGY PREDICTED BY IDOCK:   -5.52 KCAL/MOL
REMARK 924 INTRA-LIGAND FREE ENERGY PREDICTED BY IDOCK:   -0.15 KCAL/MOL
REMARK 927      BINDING AFFINITY PREDICTED BY RF-SCORE:    0.00 PKD
ROOT
HETATM    1  C   UNL     1      -9.714   8.083  66.002  1.00  0.00    -0.002 C  
HETATM    2  C   UNL     1      -8.496   8.883  65.468  1.00  0.00    -0.159 C  
ENDROOT
BRANCH   2   3
HETATM    3  C   UNL     1      -8.057   9.817  66.668  1.00  0.00    -0.116 C  
BRANCH   3   4
HETATM    4  N   UNL     1      -9.026  10.053  67.773  1.00  0.00    -0.131 NA 
HETATM    5  C   UNL     1      -8.864   9.267  68.961  1.00  0.00    -0.136 A  
HETATM    6  C   UNL     1      -7.867   8.272  69.092  1.00  0.00    -0.106 A  
HETATM    7  C   UNL     1      -7.757   7.441  70.216  1.00  0.00    -0.093 A  
HETATM    8  C   UNL     1      -8.619   7.602  71.284  1.00  0.00    -0.124 A  
HETATM    9  C   UNL     1      -9.583   8.598  71.218  1.00  0.00    -0.292 A  
HETATM   10  C   UNL     1      -9.713   9.416  70.077  1.00  0.00    -0.224 A  
HETATM   11  S   UNL     1     -11.014  10.611  70.186  1.00  0.00    -0.141 SA 
HETATM   12  C   UNL     1     -10.960  11.383  68.593  1.00  0.00    -0.220 A  
HETATM   13  C   UNL     1     -10.015  11.077  67.588  1.00  0.00    -0.173 A  
HETATM   14  C   UNL     1     -10.136  11.830  66.393  1.00  0.00    -0.239 A  
HETATM   15  C   UNL     1     -11.124  12.816  66.221  1.00  0.00    -0.288 A  
HETATM   16  C   UNL     1     -12.039  13.089  67.225  1.00  0.00    -0.304 A  
HETATM   17  C   UNL     1     -11.959  12.364  68.403  1.00  0.00    -0.269 A  
BRANCH  15  18
HETATM   18  S   UNL     1     -11.141  13.808  64.739  1.00  0.00    -0.395 S  
HETATM   19  O   UNL     1      -9.854  14.461  64.633  1.00  0.00    -0.118 OA 
HETATM   20  O   UNL     1     -12.369  14.582  64.758  1.00  0.00    -0.438 OA 
BRANCH  18  21
HETATM   21  N   UNL     1     -11.272  12.654  63.497  1.00  0.00    -0.464 N  
HETATM   22  C   UNL     1     -12.526  11.886  63.433  1.00  0.00    -0.463 C  
HETATM   23  C   UNL     1     -10.074  11.844  63.214  1.00  0.00    -0.396 C  
ENDBRANCH  18  21
ENDBRANCH  15  18
ENDBRANCH   3   4
ENDBRANCH   2   3
BRANCH   2  24
HETATM   24  N   UNL     1      -7.536   7.934  64.817  1.00  0.00    -0.089 NA 
HETATM   25  C   UNL     1      -6.306   8.643  64.403  1.00  0.00    -0.067 C  
HETATM   26  C   UNL     1      -7.111   6.854  65.716  1.00  0.00    -0.072 C  
ENDBRANCH   2  24
TORSDOF 5
ENDMDL
MODEL      122
REMARK 921   NORMALIZED FREE ENERGY PREDICTED BY IDOCK:   -3.68 KCAL/MOL
REMARK 922        TOTAL FREE ENERGY PREDICTED BY IDOCK:   -5.62 KCAL/MOL
REMARK 923 INTER-LIGAND FREE ENERGY PREDICTED BY IDOCK:   -5.09 KCAL/MOL
REMARK 924 INTRA-LIGAND FREE ENERGY PREDICTED BY IDOCK:   -0.53 KCAL/MOL
REMARK 927      BINDING AFFINITY PREDICTED BY RF-SCORE:    0.00 PKD
ROOT
HETATM    1  C   UNL     1     -10.943  10.293  68.151  1.00  0.00    -0.328 C  
HETATM    2  C   UNL     1      -9.829   9.625  67.302  1.00  0.00    -0.175 C  
ENDROOT
BRANCH   2   3
HETATM    3  C   UNL     1     -10.410   8.208  66.901  1.00  0.00    -0.331 C  
BRANCH   3   4
HETATM    4  N   UNL     1      -9.579   7.001  67.161  1.00  0.00    -0.142 NA 
HETATM    5  C   UNL     1      -8.606   6.654  66.168  1.00  0.00    -0.146 A  
HETATM    6  C   UNL     1      -8.447   7.378  64.964  1.00  0.00     0.007 A  
HETATM    7  C   UNL     1      -7.558   6.993  63.950  1.00  0.00    -0.109 A  
HETATM    8  C   UNL     1      -6.750   5.884  64.121  1.00  0.00    -0.041 A  
HETATM    9  C   UNL     1      -6.838   5.172  65.308  1.00  0.00    -0.060 A  
HETATM   10  C   UNL     1      -7.752   5.540  66.317  1.00  0.00    -0.099 A  
HETATM   11  S   UNL     1      -7.720   4.493  67.742  1.00  0.00    -0.081 SA 
HETATM   12  C   UNL     1      -9.019   5.165  68.742  1.00  0.00    -0.101 A  
HETATM   13  C   UNL     1      -9.779   6.307  68.402  1.00  0.00    -0.124 A  
HETATM   14  C   UNL     1     -10.756   6.690  69.355  1.00  0.00    -0.303 A  
HETATM   15  C   UNL     1     -10.952   5.985  70.557  1.00  0.00    -0.319 A  
HETATM   16  C   UNL     1     -10.193   4.866  70.858  1.00  0.00    -0.272 A  
HETATM   17  C   UNL     1      -9.236   4.455  69.944  1.00  0.00    -0.202 A  
BRANCH  15  18
HETATM   18  S   UNL     1     -12.115   6.595  71.765  1.00  0.00    -0.343 S  
HETATM   19  O   UNL     1     -12.322   5.548  72.742  1.00  0.00    -0.071 OA 
HETATM   20  O   UNL     1     -13.233   7.160  71.032  1.00  0.00    -0.286 OA 
BRANCH  18  21
HETATM   21  N   UNL     1     -11.276   7.874  72.505  1.00  0.00    -0.348 N  
HETATM   22  C   UNL     1     -10.866   8.990  71.637  1.00  0.00    -0.366 C  
HETATM   23  C   UNL     1     -10.262   7.510  73.510  1.00  0.00    -0.324 C  
ENDBRANCH  18  21
ENDBRANCH  15  18
ENDBRANCH   3   4
ENDBRANCH   2   3
BRANCH   2  24
HETATM   24  N   UNL     1      -9.350  10.600  66.271  1.00  0.00    -0.166 NA 
HETATM   25  C   UNL     1      -9.946  11.934  66.501  1.00  0.00    -0.202 C  
HETATM   26  C   UNL     1      -7.893  10.785  66.301  1.00  0.00    -0.156 C  
ENDBRANCH   2  24
TORSDOF 5
ENDMDL
MODEL      123
REMARK 921   NORMALIZED FREE ENERGY PREDICTED BY IDOCK:   -3.68 KCAL/MOL
REMARK 922        TOTAL FREE ENERGY PREDICTED BY IDOCK:   -5.62 KCAL/MOL
REMARK 923 INTER-LIGAND FREE ENERGY PREDICTED BY IDOCK:   -5.08 KCAL/MOL
REMARK 924 INTRA-LIGAND FREE ENERGY PREDICTED BY IDOCK:   -0.54 KCAL/MOL
REMARK 927      BINDING AFFINITY PREDICTED BY RF-SCORE:    0.00 PKD
ROOT
HETATM    1  C   UNL     1     -11.943   6.623  70.954  1.00  0.00    -0.413 C  
HETATM    2  C   UNL     1     -10.678   7.464  70.639  1.00  0.00    -0.229 C  
ENDROOT
BRANCH   2   3
HETATM    3  C   UNL     1     -10.785   7.808  69.097  1.00  0.00    -0.126 C  
BRANCH   3   4
HETATM    4  N   UNL     1      -9.531   8.084  68.344  1.00  0.00    -0.144 NA 
HETATM    5  C   UNL     1      -8.698   6.960  68.031  1.00  0.00    -0.125 A  
HETATM    6  C   UNL     1      -9.003   5.642  68.444  1.00  0.00    -0.114 A  
HETATM    7  C   UNL     1      -8.150   4.551  68.216  1.00  0.00    -0.083 A  
HETATM    8  C   UNL     1      -6.969   4.729  67.521  1.00  0.00    -0.061 A  
HETATM    9  C   UNL     1      -6.653   5.997  67.056  1.00  0.00    -0.056 A  
HETATM   10  C   UNL     1      -7.495   7.100  67.308  1.00  0.00    -0.099 A  
HETATM   11  S   UNL     1      -6.904   8.631  66.646  1.00  0.00    -0.069 SA 
HETATM   12  C   UNL     1      -8.120   9.789  67.211  1.00  0.00    -0.117 A  
HETATM   13  C   UNL     1      -9.274   9.439  67.948  1.00  0.00    -0.129 A  
HETATM   14  C   UNL     1     -10.129  10.519  68.281  1.00  0.00    -0.180 A  
HETATM   15  C   UNL     1      -9.851  11.845  67.901  1.00  0.00    -0.190 A  
HETATM   16  C   UNL     1      -8.708  12.155  67.183  1.00  0.00    -0.190 A  
HETATM   17  C   UNL     1      -7.841  11.126  66.850  1.00  0.00    -0.152 A  
BRANCH  15  18
HETATM   18  S   UNL     1     -11.033  13.136  68.249  1.00  0.00    -0.266 S  
HETATM   19  O   UNL     1     -10.314  14.236  68.856  1.00  0.00    -0.235 OA 
HETATM   20  O   UNL     1     -12.155  12.515  68.928  1.00  0.00    -0.264 OA 
BRANCH  18  21
HETATM   21  N   UNL     1     -11.557  13.613  66.704  1.00  0.00    -0.346 N  
HETATM   22  C   UNL     1     -11.880  12.538  65.751  1.00  0.00    -0.437 C  
HETATM   23  C   UNL     1     -10.856  14.752  66.087  1.00  0.00    -0.321 C  
ENDBRANCH  18  21
ENDBRANCH  15  18
ENDBRANCH   3   4
ENDBRANCH   2   3
BRANCH   2  24
HETATM   24  N   UNL     1     -10.534   8.536  71.676  1.00  0.00    -0.250 NA 
HETATM   25  C   UNL     1      -9.147   9.049  71.703  1.00  0.00    -0.108 C  
HETATM   26  C   UNL     1     -11.401   9.693  71.418  1.00  0.00    -0.374 C  
ENDBRANCH   2  24
TORSDOF 5
ENDMDL
MODEL      124
REMARK 921   NORMALIZED FREE ENERGY PREDICTED BY IDOCK:   -3.64 KCAL/MOL
REMARK 922        TOTAL FREE ENERGY PREDICTED BY IDOCK:   -5.57 KCAL/MOL
REMARK 923 INTER-LIGAND FREE ENERGY PREDICTED BY IDOCK:   -5.72 KCAL/MOL
REMARK 924 INTRA-LIGAND FREE ENERGY PREDICTED BY IDOCK:    0.15 KCAL/MOL
REMARK 927      BINDING AFFINITY PREDICTED BY RF-SCORE:    0.00 PKD
ROOT
HETATM    1  C   UNL     1      -9.774  14.873  69.011  1.00  0.00    -0.212 C  
HETATM    2  C   UNL     1      -8.435  15.495  68.536  1.00  0.00    -0.163 C  
ENDROOT
BRANCH   2   3
HETATM    3  C   UNL     1      -7.823  14.438  67.528  1.00  0.00    -0.190 C  
BRANCH   3   4
HETATM    4  N   UNL     1      -7.937  12.992  67.861  1.00  0.00    -0.142 NA 
HETATM    5  C   UNL     1      -7.064  12.489  68.881  1.00  0.00    -0.073 A  
HETATM    6  C   UNL     1      -6.097  13.292  69.528  1.00  0.00    -0.112 A  
HETATM    7  C   UNL     1      -5.183  12.786  70.463  1.00  0.00    -0.125 A  
HETATM    8  C   UNL     1      -5.229  11.454  70.827  1.00  0.00    -0.123 A  
HETATM    9  C   UNL     1      -6.193  10.639  70.251  1.00  0.00    -0.139 A  
HETATM   10  C   UNL     1      -7.095  11.139  69.290  1.00  0.00    -0.123 A  
HETATM   11  S   UNL     1      -8.232   9.935  68.667  1.00  0.00    -0.112 SA 
HETATM   12  C   UNL     1      -9.132  10.851  67.446  1.00  0.00    -0.140 A  
HETATM   13  C   UNL     1      -8.939  12.225  67.176  1.00  0.00    -0.192 A  
HETATM   14  C   UNL     1      -9.780  12.769  66.174  1.00  0.00    -0.246 A  
HETATM   15  C   UNL     1     -10.743  11.997  65.498  1.00  0.00    -0.276 A  
HETATM   16  C   UNL     1     -10.903  10.651  65.783  1.00  0.00    -0.010 A  
HETATM   17  C   UNL     1     -10.089  10.081  66.750  1.00  0.00    -0.286 A  
BRANCH  15  18
HETATM   18  S   UNL     1     -11.849  12.775  64.335  1.00  0.00    -0.415 S  
HETATM   19  O   UNL     1     -13.067  11.994  64.299  1.00  0.00    -0.671 OA 
HETATM   20  O   UNL     1     -11.089  13.024  63.125  1.00  0.00    -0.041 OA 
BRANCH  18  21
HETATM   21  N   UNL     1     -12.185  14.276  65.058  1.00  0.00    -0.419 N  
HETATM   22  C   UNL     1     -11.404  15.431  64.584  1.00  0.00    -0.355 C  
HETATM   23  C   UNL     1     -12.406  14.278  66.515  1.00  0.00    -0.314 C  
ENDBRANCH  18  21
ENDBRANCH  15  18
ENDBRANCH   3   4
ENDBRANCH   2   3
BRANCH   2  24
HETATM   24  N   UNL     1      -8.673  16.919  68.135  1.00  0.00    -0.219 NA 
HETATM   25  C   UNL     1      -9.952  17.408  68.692  1.00  0.00    -0.340 C  
HETATM   26  C   UNL     1      -7.630  17.827  68.629  1.00  0.00    -0.276 C  
ENDBRANCH   2  24
TORSDOF 5
ENDMDL
MODEL      125
REMARK 921   NORMALIZED FREE ENERGY PREDICTED BY IDOCK:   -3.64 KCAL/MOL
REMARK 922        TOTAL FREE ENERGY PREDICTED BY IDOCK:   -5.57 KCAL/MOL
REMARK 923 INTER-LIGAND FREE ENERGY PREDICTED BY IDOCK:   -4.98 KCAL/MOL
REMARK 924 INTRA-LIGAND FREE ENERGY PREDICTED BY IDOCK:   -0.59 KCAL/MOL
REMARK 927      BINDING AFFINITY PREDICTED BY RF-SCORE:    0.00 PKD
ROOT
HETATM    1  C   UNL     1     -12.547  11.383  71.219  1.00  0.00    -0.480 C  
HETATM    2  C   UNL     1     -11.556  11.842  70.117  1.00  0.00    -0.167 C  
ENDROOT
BRANCH   2   3
HETATM    3  C   UNL     1     -11.263  10.545  69.259  1.00  0.00    -0.262 C  
BRANCH   3   4
HETATM    4  N   UNL     1     -10.065   9.729  69.596  1.00  0.00    -0.214 NA 
HETATM    5  C   UNL     1     -10.298   8.409  70.106  1.00  0.00    -0.211 A  
HETATM    6  C   UNL     1     -11.595   7.893  70.333  1.00  0.00    -0.092 A  
HETATM    7  C   UNL     1     -11.829   6.638  70.912  1.00  0.00    -0.434 A  
HETATM    8  C   UNL     1     -10.766   5.821  71.249  1.00  0.00    -0.323 A  
HETATM    9  C   UNL     1      -9.477   6.268  71.000  1.00  0.00    -0.187 A  
HETATM   10  C   UNL     1      -9.238   7.542  70.444  1.00  0.00    -0.157 A  
HETATM   11  S   UNL     1      -7.525   7.928  70.224  1.00  0.00    -0.079 SA 
HETATM   12  C   UNL     1      -7.582   9.589  69.611  1.00  0.00    -0.103 A  
HETATM   13  C   UNL     1      -8.773  10.301  69.342  1.00  0.00    -0.156 A  
HETATM   14  C   UNL     1      -8.592  11.612  68.835  1.00  0.00     0.067 A  
HETATM   15  C   UNL     1      -7.318  12.165  68.611  1.00  0.00    -0.109 A  
HETATM   16  C   UNL     1      -6.170  11.442  68.891  1.00  0.00    -0.053 A  
HETATM   17  C   UNL     1      -6.307  10.160  69.399  1.00  0.00    -0.048 A  
BRANCH  15  18
HETATM   18  S   UNL     1      -7.167  13.775  67.858  1.00  0.00    -0.173 S  
HETATM   19  O   UNL     1      -8.294  13.950  66.968  1.00  0.00    -0.178 OA 
HETATM   20  O   UNL     1      -5.806  13.890  67.367  1.00  0.00    -0.351 OA 
BRANCH  18  21
HETATM   21  N   UNL     1      -7.339  14.839  69.172  1.00  0.00    -0.142 N  
HETATM   22  C   UNL     1      -8.352  15.899  69.041  1.00  0.00    -0.239 C  
HETATM   23  C   UNL     1      -6.099  15.293  69.826  1.00  0.00    -0.144 C  
ENDBRANCH  18  21
ENDBRANCH  15  18
ENDBRANCH   3   4
ENDBRANCH   2   3
BRANCH   2  24
HETATM   24  N   UNL     1     -12.073  13.101  69.489  1.00  0.00    -0.275 NA 
HETATM   25  C   UNL     1     -11.320  14.274  69.982  1.00  0.00    -0.165 C  
HETATM   26  C   UNL     1     -11.935  13.102  68.027  1.00  0.00    -0.304 C  
ENDBRANCH   2  24
TORSDOF 5
ENDMDL
MODEL      126
REMARK 921   NORMALIZED FREE ENERGY PREDICTED BY IDOCK:   -3.60 KCAL/MOL
REMARK 922        TOTAL FREE ENERGY PREDICTED BY IDOCK:   -5.52 KCAL/MOL
REMARK 923 INTER-LIGAND FREE ENERGY PREDICTED BY IDOCK:   -5.05 KCAL/MOL
REMARK 924 INTRA-LIGAND FREE ENERGY PREDICTED BY IDOCK:   -0.46 KCAL/MOL
REMARK 927      BINDING AFFINITY PREDICTED BY RF-SCORE:    0.00 PKD
ROOT
HETATM    1  C   UNL     1     -10.408   9.584  68.909  1.00  0.00    -0.225 C  
HETATM    2  C   UNL     1      -8.989   8.964  68.812  1.00  0.00    -0.134 C  
ENDROOT
BRANCH   2   3
HETATM    3  C   UNL     1      -8.151   9.985  67.939  1.00  0.00    -0.109 C  
BRANCH   3   4
HETATM    4  N   UNL     1      -8.408  10.043  66.475  1.00  0.00    -0.125 NA 
HETATM    5  C   UNL     1      -7.992   8.915  65.695  1.00  0.00    -0.098 A  
HETATM    6  C   UNL     1      -7.324   7.801  66.254  1.00  0.00    -0.079 A  
HETATM    7  C   UNL     1      -6.836   6.734  65.485  1.00  0.00    -0.052 A  
HETATM    8  C   UNL     1      -7.040   6.716  64.118  1.00  0.00    -0.055 A  
HETATM    9  C   UNL     1      -7.732   7.766  63.533  1.00  0.00    -0.131 A  
HETATM   10  C   UNL     1      -8.198   8.854  64.301  1.00  0.00    -0.169 A  
HETATM   11  S   UNL     1      -9.040  10.095  63.363  1.00  0.00    -0.294 SA 
HETATM   12  C   UNL     1      -9.399  11.324  64.587  1.00  0.00    -0.135 A  
HETATM   13  C   UNL     1      -9.093  11.196  65.962  1.00  0.00    -0.203 A  
HETATM   14  C   UNL     1      -9.487  12.288  66.774  1.00  0.00    -0.222 A  
HETATM   15  C   UNL     1     -10.139  13.419  66.250  1.00  0.00    -0.299 A  
HETATM   16  C   UNL     1     -10.419  13.517  64.897  1.00  0.00    -0.417 A  
HETATM   17  C   UNL     1     -10.039  12.472  64.070  1.00  0.00    -0.316 A  
BRANCH  15  18
HETATM   18  S   UNL     1     -10.714  14.702  67.349  1.00  0.00    -0.286 S  
HETATM   19  O   UNL     1     -10.277  14.362  68.686  1.00  0.00    -0.235 OA 
HETATM   20  O   UNL     1     -12.119  14.916  67.057  1.00  0.00    -0.230 OA 
BRANCH  18  21
HETATM   21  N   UNL     1      -9.858  16.075  66.829  1.00  0.00    -0.241 N  
HETATM   22  C   UNL     1      -8.406  16.083  67.068  1.00  0.00    -0.219 C  
HETATM   23  C   UNL     1     -10.497  17.383  67.059  1.00  0.00    -0.284 C  
ENDBRANCH  18  21
ENDBRANCH  15  18
ENDBRANCH   3   4
ENDBRANCH   2   3
BRANCH   2  24
HETATM   24  N   UNL     1      -8.543   8.547  70.181  1.00  0.00    -0.128 NA 
HETATM   25  C   UNL     1      -7.269   9.208  70.535  1.00  0.00    -0.097 C  
HETATM   26  C   UNL     1      -9.508   8.914  71.225  1.00  0.00    -0.272 C  
ENDBRANCH   2  24
TORSDOF 5
ENDMDL
MODEL      127
REMARK 921   NORMALIZED FREE ENERGY PREDICTED BY IDOCK:   -3.52 KCAL/MOL
REMARK 922        TOTAL FREE ENERGY PREDICTED BY IDOCK:   -5.41 KCAL/MOL
REMARK 923 INTER-LIGAND FREE ENERGY PREDICTED BY IDOCK:   -4.78 KCAL/MOL
REMARK 924 INTRA-LIGAND FREE ENERGY PREDICTED BY IDOCK:   -0.63 KCAL/MOL
REMARK 927      BINDING AFFINITY PREDICTED BY RF-SCORE:    0.00 PKD
ROOT
HETATM    1  C   UNL     1     -11.518   9.017  71.034  1.00  0.00    -0.358 C  
HETATM    2  C   UNL     1     -11.685  10.495  70.592  1.00  0.00    -0.357 C  
ENDROOT
BRANCH   2   3
HETATM    3  C   UNL     1     -11.271  10.517  69.065  1.00  0.00    -0.259 C  
BRANCH   3   4
HETATM    4  N   UNL     1     -10.004  11.200  68.684  1.00  0.00    -0.200 NA 
HETATM    5  C   UNL     1     -10.070  12.612  68.446  1.00  0.00    -0.222 A  
HETATM    6  C   UNL     1     -11.277  13.345  68.518  1.00  0.00    -0.316 A  
HETATM    7  C   UNL     1     -11.365  14.709  68.202  1.00  0.00    -0.321 A  
HETATM    8  C   UNL     1     -10.230  15.411  67.843  1.00  0.00    -0.239 A  
HETATM    9  C   UNL     1      -9.015  14.741  67.805  1.00  0.00    -0.182 A  
HETATM   10  C   UNL     1      -8.929  13.364  68.095  1.00  0.00    -0.188 A  
HETATM   11  S   UNL     1      -7.295  12.697  67.974  1.00  0.00    -0.130 SA 
HETATM   12  C   UNL     1      -7.557  10.976  68.300  1.00  0.00    -0.106 A  
HETATM   13  C   UNL     1      -8.808  10.407  68.630  1.00  0.00    -0.142 A  
HETATM   14  C   UNL     1      -8.792   9.011  68.875  1.00  0.00    -0.139 A  
HETATM   15  C   UNL     1      -7.614   8.246  68.798  1.00  0.00    -0.101 A  
HETATM   16  C   UNL     1      -6.405   8.834  68.466  1.00  0.00    -0.054 A  
HETATM   17  C   UNL     1      -6.384  10.195  68.209  1.00  0.00    -0.049 A  
BRANCH  15  18
HETATM   18  S   UNL     1      -7.647   6.517  69.237  1.00  0.00    -0.102 S  
HETATM   19  O   UNL     1      -8.948   6.232  69.802  1.00  0.00    -0.138 OA 
HETATM   20  O   UNL     1      -6.434   6.245  69.986  1.00  0.00    -0.040 OA 
BRANCH  18  21
HETATM   21  N   UNL     1      -7.520   5.730  67.735  1.00  0.00    -0.077 N  
HETATM   22  C   UNL     1      -6.164   5.372  67.285  1.00  0.00    -0.031 C  
HETATM   23  C   UNL     1      -8.386   6.224  66.651  1.00  0.00    -0.112 C  
ENDBRANCH  18  21
ENDBRANCH  15  18
ENDBRANCH   3   4
ENDBRANCH   2   3
BRANCH   2  24
HETATM   24  N   UNL     1     -13.020  10.995  71.054  1.00  0.00    -0.326 NA 
HETATM   25  C   UNL     1     -13.631  10.041  72.004  1.00  0.00    -0.269 C  
HETATM   26  C   UNL     1     -12.930  12.282  71.755  1.00  0.00    -0.325 C  
ENDBRANCH   2  24
TORSDOF 5
ENDMDL
MODEL      128
REMARK 921   NORMALIZED FREE ENERGY PREDICTED BY IDOCK:   -3.46 KCAL/MOL
REMARK 922        TOTAL FREE ENERGY PREDICTED BY IDOCK:   -5.33 KCAL/MOL
REMARK 923 INTER-LIGAND FREE ENERGY PREDICTED BY IDOCK:   -4.65 KCAL/MOL
REMARK 924 INTRA-LIGAND FREE ENERGY PREDICTED BY IDOCK:   -0.68 KCAL/MOL
REMARK 927      BINDING AFFINITY PREDICTED BY RF-SCORE:    0.00 PKD
ROOT
HETATM    1  C   UNL     1     -11.447  11.630  63.601  1.00  0.00    -0.458 C  
HETATM    2  C   UNL     1     -10.830  11.653  65.024  1.00  0.00    -0.288 C  
ENDROOT
BRANCH   2   3
HETATM    3  C   UNL     1      -9.268  11.534  64.800  1.00  0.00     0.035 C  
BRANCH   3   4
HETATM    4  N   UNL     1      -8.436  10.962  65.893  1.00  0.00    -0.164 NA 
HETATM    5  C   UNL     1      -8.114   9.568  65.806  1.00  0.00    -0.111 A  
HETATM    6  C   UNL     1      -8.585   8.736  64.764  1.00  0.00    -0.161 A  
HETATM    7  C   UNL     1      -8.346   7.355  64.719  1.00  0.00     0.000 A  
HETATM    8  C   UNL     1      -7.579   6.753  65.698  1.00  0.00    -0.090 A  
HETATM    9  C   UNL     1      -7.056   7.540  66.714  1.00  0.00    -0.083 A  
HETATM   10  C   UNL     1      -7.319   8.924  66.777  1.00  0.00    -0.082 A  
HETATM   11  S   UNL     1      -6.575   9.742  68.158  1.00  0.00    -0.060 SA 
HETATM   12  C   UNL     1      -7.169  11.402  67.987  1.00  0.00    -0.084 A  
HETATM   13  C   UNL     1      -7.981  11.854  66.923  1.00  0.00    -0.132 A  
HETATM   14  C   UNL     1      -8.327  13.228  66.967  1.00  0.00    -0.092 A  
HETATM   15  C   UNL     1      -7.889  14.082  67.994  1.00  0.00    -0.152 A  
HETATM   16  C   UNL     1      -7.097  13.606  69.027  1.00  0.00    -0.077 A  
HETATM   17  C   UNL     1      -6.749  12.265  69.024  1.00  0.00    -0.105 A  
BRANCH  15  18
HETATM   18  S   UNL     1      -8.261  15.826  67.920  1.00  0.00    -0.148 S  
HETATM   19  O   UNL     1      -7.353  16.428  66.969  1.00  0.00    -0.175 OA 
HETATM   20  O   UNL     1      -8.331  16.304  69.288  1.00  0.00    -0.228 OA 
BRANCH  18  21
HETATM   21  N   UNL     1      -9.832  15.863  67.273  1.00  0.00    -0.232 N  
HETATM   22  C   UNL     1      -9.976  16.393  65.907  1.00  0.00    -0.332 C  
HETATM   23  C   UNL     1     -10.915  16.282  68.181  1.00  0.00    -0.343 C  
ENDBRANCH  18  21
ENDBRANCH  15  18
ENDBRANCH   3   4
ENDBRANCH   2   3
BRANCH   2  24
HETATM   24  N   UNL     1     -11.430  12.788  65.798  1.00  0.00    -0.330 NA 
HETATM   25  C   UNL     1     -12.760  13.139  65.256  1.00  0.00    -0.394 C  
HETATM   26  C   UNL     1     -11.631  12.462  67.216  1.00  0.00    -0.365 C  
ENDBRANCH   2  24
TORSDOF 5
ENDMDL
MODEL      129
REMARK 921   NORMALIZED FREE ENERGY PREDICTED BY IDOCK:   -3.38 KCAL/MOL
REMARK 922        TOTAL FREE ENERGY PREDICTED BY IDOCK:   -5.23 KCAL/MOL
REMARK 923 INTER-LIGAND FREE ENERGY PREDICTED BY IDOCK:   -4.78 KCAL/MOL
REMARK 924 INTRA-LIGAND FREE ENERGY PREDICTED BY IDOCK:   -0.45 KCAL/MOL
REMARK 927      BINDING AFFINITY PREDICTED BY RF-SCORE:    0.00 PKD
ROOT
HETATM    1  C   UNL     1      -9.486   7.975  71.810  1.00  0.00    -0.223 C  
HETATM    2  C   UNL     1     -10.216   8.674  70.633  1.00  0.00    -0.198 C  
ENDROOT
BRANCH   2   3
HETATM    3  C   UNL     1     -10.847   7.497  69.783  1.00  0.00    -0.225 C  
BRANCH   3   4
HETATM    4  N   UNL     1      -9.958   6.726  68.872  1.00  0.00    -0.151 NA 
HETATM    5  C   UNL     1      -9.551   7.371  67.658  1.00  0.00    -0.138 A  
HETATM    6  C   UNL     1      -9.992   8.664  67.293  1.00  0.00    -0.282 A  
HETATM    7  C   UNL     1      -9.668   9.267  66.068  1.00  0.00    -0.359 A  
HETATM    8  C   UNL     1      -8.844   8.613  65.171  1.00  0.00    -0.147 A  
HETATM    9  C   UNL     1      -8.350   7.362  65.510  1.00  0.00    -0.139 A  
HETATM   10  C   UNL     1      -8.697   6.742  66.728  1.00  0.00    -0.122 A  
HETATM   11  S   UNL     1      -7.977   5.143  66.960  1.00  0.00    -0.100 SA 
HETATM   12  C   UNL     1      -8.677   4.627  68.503  1.00  0.00    -0.098 A  
HETATM   13  C   UNL     1      -9.538   5.420  69.295  1.00  0.00    -0.145 A  
HETATM   14  C   UNL     1      -9.968   4.822  70.506  1.00  0.00    -0.306 A  
HETATM   15  C   UNL     1      -9.562   3.533  70.896  1.00  0.00    -0.172 A  
HETATM   16  C   UNL     1      -8.721   2.779  70.094  1.00  0.00    -0.126 A  
HETATM   17  C   UNL     1      -8.290   3.326  68.896  1.00  0.00    -0.082 A  
BRANCH  15  18
HETATM   18  S   UNL     1     -10.044   2.893  72.490  1.00  0.00    -0.153 S  
HETATM   19  O   UNL     1     -10.504   1.535  72.297  1.00  0.00    -0.154 OA 
HETATM   20  O   UNL     1     -10.902   3.888  73.107  1.00  0.00    -0.186 OA 
BRANCH  18  21
HETATM   21  N   UNL     1      -8.582   2.856  73.355  1.00  0.00    -0.076 N  
HETATM   22  C   UNL     1      -8.018   1.529  73.651  1.00  0.00    -0.041 C  
HETATM   23  C   UNL     1      -8.443   3.812  74.468  1.00  0.00    -0.088 C  
ENDBRANCH  18  21
ENDBRANCH  15  18
ENDBRANCH   3   4
ENDBRANCH   2   3
BRANCH   2  24
HETATM   24  N   UNL     1     -11.055   9.792  71.174  1.00  0.00    -0.360 NA 
HETATM   25  C   UNL     1     -11.435  10.725  70.091  1.00  0.00    -0.331 C  
HETATM   26  C   UNL     1     -12.309   9.319  71.774  1.00  0.00    -0.379 C  
ENDBRANCH   2  24
TORSDOF 5
ENDMDL
MODEL      130
REMARK 921   NORMALIZED FREE ENERGY PREDICTED BY IDOCK:   -3.38 KCAL/MOL
REMARK 922        TOTAL FREE ENERGY PREDICTED BY IDOCK:   -5.23 KCAL/MOL
REMARK 923 INTER-LIGAND FREE ENERGY PREDICTED BY IDOCK:   -5.29 KCAL/MOL
REMARK 924 INTRA-LIGAND FREE ENERGY PREDICTED BY IDOCK:    0.07 KCAL/MOL
REMARK 927      BINDING AFFINITY PREDICTED BY RF-SCORE:    0.00 PKD
ROOT
HETATM    1  C   UNL     1      -8.215  14.261  68.941  1.00  0.00    -0.053 C  
HETATM    2  C   UNL     1      -7.383  13.031  68.489  1.00  0.00    -0.115 C  
ENDROOT
BRANCH   2   3
HETATM    3  C   UNL     1      -8.441  11.873  68.277  1.00  0.00    -0.161 C  
BRANCH   3   4
HETATM    4  N   UNL     1      -8.362  11.061  67.032  1.00  0.00    -0.132 NA 
HETATM    5  C   UNL     1      -7.654   9.817  67.110  1.00  0.00    -0.092 A  
HETATM    6  C   UNL     1      -7.011   9.373  68.288  1.00  0.00    -0.071 A  
HETATM    7  C   UNL     1      -6.245   8.200  68.347  1.00  0.00    -0.049 A  
HETATM    8  C   UNL     1      -6.128   7.392  67.232  1.00  0.00    -0.046 A  
HETATM    9  C   UNL     1      -6.782   7.765  66.067  1.00  0.00    -0.049 A  
HETATM   10  C   UNL     1      -7.530   8.958  65.997  1.00  0.00    -0.090 A  
HETATM   11  S   UNL     1      -8.269   9.260  64.418  1.00  0.00    -0.161 SA 
HETATM   12  C   UNL     1      -9.033  10.841  64.648  1.00  0.00    -0.175 A  
HETATM   13  C   UNL     1      -9.037  11.558  65.866  1.00  0.00    -0.177 A  
HETATM   14  C   UNL     1      -9.725  12.796  65.838  1.00  0.00    -0.203 A  
HETATM   15  C   UNL     1     -10.364  13.277  64.681  1.00  0.00    -0.375 A  
HETATM   16  C   UNL     1     -10.337  12.553  63.500  1.00  0.00    -0.311 A  
HETATM   17  C   UNL     1      -9.663  11.342  63.487  1.00  0.00    -0.364 A  
BRANCH  15  18
HETATM   18  S   UNL     1     -11.314  14.785  64.751  1.00  0.00    -0.379 S  
HETATM   19  O   UNL     1     -12.557  14.554  64.048  1.00  0.00    -0.797 OA 
HETATM   20  O   UNL     1     -10.428  15.866  64.360  1.00  0.00    -0.206 OA 
BRANCH  18  21
HETATM   21  N   UNL     1     -11.649  14.960  66.409  1.00  0.00    -0.292 N  
HETATM   22  C   UNL     1     -10.772  15.863  67.172  1.00  0.00    -0.301 C  
HETATM   23  C   UNL     1     -12.014  13.737  67.145  1.00  0.00    -0.405 C  
ENDBRANCH  18  21
ENDBRANCH  15  18
ENDBRANCH   3   4
ENDBRANCH   2   3
BRANCH   2  24
HETATM   24  N   UNL     1      -6.444  13.451  67.399  1.00  0.00    -0.271 NA 
HETATM   25  C   UNL     1      -6.041  14.862  67.576  1.00  0.00     0.026 C  
HETATM   26  C   UNL     1      -5.206  12.662  67.385  1.00  0.00    -0.043 C  
ENDBRANCH   2  24
TORSDOF 5
ENDMDL
MODEL      131
REMARK 921   NORMALIZED FREE ENERGY PREDICTED BY IDOCK:   -3.38 KCAL/MOL
REMARK 922        TOTAL FREE ENERGY PREDICTED BY IDOCK:   -5.22 KCAL/MOL
REMARK 923 INTER-LIGAND FREE ENERGY PREDICTED BY IDOCK:   -4.86 KCAL/MOL
REMARK 924 INTRA-LIGAND FREE ENERGY PREDICTED BY IDOCK:   -0.37 KCAL/MOL
REMARK 927      BINDING AFFINITY PREDICTED BY RF-SCORE:    0.00 PKD
ROOT
HETATM    1  C   UNL     1      -9.197  11.043  64.952  1.00  0.00    -0.210 C  
HETATM    2  C   UNL     1     -10.689  10.936  65.362  1.00  0.00    -0.119 C  
ENDROOT
BRANCH   2   3
HETATM    3  C   UNL     1     -10.714  11.247  66.914  1.00  0.00    -0.273 C  
BRANCH   3   4
HETATM    4  N   UNL     1      -9.438  11.156  67.675  1.00  0.00    -0.164 NA 
HETATM    5  C   UNL     1      -8.716  12.377  67.883  1.00  0.00    -0.175 A  
HETATM    6  C   UNL     1      -9.146  13.620  67.365  1.00  0.00    -0.222 A  
HETATM    7  C   UNL     1      -8.401  14.802  67.491  1.00  0.00    -0.197 A  
HETATM    8  C   UNL     1      -7.207  14.797  68.187  1.00  0.00    -0.125 A  
HETATM    9  C   UNL     1      -6.770  13.609  68.753  1.00  0.00    -0.104 A  
HETATM   10  C   UNL     1      -7.503  12.413  68.604  1.00  0.00    -0.095 A  
HETATM   11  S   UNL     1      -6.766  11.007  69.385  1.00  0.00    -0.125 SA 
HETATM   12  C   UNL     1      -7.867   9.695  68.933  1.00  0.00    -0.081 A  
HETATM   13  C   UNL     1      -9.051   9.869  68.181  1.00  0.00    -0.121 A  
HETATM   14  C   UNL     1      -9.800   8.689  67.949  1.00  0.00    -0.211 A  
HETATM   15  C   UNL     1      -9.395   7.432  68.435  1.00  0.00    -0.144 A  
HETATM   16  C   UNL     1      -8.226   7.295  69.165  1.00  0.00    -0.122 A  
HETATM   17  C   UNL     1      -7.461   8.426  69.402  1.00  0.00    -0.089 A  
BRANCH  15  18
HETATM   18  S   UNL     1     -10.448   6.010  68.209  1.00  0.00    -0.258 S  
HETATM   19  O   UNL     1     -11.522   6.396  67.319  1.00  0.00    -0.168 OA 
HETATM   20  O   UNL     1     -10.731   5.475  69.528  1.00  0.00    -0.310 OA 
BRANCH  18  21
HETATM   21  N   UNL     1      -9.442   4.903  67.402  1.00  0.00    -0.132 N  
HETATM   22  C   UNL     1      -9.722   4.668  65.975  1.00  0.00    -0.202 C  
HETATM   23  C   UNL     1      -9.077   3.679  68.136  1.00  0.00    -0.149 C  
ENDBRANCH  18  21
ENDBRANCH  15  18
ENDBRANCH   3   4
ENDBRANCH   2   3
BRANCH   2  24
HETATM   24  N   UNL     1     -11.520  11.717  64.389  1.00  0.00    -0.305 NA 
HETATM   25  C   UNL     1     -12.068  12.930  65.033  1.00  0.00    -0.435 C  
HETATM   26  C   UNL     1     -10.749  12.175  63.227  1.00  0.00    -0.318 C  
ENDBRANCH   2  24
TORSDOF 5
ENDMDL
MODEL      132
REMARK 921   NORMALIZED FREE ENERGY PREDICTED BY IDOCK:   -3.34 KCAL/MOL
REMARK 922        TOTAL FREE ENERGY PREDICTED BY IDOCK:   -5.18 KCAL/MOL
REMARK 923 INTER-LIGAND FREE ENERGY PREDICTED BY IDOCK:   -5.13 KCAL/MOL
REMARK 924 INTRA-LIGAND FREE ENERGY PREDICTED BY IDOCK:   -0.06 KCAL/MOL
REMARK 927      BINDING AFFINITY PREDICTED BY RF-SCORE:    0.00 PKD
ROOT
HETATM    1  C   UNL     1      -8.129  13.472  68.747  1.00  0.00     0.024 C  
HETATM    2  C   UNL     1      -9.597  13.532  68.250  1.00  0.00    -0.218 C  
ENDROOT
BRANCH   2   3
HETATM    3  C   UNL     1     -10.169  12.073  68.472  1.00  0.00    -0.212 C  
BRANCH   3   4
HETATM    4  N   UNL     1      -9.893  11.039  67.438  1.00  0.00    -0.172 NA 
HETATM    5  C   UNL     1     -10.043  11.432  66.067  1.00  0.00    -0.234 A  
HETATM    6  C   UNL     1     -10.474  12.722  65.683  1.00  0.00    -0.297 A  
HETATM    7  C   UNL     1     -10.705  13.087  64.348  1.00  0.00    -0.414 A  
HETATM    8  C   UNL     1     -10.469  12.181  63.332  1.00  0.00    -0.450 A  
HETATM    9  C   UNL     1     -10.000  10.917  63.661  1.00  0.00    -0.415 A  
HETATM   10  C   UNL     1      -9.793  10.539  65.004  1.00  0.00    -0.306 A  
HETATM   11  S   UNL     1      -9.209   8.882  65.209  1.00  0.00     0.000 SA 
HETATM   12  C   UNL     1      -9.149   8.712  66.972  1.00  0.00    -0.138 A  
HETATM   13  C   UNL     1      -9.455   9.747  67.885  1.00  0.00    -0.130 A  
HETATM   14  C   UNL     1      -9.321   9.404  69.254  1.00  0.00    -0.167 A  
HETATM   15  C   UNL     1      -8.910   8.127  69.674  1.00  0.00    -0.143 A  
HETATM   16  C   UNL     1      -8.623   7.133  68.753  1.00  0.00    -0.125 A  
HETATM   17  C   UNL     1      -8.754   7.427  67.405  1.00  0.00    -0.121 A  
BRANCH  15  18
HETATM   18  S   UNL     1      -8.646   7.804  71.409  1.00  0.00    -0.124 S  
HETATM   19  O   UNL     1      -9.224   6.511  71.707  1.00  0.00    -0.150 OA 
HETATM   20  O   UNL     1      -9.065   8.990  72.132  1.00  0.00    -0.372 OA 
BRANCH  18  21
HETATM   21  N   UNL     1      -6.955   7.688  71.533  1.00  0.00    -0.056 N  
HETATM   22  C   UNL     1      -6.422   6.545  72.294  1.00  0.00    -0.058 C  
HETATM   23  C   UNL     1      -6.218   8.942  71.766  1.00  0.00    -0.072 C  
ENDBRANCH  18  21
ENDBRANCH  15  18
ENDBRANCH   3   4
ENDBRANCH   2   3
BRANCH   2  24
HETATM   24  N   UNL     1     -10.264  14.737  68.840  1.00  0.00    -0.233 NA 
HETATM   25  C   UNL     1      -9.768  15.972  68.196  1.00  0.00    -0.217 C  
HETATM   26  C   UNL     1     -11.720  14.726  68.654  1.00  0.00    -0.325 C  
ENDBRANCH   2  24
TORSDOF 5
ENDMDL
MODEL      133
REMARK 921   NORMALIZED FREE ENERGY PREDICTED BY IDOCK:   -3.32 KCAL/MOL
REMARK 922        TOTAL FREE ENERGY PREDICTED BY IDOCK:   -5.15 KCAL/MOL
REMARK 923 INTER-LIGAND FREE ENERGY PREDICTED BY IDOCK:   -5.03 KCAL/MOL
REMARK 924 INTRA-LIGAND FREE ENERGY PREDICTED BY IDOCK:   -0.12 KCAL/MOL
REMARK 927      BINDING AFFINITY PREDICTED BY RF-SCORE:    0.00 PKD
ROOT
HETATM    1  C   UNL     1      -7.873  11.755  68.438  1.00  0.00    -0.141 C  
HETATM    2  C   UNL     1      -9.123  10.839  68.518  1.00  0.00    -0.170 C  
ENDROOT
BRANCH   2   3
HETATM    3  C   UNL     1      -8.793   9.790  69.657  1.00  0.00    -0.211 C  
BRANCH   3   4
HETATM    4  N   UNL     1      -9.297   8.398  69.506  1.00  0.00    -0.157 NA 
HETATM    5  C   UNL     1      -9.912   7.800  70.654  1.00  0.00    -0.186 A  
HETATM    6  C   UNL     1     -10.012   8.459  71.901  1.00  0.00    -0.331 A  
HETATM    7  C   UNL     1     -10.534   7.848  73.051  1.00  0.00    -0.410 A  
HETATM    8  C   UNL     1     -11.024   6.558  72.988  1.00  0.00    -0.270 A  
HETATM    9  C   UNL     1     -10.990   5.890  71.773  1.00  0.00    -0.327 A  
HETATM   10  C   UNL     1     -10.439   6.492  70.622  1.00  0.00    -0.214 A  
HETATM   11  S   UNL     1     -10.475   5.467  69.180  1.00  0.00    -0.162 SA 
HETATM   12  C   UNL     1      -9.645   6.468  67.977  1.00  0.00    -0.119 A  
HETATM   13  C   UNL     1      -9.173   7.779  68.217  1.00  0.00    -0.139 A  
HETATM   14  C   UNL     1      -8.556   8.411  67.109  1.00  0.00    -0.123 A  
HETATM   15  C   UNL     1      -8.426   7.781  65.858  1.00  0.00    -0.142 A  
HETATM   16  C   UNL     1      -8.894   6.493  65.658  1.00  0.00    -0.057 A  
HETATM   17  C   UNL     1      -9.493   5.838  66.722  1.00  0.00    -0.154 A  
BRANCH  15  18
HETATM   18  S   UNL     1      -7.747   8.682  64.475  1.00  0.00    -0.131 S  
HETATM   19  O   UNL     1      -7.292   7.714  63.501  1.00  0.00    -0.078 OA 
HETATM   20  O   UNL     1      -6.839   9.675  65.018  1.00  0.00    -0.093 OA 
BRANCH  18  21
HETATM   21  N   UNL     1      -9.096   9.500  63.842  1.00  0.00    -0.196 N  
HETATM   22  C   UNL     1      -9.167   9.630  62.377  1.00  0.00    -0.223 C  
HETATM   23  C   UNL     1      -9.537  10.710  64.559  1.00  0.00    -0.286 C  
ENDBRANCH  18  21
ENDBRANCH  15  18
ENDBRANCH   3   4
ENDBRANCH   2   3
BRANCH   2  24
HETATM   24  N   UNL     1     -10.353  11.693  68.566  1.00  0.00    -0.207 NA 
HETATM   25  C   UNL     1     -10.082  13.026  67.988  1.00  0.00    -0.235 C  
HETATM   26  C   UNL     1     -11.467  11.124  67.797  1.00  0.00    -0.272 C  
ENDBRANCH   2  24
TORSDOF 5
ENDMDL
MODEL      134
REMARK 921   NORMALIZED FREE ENERGY PREDICTED BY IDOCK:   -3.31 KCAL/MOL
REMARK 922        TOTAL FREE ENERGY PREDICTED BY IDOCK:   -5.14 KCAL/MOL
REMARK 923 INTER-LIGAND FREE ENERGY PREDICTED BY IDOCK:   -4.49 KCAL/MOL
REMARK 924 INTRA-LIGAND FREE ENERGY PREDICTED BY IDOCK:   -0.65 KCAL/MOL
REMARK 927      BINDING AFFINITY PREDICTED BY RF-SCORE:    0.00 PKD
ROOT
HETATM    1  C   UNL     1     -12.472  10.842  70.857  1.00  0.00    -0.507 C  
HETATM    2  C   UNL     1     -11.289  10.962  69.861  1.00  0.00    -0.305 C  
ENDROOT
BRANCH   2   3
HETATM    3  C   UNL     1     -10.780   9.479  69.646  1.00  0.00    -0.238 C  
BRANCH   3   4
HETATM    4  N   UNL     1      -9.536   9.048  70.342  1.00  0.00    -0.192 NA 
HETATM    5  C   UNL     1      -9.693   8.338  71.576  1.00  0.00    -0.191 A  
HETATM    6  C   UNL     1     -10.957   8.080  72.157  1.00  0.00    -0.357 A  
HETATM    7  C   UNL     1     -11.114   7.462  73.406  1.00  0.00    -0.181 A  
HETATM    8  C   UNL     1     -10.006   7.032  74.111  1.00  0.00    -0.305 A  
HETATM    9  C   UNL     1      -8.748   7.222  73.557  1.00  0.00    -0.197 A  
HETATM   10  C   UNL     1      -8.586   7.868  72.314  1.00  0.00    -0.145 A  
HETATM   11  S   UNL     1      -6.903   8.027  71.793  1.00  0.00    -0.073 SA 
HETATM   12  C   UNL     1      -7.053   8.941  70.283  1.00  0.00    -0.049 A  
HETATM   13  C   UNL     1      -8.281   9.333  69.705  1.00  0.00    -0.126 A  
HETATM   14  C   UNL     1      -8.176  10.040  68.481  1.00  0.00    -0.108 A  
HETATM   15  C   UNL     1      -6.937  10.328  67.881  1.00  0.00    -0.083 A  
HETATM   16  C   UNL     1      -5.750   9.934  68.477  1.00  0.00    -0.042 A  
HETATM   17  C   UNL     1      -5.813   9.251  69.681  1.00  0.00    -0.033 A  
BRANCH  15  18
HETATM   18  S   UNL     1      -6.885  11.114  66.281  1.00  0.00     0.005 S  
HETATM   19  O   UNL     1      -5.687  11.924  66.228  1.00  0.00    -0.206 OA 
HETATM   20  O   UNL     1      -8.191  11.702  66.052  1.00  0.00    -0.007 OA 
BRANCH  18  21
HETATM   21  N   UNL     1      -6.706   9.807  65.209  1.00  0.00    -0.092 N  
HETATM   22  C   UNL     1      -5.606   9.892  64.234  1.00  0.00    -0.092 C  
HETATM   23  C   UNL     1      -7.943   9.235  64.647  1.00  0.00    -0.125 C  
ENDBRANCH  18  21
ENDBRANCH  15  18
ENDBRANCH   3   4
ENDBRANCH   2   3
BRANCH   2  24
HETATM   24  N   UNL     1     -11.705  11.826  68.710  1.00  0.00    -0.307 NA 
HETATM   25  C   UNL     1     -11.016  13.133  68.767  1.00  0.00    -0.262 C  
HETATM   26  C   UNL     1     -11.370  11.235  67.408  1.00  0.00    -0.276 C  
ENDBRANCH   2  24
TORSDOF 5
ENDMDL
MODEL      135
REMARK 921   NORMALIZED FREE ENERGY PREDICTED BY IDOCK:   -3.24 KCAL/MOL
REMARK 922        TOTAL FREE ENERGY PREDICTED BY IDOCK:   -5.05 KCAL/MOL
REMARK 923 INTER-LIGAND FREE ENERGY PREDICTED BY IDOCK:   -4.60 KCAL/MOL
REMARK 924 INTRA-LIGAND FREE ENERGY PREDICTED BY IDOCK:   -0.45 KCAL/MOL
REMARK 927      BINDING AFFINITY PREDICTED BY RF-SCORE:    0.00 PKD
ROOT
HETATM    1  C   UNL     1     -10.356   6.732  67.197  1.00  0.00    -0.327 C  
HETATM    2  C   UNL     1      -9.155   7.711  67.276  1.00  0.00    -0.127 C  
ENDROOT
BRANCH   2   3
HETATM    3  C   UNL     1      -9.368   8.518  68.621  1.00  0.00    -0.142 C  
BRANCH   3   4
HETATM    4  N   UNL     1      -8.374   9.565  68.984  1.00  0.00    -0.121 NA 
HETATM    5  C   UNL     1      -7.406   9.225  69.985  1.00  0.00    -0.083 A  
HETATM    6  C   UNL     1      -7.395   7.976  70.648  1.00  0.00    -0.056 A  
HETATM    7  C   UNL     1      -6.505   7.668  71.687  1.00  0.00    -0.039 A  
HETATM    8  C   UNL     1      -5.552   8.589  72.079  1.00  0.00    -0.046 A  
HETATM    9  C   UNL     1      -5.495   9.810  71.423  1.00  0.00    -0.074 A  
HETATM   10  C   UNL     1      -6.407  10.132  70.396  1.00  0.00    -0.121 A  
HETATM   11  S   UNL     1      -6.178  11.743  69.702  1.00  0.00    -0.133 SA 
HETATM   12  C   UNL     1      -7.511  11.854  68.540  1.00  0.00    -0.117 A  
HETATM   13  C   UNL     1      -8.429  10.813  68.276  1.00  0.00    -0.130 A  
HETATM   14  C   UNL     1      -9.407  11.104  67.293  1.00  0.00    -0.170 A  
HETATM   15  C   UNL     1      -9.458  12.340  66.623  1.00  0.00    -0.226 A  
HETATM   16  C   UNL     1      -8.546  13.342  66.910  1.00  0.00    -0.114 A  
HETATM   17  C   UNL     1      -7.582  13.098  67.875  1.00  0.00    -0.147 A  
BRANCH  15  18
HETATM   18  S   UNL     1     -10.640  12.592  65.311  1.00  0.00    -0.299 S  
HETATM   19  O   UNL     1     -10.895  11.307  64.697  1.00  0.00    -0.317 OA 
HETATM   20  O   UNL     1     -10.167  13.713  64.521  1.00  0.00    -0.402 OA 
BRANCH  18  21
HETATM   21  N   UNL     1     -12.041  13.090  66.136  1.00  0.00    -0.422 N  
HETATM   22  C   UNL     1     -13.030  13.858  65.362  1.00  0.00    -0.326 C  
HETATM   23  C   UNL     1     -11.860  13.586  67.512  1.00  0.00    -0.368 C  
ENDBRANCH  18  21
ENDBRANCH  15  18
ENDBRANCH   3   4
ENDBRANCH   2   3
BRANCH   2  24
HETATM   24  N   UNL     1      -7.890   6.956  67.002  1.00  0.00    -0.110 NA 
HETATM   25  C   UNL     1      -8.118   5.915  65.978  1.00  0.00    -0.115 C  
HETATM   26  C   UNL     1      -6.817   7.818  66.488  1.00  0.00    -0.066 C  
ENDBRANCH   2  24
TORSDOF 5
ENDMDL
MODEL      136
REMARK 921   NORMALIZED FREE ENERGY PREDICTED BY IDOCK:   -3.22 KCAL/MOL
REMARK 922        TOTAL FREE ENERGY PREDICTED BY IDOCK:   -5.03 KCAL/MOL
REMARK 923 INTER-LIGAND FREE ENERGY PREDICTED BY IDOCK:   -4.31 KCAL/MOL
REMARK 924 INTRA-LIGAND FREE ENERGY PREDICTED BY IDOCK:   -0.72 KCAL/MOL
REMARK 927      BINDING AFFINITY PREDICTED BY RF-SCORE:    0.00 PKD
ROOT
HETATM    1  C   UNL     1     -11.019   6.794  67.053  1.00  0.00    -0.439 C  
HETATM    2  C   UNL     1     -10.171   8.071  66.812  1.00  0.00    -0.297 C  
ENDROOT
BRANCH   2   3
HETATM    3  C   UNL     1     -10.337   8.931  68.130  1.00  0.00    -0.212 C  
BRANCH   3   4
HETATM    4  N   UNL     1      -9.111   9.435  68.808  1.00  0.00    -0.131 NA 
HETATM    5  C   UNL     1      -8.614  10.712  68.389  1.00  0.00    -0.134 A  
HETATM    6  C   UNL     1      -9.212  11.465  67.352  1.00  0.00    -0.164 A  
HETATM    7  C   UNL     1      -8.681  12.674  66.880  1.00  0.00    -0.175 A  
HETATM    8  C   UNL     1      -7.545  13.207  67.461  1.00  0.00    -0.166 A  
HETATM    9  C   UNL     1      -6.953  12.525  68.514  1.00  0.00    -0.086 A  
HETATM   10  C   UNL     1      -7.469  11.295  68.972  1.00  0.00    -0.116 A  
HETATM   11  S   UNL     1      -6.558  10.579  70.310  1.00  0.00    -0.094 SA 
HETATM   12  C   UNL     1      -7.399   9.042  70.568  1.00  0.00    -0.086 A  
HETATM   13  C   UNL     1      -8.549   8.630  69.856  1.00  0.00    -0.131 A  
HETATM   14  C   UNL     1      -9.078   7.371  70.235  1.00  0.00    -0.151 A  
HETATM   15  C   UNL     1      -8.501   6.588  71.251  1.00  0.00    -0.126 A  
HETATM   16  C   UNL     1      -7.371   7.017  71.926  1.00  0.00    -0.086 A  
HETATM   17  C   UNL     1      -6.819   8.239  71.574  1.00  0.00    -0.066 A  
BRANCH  15  18
HETATM   18  S   UNL     1      -9.291   5.070  71.759  1.00  0.00    -0.150 S  
HETATM   19  O   UNL     1      -8.318   4.297  72.500  1.00  0.00    -0.098 OA 
HETATM   20  O   UNL     1      -9.945   4.518  70.587  1.00  0.00    -0.212 OA 
BRANCH  18  21
HETATM   21  N   UNL     1     -10.499   5.598  72.831  1.00  0.00    -0.201 N  
HETATM   22  C   UNL     1     -10.877   4.673  73.913  1.00  0.00    -0.291 C  
HETATM   23  C   UNL     1     -11.648   6.308  72.241  1.00  0.00    -0.309 C  
ENDBRANCH  18  21
ENDBRANCH  15  18
ENDBRANCH   3   4
ENDBRANCH   2   3
BRANCH   2  24
HETATM   24  N   UNL     1      -8.821   7.671  66.298  1.00  0.00    -0.151 NA 
HETATM   25  C   UNL     1      -8.882   6.335  65.667  1.00  0.00    -0.074 C  
HETATM   26  C   UNL     1      -8.310   8.592  65.275  1.00  0.00    -0.159 C  
ENDBRANCH   2  24
TORSDOF 5
ENDMDL
MODEL      137
REMARK 921   NORMALIZED FREE ENERGY PREDICTED BY IDOCK:   -3.16 KCAL/MOL
REMARK 922        TOTAL FREE ENERGY PREDICTED BY IDOCK:   -4.95 KCAL/MOL
REMARK 923 INTER-LIGAND FREE ENERGY PREDICTED BY IDOCK:   -4.82 KCAL/MOL
REMARK 924 INTRA-LIGAND FREE ENERGY PREDICTED BY IDOCK:   -0.12 KCAL/MOL
REMARK 927      BINDING AFFINITY PREDICTED BY RF-SCORE:    0.00 PKD
ROOT
HETATM    1  C   UNL     1      -7.318  17.312  69.349  1.00  0.00     0.031 C  
HETATM    2  C   UNL     1      -5.974  17.233  68.576  1.00  0.00    -0.156 C  
ENDROOT
BRANCH   2   3
HETATM    3  C   UNL     1      -6.373  16.841  67.095  1.00  0.00    -0.188 C  
BRANCH   3   4
HETATM    4  N   UNL     1      -7.802  16.551  66.799  1.00  0.00    -0.231 NA 
HETATM    5  C   UNL     1      -8.631  17.662  66.436  1.00  0.00    -0.238 A  
HETATM    6  C   UNL     1      -8.155  18.993  66.396  1.00  0.00    -0.308 A  
HETATM    7  C   UNL     1      -8.980  20.095  66.127  1.00  0.00    -0.273 A  
HETATM    8  C   UNL     1     -10.318  19.904  65.840  1.00  0.00    -0.567 A  
HETATM    9  C   UNL     1     -10.818  18.610  65.821  1.00  0.00    -0.093 A  
HETATM   10  C   UNL     1      -9.997  17.503  66.119  1.00  0.00    -0.270 A  
HETATM   11  S   UNL     1     -10.830  15.944  66.059  1.00  0.00    -0.164 SA 
HETATM   12  C   UNL     1      -9.564  14.812  66.563  1.00  0.00    -0.284 A  
HETATM   13  C   UNL     1      -8.230  15.181  66.851  1.00  0.00    -0.199 A  
HETATM   14  C   UNL     1      -7.372  14.114  67.215  1.00  0.00    -0.035 A  
HETATM   15  C   UNL     1      -7.814  12.781  67.281  1.00  0.00    -0.146 A  
HETATM   16  C   UNL     1      -9.130  12.452  66.997  1.00  0.00    -0.207 A  
HETATM   17  C   UNL     1     -10.002  13.472  66.648  1.00  0.00    -0.282 A  
BRANCH  15  18
HETATM   18  S   UNL     1      -6.650  11.474  67.627  1.00  0.00    -0.086 S  
HETATM   19  O   UNL     1      -5.729  11.962  68.631  1.00  0.00    -0.052 OA 
HETATM   20  O   UNL     1      -6.167  10.983  66.350  1.00  0.00    -0.116 OA 
BRANCH  18  21
HETATM   21  N   UNL     1      -7.618  10.260  68.320  1.00  0.00    -0.090 N  
HETATM   22  C   UNL     1      -7.653  10.197  69.790  1.00  0.00    -0.170 C  
HETATM   23  C   UNL     1      -7.584   8.935  67.677  1.00  0.00    -0.093 C  
ENDBRANCH  18  21
ENDBRANCH  15  18
ENDBRANCH   3   4
ENDBRANCH   2   3
BRANCH   2  24
HETATM   24  N   UNL     1      -5.166  18.458  68.876  1.00  0.00    -0.186 NA 
HETATM   25  C   UNL     1      -5.163  19.375  67.716  1.00  0.00    -0.173 C  
HETATM   26  C   UNL     1      -5.699  19.224  70.010  1.00  0.00    -0.249 C  
ENDBRANCH   2  24
TORSDOF 5
ENDMDL
MODEL      138
REMARK 921   NORMALIZED FREE ENERGY PREDICTED BY IDOCK:   -3.09 KCAL/MOL
REMARK 922        TOTAL FREE ENERGY PREDICTED BY IDOCK:   -4.86 KCAL/MOL
REMARK 923 INTER-LIGAND FREE ENERGY PREDICTED BY IDOCK:   -4.04 KCAL/MOL
REMARK 924 INTRA-LIGAND FREE ENERGY PREDICTED BY IDOCK:   -0.82 KCAL/MOL
REMARK 927      BINDING AFFINITY PREDICTED BY RF-SCORE:    0.00 PKD
ROOT
HETATM    1  C   UNL     1      -8.217   5.397  63.489  1.00  0.00    -0.121 C  
HETATM    2  C   UNL     1      -7.940   4.988  64.959  1.00  0.00    -0.101 C  
ENDROOT
BRANCH   2   3
HETATM    3  C   UNL     1      -9.356   5.009  65.667  1.00  0.00    -0.154 C  
BRANCH   3   4
HETATM    4  N   UNL     1      -9.421   5.370  67.110  1.00  0.00    -0.119 NA 
HETATM    5  C   UNL     1      -9.408   4.291  68.053  1.00  0.00    -0.152 A  
HETATM    6  C   UNL     1      -9.380   2.932  67.663  1.00  0.00    -0.234 A  
HETATM    7  C   UNL     1      -9.455   1.871  68.577  1.00  0.00    -0.226 A  
HETATM    8  C   UNL     1      -9.515   2.128  69.934  1.00  0.00    -0.120 A  
HETATM    9  C   UNL     1      -9.497   3.447  70.364  1.00  0.00    -0.245 A  
HETATM   10  C   UNL     1      -9.451   4.516  69.445  1.00  0.00    -0.174 A  
HETATM   11  S   UNL     1      -9.454   6.118  70.196  1.00  0.00    -0.159 SA 
HETATM   12  C   UNL     1      -9.483   7.199  68.793  1.00  0.00    -0.141 A  
HETATM   13  C   UNL     1      -9.444   6.765  67.448  1.00  0.00    -0.134 A  
HETATM   14  C   UNL     1      -9.455   7.798  66.478  1.00  0.00    -0.262 A  
HETATM   15  C   UNL     1      -9.498   9.160  66.828  1.00  0.00    -0.175 A  
HETATM   16  C   UNL     1      -9.541   9.552  68.156  1.00  0.00    -0.153 A  
HETATM   17  C   UNL     1      -9.544   8.569  69.133  1.00  0.00    -0.167 A  
BRANCH  15  18
HETATM   18  S   UNL     1      -9.386  10.408  65.559  1.00  0.00    -0.216 S  
HETATM   19  O   UNL     1      -8.729  11.562  66.134  1.00  0.00    -0.186 OA 
HETATM   20  O   UNL     1     -10.702  10.524  64.958  1.00  0.00    -0.156 OA 
BRANCH  18  21
HETATM   21  N   UNL     1      -8.349   9.706  64.410  1.00  0.00    -0.155 N  
HETATM   22  C   UNL     1      -6.925  10.073  64.488  1.00  0.00    -0.136 C  
HETATM   23  C   UNL     1      -8.853   9.611  63.029  1.00  0.00    -0.243 C  
ENDBRANCH  18  21
ENDBRANCH  15  18
ENDBRANCH   3   4
ENDBRANCH   2   3
BRANCH   2  24
HETATM   24  N   UNL     1      -7.072   3.766  64.971  1.00  0.00    -0.064 NA 
HETATM   25  C   UNL     1      -6.258   3.696  63.738  1.00  0.00    -0.018 C  
HETATM   26  C   UNL     1      -6.127   3.755  66.095  1.00  0.00    -0.028 C  
ENDBRANCH   2  24
TORSDOF 5
ENDMDL
MODEL      139
REMARK 921   NORMALIZED FREE ENERGY PREDICTED BY IDOCK:   -3.07 KCAL/MOL
REMARK 922        TOTAL FREE ENERGY PREDICTED BY IDOCK:   -4.83 KCAL/MOL
REMARK 923 INTER-LIGAND FREE ENERGY PREDICTED BY IDOCK:   -4.66 KCAL/MOL
REMARK 924 INTRA-LIGAND FREE ENERGY PREDICTED BY IDOCK:   -0.17 KCAL/MOL
REMARK 927      BINDING AFFINITY PREDICTED BY RF-SCORE:    0.00 PKD
ROOT
HETATM    1  C   UNL     1     -11.775  10.944  68.366  1.00  0.00    -0.290 C  
HETATM    2  C   UNL     1     -10.327  10.983  67.811  1.00  0.00    -0.188 C  
ENDROOT
BRANCH   2   3
HETATM    3  C   UNL     1     -10.237   9.762  66.808  1.00  0.00    -0.233 C  
BRANCH   3   4
HETATM    4  N   UNL     1      -9.035   8.886  66.863  1.00  0.00    -0.125 NA 
HETATM    5  C   UNL     1      -8.322   8.681  65.636  1.00  0.00    -0.145 A  
HETATM    6  C   UNL     1      -8.740   9.235  64.404  1.00  0.00    -0.211 A  
HETATM    7  C   UNL     1      -8.098   8.968  63.186  1.00  0.00    -0.169 A  
HETATM    8  C   UNL     1      -6.972   8.166  63.158  1.00  0.00    -0.086 A  
HETATM    9  C   UNL     1      -6.499   7.640  64.351  1.00  0.00    -0.048 A  
HETATM   10  C   UNL     1      -7.160   7.884  65.573  1.00  0.00    -0.060 A  
HETATM   11  S   UNL     1      -6.406   7.108  66.973  1.00  0.00    -0.055 SA 
HETATM   12  C   UNL     1      -7.514   7.532  68.289  1.00  0.00    -0.109 A  
HETATM   13  C   UNL     1      -8.654   8.354  68.140  1.00  0.00    -0.139 A  
HETATM   14  C   UNL     1      -9.392   8.585  69.328  1.00  0.00    -0.154 A  
HETATM   15  C   UNL     1      -9.015   8.039  70.568  1.00  0.00    -0.152 A  
HETATM   16  C   UNL     1      -7.894   7.232  70.678  1.00  0.00    -0.094 A  
HETATM   17  C   UNL     1      -7.154   6.974  69.536  1.00  0.00    -0.071 A  
BRANCH  15  18
HETATM   18  S   UNL     1      -9.921   8.471  72.042  1.00  0.00    -0.327 S  
HETATM   19  O   UNL     1     -10.811   9.562  71.707  1.00  0.00    -0.298 OA 
HETATM   20  O   UNL     1      -8.953   8.603  73.115  1.00  0.00    -0.310 OA 
BRANCH  18  21
HETATM   21  N   UNL     1     -10.853   7.082  72.350  1.00  0.00    -0.229 N  
HETATM   22  C   UNL     1     -12.225   7.071  71.815  1.00  0.00    -0.351 C  
HETATM   23  C   UNL     1     -10.744   6.493  73.696  1.00  0.00    -0.222 C  
ENDBRANCH  18  21
ENDBRANCH  15  18
ENDBRANCH   3   4
ENDBRANCH   2   3
BRANCH   2  24
HETATM   24  N   UNL     1     -10.006  12.381  67.380  1.00  0.00    -0.201 NA 
HETATM   25  C   UNL     1      -8.815  12.394  66.504  1.00  0.00    -0.106 C  
HETATM   26  C   UNL     1     -11.094  13.000  66.612  1.00  0.00    -0.289 C  
ENDBRANCH   2  24
TORSDOF 5
ENDMDL
MODEL      140
REMARK 921   NORMALIZED FREE ENERGY PREDICTED BY IDOCK:   -3.07 KCAL/MOL
REMARK 922        TOTAL FREE ENERGY PREDICTED BY IDOCK:   -4.82 KCAL/MOL
REMARK 923 INTER-LIGAND FREE ENERGY PREDICTED BY IDOCK:   -4.40 KCAL/MOL
REMARK 924 INTRA-LIGAND FREE ENERGY PREDICTED BY IDOCK:   -0.43 KCAL/MOL
REMARK 927      BINDING AFFINITY PREDICTED BY RF-SCORE:    0.00 PKD
ROOT
HETATM    1  C   UNL     1      -7.629  11.765  68.811  1.00  0.00    -0.104 C  
HETATM    2  C   UNL     1      -8.749  12.078  67.784  1.00  0.00    -0.161 C  
ENDROOT
BRANCH   2   3
HETATM    3  C   UNL     1      -9.694  10.808  67.804  1.00  0.00    -0.162 C  
BRANCH   3   4
HETATM    4  N   UNL     1      -9.234   9.571  67.115  1.00  0.00    -0.133 NA 
HETATM    5  C   UNL     1      -9.080   9.637  65.692  1.00  0.00    -0.189 A  
HETATM    6  C   UNL     1      -9.386  10.796  64.940  1.00  0.00    -0.261 A  
HETATM    7  C   UNL     1      -9.320  10.840  63.540  1.00  0.00    -0.304 A  
HETATM    8  C   UNL     1      -8.899   9.731  62.831  1.00  0.00    -0.255 A  
HETATM    9  C   UNL     1      -8.544   8.587  63.531  1.00  0.00     0.044 A  
HETATM   10  C   UNL     1      -8.636   8.531  64.937  1.00  0.00    -0.108 A  
HETATM   11  S   UNL     1      -8.153   6.978  65.634  1.00  0.00    -0.134 SA 
HETATM   12  C   UNL     1      -8.471   7.217  67.360  1.00  0.00    -0.119 A  
HETATM   13  C   UNL     1      -8.935   8.426  67.928  1.00  0.00    -0.137 A  
HETATM   14  C   UNL     1      -9.103   8.409  69.335  1.00  0.00    -0.154 A  
HETATM   15  C   UNL     1      -8.824   7.271  70.113  1.00  0.00    -0.145 A  
HETATM   16  C   UNL     1      -8.375   6.100  69.525  1.00  0.00    -0.120 A  
HETATM   17  C   UNL     1      -8.211   6.075  68.150  1.00  0.00    -0.113 A  
BRANCH  15  18
HETATM   18  S   UNL     1      -8.941   7.359  71.891  1.00  0.00    -0.125 S  
HETATM   19  O   UNL     1      -9.276   8.723  72.242  1.00  0.00    -0.340 OA 
HETATM   20  O   UNL     1      -7.754   6.722  72.429  1.00  0.00    -0.093 OA 
BRANCH  18  21
HETATM   21  N   UNL     1     -10.273   6.363  72.245  1.00  0.00    -0.185 N  
HETATM   22  C   UNL     1      -9.986   4.946  72.522  1.00  0.00    -0.173 C  
HETATM   23  C   UNL     1     -11.489   6.568  71.439  1.00  0.00    -0.309 C  
ENDBRANCH  18  21
ENDBRANCH  15  18
ENDBRANCH   3   4
ENDBRANCH   2   3
BRANCH   2  24
HETATM   24  N   UNL     1      -9.277  13.456  68.041  1.00  0.00    -0.203 NA 
HETATM   25  C   UNL     1      -8.190  14.352  68.493  1.00  0.00    -0.151 C  
HETATM   26  C   UNL     1      -9.853  14.075  66.841  1.00  0.00    -0.267 C  
ENDBRANCH   2  24
TORSDOF 5
ENDMDL
MODEL      141
REMARK 921   NORMALIZED FREE ENERGY PREDICTED BY IDOCK:   -3.01 KCAL/MOL
REMARK 922        TOTAL FREE ENERGY PREDICTED BY IDOCK:   -4.75 KCAL/MOL
REMARK 923 INTER-LIGAND FREE ENERGY PREDICTED BY IDOCK:   -4.16 KCAL/MOL
REMARK 924 INTRA-LIGAND FREE ENERGY PREDICTED BY IDOCK:   -0.59 KCAL/MOL
REMARK 927      BINDING AFFINITY PREDICTED BY RF-SCORE:    0.00 PKD
ROOT
HETATM    1  C   UNL     1     -11.775   8.884  70.908  1.00  0.00    -0.312 C  
HETATM    2  C   UNL     1     -10.551   8.382  70.098  1.00  0.00    -0.233 C  
ENDROOT
BRANCH   2   3
HETATM    3  C   UNL     1     -10.956   6.939  69.589  1.00  0.00    -0.259 C  
BRANCH   3   4
HETATM    4  N   UNL     1     -10.087   5.788  69.959  1.00  0.00    -0.199 NA 
HETATM    5  C   UNL     1     -10.335   5.164  71.225  1.00  0.00    -0.205 A  
HETATM    6  C   UNL     1     -11.324   5.625  72.126  1.00  0.00    -0.277 A  
HETATM    7  C   UNL     1     -11.514   5.074  73.402  1.00  0.00    -0.262 A  
HETATM    8  C   UNL     1     -10.747   4.001  73.814  1.00  0.00    -0.317 A  
HETATM    9  C   UNL     1      -9.797   3.486  72.944  1.00  0.00    -0.199 A  
HETATM   10  C   UNL     1      -9.585   4.056  71.671  1.00  0.00    -0.160 A  
HETATM   11  S   UNL     1      -8.318   3.264  70.724  1.00  0.00    -0.061 SA 
HETATM   12  C   UNL     1      -8.251   4.263  69.262  1.00  0.00    -0.070 A  
HETATM   13  C   UNL     1      -9.103   5.361  69.004  1.00  0.00    -0.115 A  
HETATM   14  C   UNL     1      -8.894   6.010  67.762  1.00  0.00    -0.106 A  
HETATM   15  C   UNL     1      -7.912   5.590  66.848  1.00  0.00    -0.101 A  
HETATM   16  C   UNL     1      -7.088   4.513  67.133  1.00  0.00    -0.068 A  
HETATM   17  C   UNL     1      -7.255   3.860  68.344  1.00  0.00    -0.055 A  
BRANCH  15  18
HETATM   18  S   UNL     1      -7.786   6.378  65.252  1.00  0.00    -0.114 S  
HETATM   19  O   UNL     1      -6.380   6.510  64.937  1.00  0.00    -0.039 OA 
HETATM   20  O   UNL     1      -8.655   7.540  65.282  1.00  0.00    -0.106 OA 
BRANCH  18  21
HETATM   21  N   UNL     1      -8.477   5.238  64.198  1.00  0.00    -0.131 N  
HETATM   22  C   UNL     1      -9.620   4.465  64.711  1.00  0.00    -0.139 C  
HETATM   23  C   UNL     1      -7.547   4.437  63.383  1.00  0.00    -0.059 C  
ENDBRANCH  18  21
ENDBRANCH  15  18
ENDBRANCH   3   4
ENDBRANCH   2   3
BRANCH   2  24
HETATM   24  N   UNL     1     -10.118   9.459  69.149  1.00  0.00    -0.188 NA 
HETATM   25  C   UNL     1     -10.716   9.244  67.814  1.00  0.00    -0.207 C  
HETATM   26  C   UNL     1     -10.539  10.797  69.583  1.00  0.00    -0.175 C  
ENDBRANCH   2  24
TORSDOF 5
ENDMDL
MODEL      142
REMARK 921   NORMALIZED FREE ENERGY PREDICTED BY IDOCK:   -3.00 KCAL/MOL
REMARK 922        TOTAL FREE ENERGY PREDICTED BY IDOCK:   -4.73 KCAL/MOL
REMARK 923 INTER-LIGAND FREE ENERGY PREDICTED BY IDOCK:   -4.40 KCAL/MOL
REMARK 924 INTRA-LIGAND FREE ENERGY PREDICTED BY IDOCK:   -0.34 KCAL/MOL
REMARK 927      BINDING AFFINITY PREDICTED BY RF-SCORE:    0.00 PKD
ROOT
HETATM    1  C   UNL     1      -8.388   6.277  65.154  1.00  0.00    -0.119 C  
HETATM    2  C   UNL     1      -8.428   5.268  66.332  1.00  0.00    -0.113 C  
ENDROOT
BRANCH   2   3
HETATM    3  C   UNL     1      -9.722   5.650  67.159  1.00  0.00    -0.139 C  
BRANCH   3   4
HETATM    4  N   UNL     1      -9.552   6.155  68.549  1.00  0.00    -0.118 NA 
HETATM    5  C   UNL     1      -9.434   5.175  69.588  1.00  0.00    -0.143 A  
HETATM    6  C   UNL     1      -9.516   3.784  69.343  1.00  0.00    -0.257 A  
HETATM    7  C   UNL     1      -9.488   2.823  70.365  1.00  0.00    -0.193 A  
HETATM    8  C   UNL     1      -9.329   3.216  71.681  1.00  0.00    -0.201 A  
HETATM    9  C   UNL     1      -9.197   4.567  71.962  1.00  0.00    -0.170 A  
HETATM   10  C   UNL     1      -9.253   5.537  70.939  1.00  0.00    -0.151 A  
HETATM   11  S   UNL     1      -9.081   7.203  71.510  1.00  0.00    -0.141 SA 
HETATM   12  C   UNL     1      -9.287   8.141  70.021  1.00  0.00    -0.159 A  
HETATM   13  C   UNL     1      -9.471   7.576  68.739  1.00  0.00    -0.148 A  
HETATM   14  C   UNL     1      -9.593   8.508  67.678  1.00  0.00    -0.187 A  
HETATM   15  C   UNL     1      -9.531   9.897  67.886  1.00  0.00    -0.133 A  
HETATM   16  C   UNL     1      -9.355  10.420  69.156  1.00  0.00    -0.211 A  
HETATM   17  C   UNL     1      -9.243   9.539  70.220  1.00  0.00    -0.303 A  
BRANCH  15  18
HETATM   18  S   UNL     1      -9.570  11.007  66.489  1.00  0.00    -0.201 S  
HETATM   19  O   UNL     1     -10.117  10.279  65.365  1.00  0.00    -0.293 OA 
HETATM   20  O   UNL     1      -8.264  11.633  66.406  1.00  0.00    -0.146 OA 
BRANCH  18  21
HETATM   21  N   UNL     1     -10.689  12.196  66.966  1.00  0.00    -0.231 N  
HETATM   22  C   UNL     1     -10.137  13.442  67.523  1.00  0.00    -0.227 C  
HETATM   23  C   UNL     1     -11.899  11.728  67.664  1.00  0.00    -0.171 C  
ENDBRANCH  18  21
ENDBRANCH  15  18
ENDBRANCH   3   4
ENDBRANCH   2   3
BRANCH   2  24
HETATM   24  N   UNL     1      -8.216   3.885  65.797  1.00  0.00    -0.104 NA 
HETATM   25  C   UNL     1      -7.334   3.110  66.697  1.00  0.00    -0.074 C  
HETATM   26  C   UNL     1      -9.466   3.124  65.684  1.00  0.00    -0.063 C  
ENDBRANCH   2  24
TORSDOF 5
ENDMDL
MODEL      143
REMARK 921   NORMALIZED FREE ENERGY PREDICTED BY IDOCK:   -2.92 KCAL/MOL
REMARK 922        TOTAL FREE ENERGY PREDICTED BY IDOCK:   -4.64 KCAL/MOL
REMARK 923 INTER-LIGAND FREE ENERGY PREDICTED BY IDOCK:   -3.80 KCAL/MOL
REMARK 924 INTRA-LIGAND FREE ENERGY PREDICTED BY IDOCK:   -0.84 KCAL/MOL
REMARK 927      BINDING AFFINITY PREDICTED BY RF-SCORE:    0.00 PKD
ROOT
HETATM    1  C   UNL     1      -8.038   8.882  66.229  1.00  0.00    -0.110 C  
HETATM    2  C   UNL     1      -8.082   7.940  67.460  1.00  0.00    -0.124 C  
ENDROOT
BRANCH   2   3
HETATM    3  C   UNL     1      -9.316   6.982  67.203  1.00  0.00    -0.143 C  
BRANCH   3   4
HETATM    4  N   UNL     1      -9.105   5.512  67.303  1.00  0.00    -0.111 NA 
HETATM    5  C   UNL     1      -8.629   4.841  66.129  1.00  0.00    -0.115 A  
HETATM    6  C   UNL     1      -8.402   5.509  64.903  1.00  0.00    -0.142 A  
HETATM    7  C   UNL     1      -8.020   4.845  63.728  1.00  0.00    -0.095 A  
HETATM    8  C   UNL     1      -7.802   3.481  63.743  1.00  0.00    -0.080 A  
HETATM    9  C   UNL     1      -7.967   2.792  64.936  1.00  0.00    -0.082 A  
HETATM   10  C   UNL     1      -8.379   3.453  66.112  1.00  0.00    -0.103 A  
HETATM   11  S   UNL     1      -8.546   2.394  67.519  1.00  0.00    -0.115 SA 
HETATM   12  C   UNL     1      -9.151   3.500  68.763  1.00  0.00    -0.145 A  
HETATM   13  C   UNL     1      -9.347   4.887  68.572  1.00  0.00    -0.131 A  
HETATM   14  C   UNL     1      -9.818   5.593  69.707  1.00  0.00    -0.245 A  
HETATM   15  C   UNL     1     -10.068   4.960  70.938  1.00  0.00    -0.222 A  
HETATM   16  C   UNL     1      -9.871   3.598  71.090  1.00  0.00    -0.200 A  
HETATM   17  C   UNL     1      -9.422   2.872  69.999  1.00  0.00    -0.183 A  
BRANCH  15  18
HETATM   18  S   UNL     1     -10.543   5.932  72.357  1.00  0.00    -0.229 S  
HETATM   19  O   UNL     1     -10.324   5.123  73.536  1.00  0.00    -0.181 OA 
HETATM   20  O   UNL     1     -11.851   6.493  72.071  1.00  0.00    -0.308 OA 
BRANCH  18  21
HETATM   21  N   UNL     1      -9.418   7.206  72.353  1.00  0.00    -0.145 N  
HETATM   22  C   UNL     1      -8.456   7.246  73.467  1.00  0.00    -0.138 C  
HETATM   23  C   UNL     1      -9.920   8.536  71.964  1.00  0.00    -0.313 C  
ENDBRANCH  18  21
ENDBRANCH  15  18
ENDBRANCH   3   4
ENDBRANCH   2   3
BRANCH   2  24
HETATM   24  N   UNL     1      -6.706   7.401  67.712  1.00  0.00    -0.060 NA 
HETATM   25  C   UNL     1      -5.805   7.731  66.588  1.00  0.00    -0.040 C  
HETATM   26  C   UNL     1      -6.090   7.966  68.919  1.00  0.00    -0.039 C  
ENDBRANCH   2  24
TORSDOF 5
ENDMDL
MODEL      144
REMARK 921   NORMALIZED FREE ENERGY PREDICTED BY IDOCK:   -2.88 KCAL/MOL
REMARK 922        TOTAL FREE ENERGY PREDICTED BY IDOCK:   -4.58 KCAL/MOL
REMARK 923 INTER-LIGAND FREE ENERGY PREDICTED BY IDOCK:   -4.28 KCAL/MOL
REMARK 924 INTRA-LIGAND FREE ENERGY PREDICTED BY IDOCK:   -0.30 KCAL/MOL
REMARK 927      BINDING AFFINITY PREDICTED BY RF-SCORE:    0.00 PKD
ROOT
HETATM    1  C   UNL     1     -11.269   6.966  69.273  1.00  0.00    -0.188 C  
HETATM    2  C   UNL     1     -10.185   7.081  70.377  1.00  0.00    -0.196 C  
ENDROOT
BRANCH   2   3
HETATM    3  C   UNL     1      -9.159   8.159  69.837  1.00  0.00    -0.151 C  
BRANCH   3   4
HETATM    4  N   UNL     1      -9.195   8.509  68.391  1.00  0.00    -0.135 NA 
HETATM    5  C   UNL     1      -9.853   9.731  68.033  1.00  0.00    -0.148 A  
HETATM    6  C   UNL     1     -10.487  10.567  68.981  1.00  0.00    -0.238 A  
HETATM    7  C   UNL     1     -11.206  11.718  68.629  1.00  0.00    -0.312 A  
HETATM    8  C   UNL     1     -11.282  12.109  67.305  1.00  0.00    -0.366 A  
HETATM    9  C   UNL     1     -10.634  11.345  66.346  1.00  0.00    -0.311 A  
HETATM   10  C   UNL     1      -9.934  10.171  66.695  1.00  0.00    -0.216 A  
HETATM   11  S   UNL     1      -9.195   9.333  65.324  1.00  0.00    -0.177 SA 
HETATM   12  C   UNL     1      -8.497   7.894  66.085  1.00  0.00    -0.133 A  
HETATM   13  C   UNL     1      -8.532   7.627  67.473  1.00  0.00    -0.116 A  
HETATM   14  C   UNL     1      -7.893   6.427  67.875  1.00  0.00    -0.104 A  
HETATM   15  C   UNL     1      -7.265   5.565  66.959  1.00  0.00    -0.078 A  
HETATM   16  C   UNL     1      -7.253   5.852  65.604  1.00  0.00    -0.075 A  
HETATM   17  C   UNL     1      -7.878   7.011  65.172  1.00  0.00    -0.124 A  
BRANCH  15  18
HETATM   18  S   UNL     1      -6.377   4.135  67.549  1.00  0.00    -0.038 S  
HETATM   19  O   UNL     1      -6.090   4.345  68.952  1.00  0.00    -0.028 OA 
HETATM   20  O   UNL     1      -5.308   3.875  66.602  1.00  0.00    -0.012 OA 
BRANCH  18  21
HETATM   21  N   UNL     1      -7.515   2.880  67.407  1.00  0.00    -0.061 N  
HETATM   22  C   UNL     1      -7.574   2.180  66.113  1.00  0.00    -0.067 C  
HETATM   23  C   UNL     1      -8.840   3.115  68.007  1.00  0.00    -0.124 C  
ENDBRANCH  18  21
ENDBRANCH  15  18
ENDBRANCH   3   4
ENDBRANCH   2   3
BRANCH   2  24
HETATM   24  N   UNL     1     -10.857   7.232  71.708  1.00  0.00    -0.223 NA 
HETATM   25  C   UNL     1     -11.298   8.629  71.911  1.00  0.00    -0.347 C  
HETATM   26  C   UNL     1     -12.057   6.395  71.834  1.00  0.00    -0.310 C  
ENDBRANCH   2  24
TORSDOF 5
ENDMDL
MODEL      145
REMARK 921   NORMALIZED FREE ENERGY PREDICTED BY IDOCK:   -2.84 KCAL/MOL
REMARK 922        TOTAL FREE ENERGY PREDICTED BY IDOCK:   -4.53 KCAL/MOL
REMARK 923 INTER-LIGAND FREE ENERGY PREDICTED BY IDOCK:   -4.26 KCAL/MOL
REMARK 924 INTRA-LIGAND FREE ENERGY PREDICTED BY IDOCK:   -0.27 KCAL/MOL
REMARK 927      BINDING AFFINITY PREDICTED BY RF-SCORE:    0.00 PKD
ROOT
HETATM    1  C   UNL     1     -10.896   9.645  71.102  1.00  0.00    -0.404 C  
HETATM    2  C   UNL     1     -11.508   8.606  70.126  1.00  0.00    -0.005 C  
ENDROOT
BRANCH   2   3
HETATM    3  C   UNL     1     -10.518   8.566  68.892  1.00  0.00    -0.188 C  
BRANCH   3   4
HETATM    4  N   UNL     1      -9.439   9.589  68.816  1.00  0.00    -0.145 NA 
HETATM    5  C   UNL     1      -9.727  10.785  68.080  1.00  0.00    -0.162 A  
HETATM    6  C   UNL     1     -10.954  10.995  67.408  1.00  0.00    -0.349 A  
HETATM    7  C   UNL     1     -11.210  12.124  66.616  1.00  0.00    -0.375 A  
HETATM    8  C   UNL     1     -10.257  13.119  66.499  1.00  0.00    -0.277 A  
HETATM    9  C   UNL     1      -9.057  12.976  67.179  1.00  0.00    -0.225 A  
HETATM   10  C   UNL     1      -8.787  11.829  67.954  1.00  0.00    -0.165 A  
HETATM   11  S   UNL     1      -7.194  11.833  68.726  1.00  0.00    -0.106 SA 
HETATM   12  C   UNL     1      -7.148  10.251  69.520  1.00  0.00    -0.107 A  
HETATM   13  C   UNL     1      -8.216   9.325  69.520  1.00  0.00    -0.121 A  
HETATM   14  C   UNL     1      -7.978   8.125  70.236  1.00  0.00    -0.103 A  
HETATM   15  C   UNL     1      -6.765   7.875  70.903  1.00  0.00    -0.037 A  
HETATM   16  C   UNL     1      -5.735   8.801  70.879  1.00  0.00    -0.034 A  
HETATM   17  C   UNL     1      -5.928   9.981  70.179  1.00  0.00    -0.063 A  
BRANCH  15  18
HETATM   18  S   UNL     1      -6.579   6.397  71.885  1.00  0.00    -0.059 S  
HETATM   19  O   UNL     1      -5.183   6.021  71.852  1.00  0.00    -0.020 OA 
HETATM   20  O   UNL     1      -7.610   5.469  71.458  1.00  0.00    -0.098 OA 
BRANCH  18  21
HETATM   21  N   UNL     1      -6.967   6.919  73.455  1.00  0.00    -0.074 N  
HETATM   22  C   UNL     1      -5.875   6.918  74.444  1.00  0.00    -0.070 C  
HETATM   23  C   UNL     1      -8.257   6.469  74.007  1.00  0.00    -0.118 C  
ENDBRANCH  18  21
ENDBRANCH  15  18
ENDBRANCH   3   4
ENDBRANCH   2   3
BRANCH   2  24
HETATM   24  N   UNL     1     -11.863   7.367  70.892  1.00  0.00    -0.302 NA 
HETATM   25  C   UNL     1     -11.250   6.176  70.265  1.00  0.00    -0.369 C  
HETATM   26  C   UNL     1     -11.381   7.402  72.278  1.00  0.00    -0.281 C  
ENDBRANCH   2  24
TORSDOF 5
ENDMDL
MODEL      146
REMARK 921   NORMALIZED FREE ENERGY PREDICTED BY IDOCK:   -2.78 KCAL/MOL
REMARK 922        TOTAL FREE ENERGY PREDICTED BY IDOCK:   -4.45 KCAL/MOL
REMARK 923 INTER-LIGAND FREE ENERGY PREDICTED BY IDOCK:   -4.20 KCAL/MOL
REMARK 924 INTRA-LIGAND FREE ENERGY PREDICTED BY IDOCK:   -0.25 KCAL/MOL
REMARK 927      BINDING AFFINITY PREDICTED BY RF-SCORE:    0.00 PKD
ROOT
HETATM    1  C   UNL     1      -6.929   8.180  70.787  1.00  0.00    -0.041 C  
HETATM    2  C   UNL     1      -8.138   8.825  71.513  1.00  0.00    -0.122 C  
ENDROOT
BRANCH   2   3
HETATM    3  C   UNL     1      -9.417   8.179  70.839  1.00  0.00    -0.162 C  
BRANCH   3   4
HETATM    4  N   UNL     1      -9.219   7.095  69.838  1.00  0.00    -0.142 NA 
HETATM    5  C   UNL     1      -9.163   5.752  70.336  1.00  0.00    -0.153 A  
HETATM    6  C   UNL     1      -9.245   5.440  71.713  1.00  0.00    -0.160 A  
HETATM    7  C   UNL     1      -9.104   4.137  72.213  1.00  0.00    -0.148 A  
HETATM    8  C   UNL     1      -8.921   3.078  71.344  1.00  0.00    -0.156 A  
HETATM    9  C   UNL     1      -8.882   3.332  69.981  1.00  0.00    -0.149 A  
HETATM   10  C   UNL     1      -8.995   4.645  69.477  1.00  0.00    -0.092 A  
HETATM   11  S   UNL     1      -8.903   4.756  67.714  1.00  0.00    -0.107 SA 
HETATM   12  C   UNL     1      -8.982   6.503  67.435  1.00  0.00    -0.110 A  
HETATM   13  C   UNL     1      -9.146   7.469  68.454  1.00  0.00    -0.133 A  
HETATM   14  C   UNL     1      -9.207   8.813  68.010  1.00  0.00    -0.147 A  
HETATM   15  C   UNL     1      -9.114   9.162  66.651  1.00  0.00    -0.148 A  
HETATM   16  C   UNL     1      -8.948   8.192  65.676  1.00  0.00    -0.128 A  
HETATM   17  C   UNL     1      -8.873   6.867  66.074  1.00  0.00    -0.154 A  
BRANCH  15  18
HETATM   18  S   UNL     1      -9.320  10.864  66.154  1.00  0.00    -0.194 S  
HETATM   19  O   UNL     1     -10.230  10.885  65.029  1.00  0.00    -0.272 OA 
HETATM   20  O   UNL     1      -7.993  11.440  66.048  1.00  0.00    -0.054 OA 
BRANCH  18  21
HETATM   21  N   UNL     1     -10.092  11.572  67.493  1.00  0.00    -0.182 N  
HETATM   22  C   UNL     1     -11.516  11.909  67.336  1.00  0.00    -0.323 C  
HETATM   23  C   UNL     1      -9.328  12.586  68.240  1.00  0.00    -0.193 C  
ENDBRANCH  18  21
ENDBRANCH  15  18
ENDBRANCH   3   4
ENDBRANCH   2   3
BRANCH   2  24
HETATM   24  N   UNL     1      -7.911   8.761  72.993  1.00  0.00    -0.383 NA 
HETATM   25  C   UNL     1      -9.025   8.052  73.659  1.00  0.00    -0.247 C  
HETATM   26  C   UNL     1      -6.685   8.033  73.346  1.00  0.00    -0.099 C  
ENDBRANCH   2  24
TORSDOF 5
ENDMDL
MODEL      147
REMARK 921   NORMALIZED FREE ENERGY PREDICTED BY IDOCK:   -2.74 KCAL/MOL
REMARK 922        TOTAL FREE ENERGY PREDICTED BY IDOCK:   -4.40 KCAL/MOL
REMARK 923 INTER-LIGAND FREE ENERGY PREDICTED BY IDOCK:   -3.59 KCAL/MOL
REMARK 924 INTRA-LIGAND FREE ENERGY PREDICTED BY IDOCK:   -0.82 KCAL/MOL
REMARK 927      BINDING AFFINITY PREDICTED BY RF-SCORE:    0.00 PKD
ROOT
HETATM    1  C   UNL     1      -9.990   8.935  66.244  1.00  0.00    -0.337 C  
HETATM    2  C   UNL     1      -9.117  10.212  66.360  1.00  0.00    -0.152 C  
ENDROOT
BRANCH   2   3
HETATM    3  C   UNL     1      -9.340  10.731  67.839  1.00  0.00    -0.150 C  
BRANCH   3   4
HETATM    4  N   UNL     1      -8.146  11.100  68.648  1.00  0.00    -0.145 NA 
HETATM    5  C   UNL     1      -7.610  12.415  68.453  1.00  0.00    -0.129 A  
HETATM    6  C   UNL     1      -8.139  13.328  67.511  1.00  0.00    -0.187 A  
HETATM    7  C   UNL     1      -7.566  14.582  67.254  1.00  0.00    -0.150 A  
HETATM    8  C   UNL     1      -6.458  14.997  67.968  1.00  0.00    -0.159 A  
HETATM    9  C   UNL     1      -5.934  14.152  68.935  1.00  0.00    -0.087 A  
HETATM   10  C   UNL     1      -6.491  12.879  69.176  1.00  0.00    -0.108 A  
HETATM   11  S   UNL     1      -5.665  11.952  70.437  1.00  0.00    -0.151 SA 
HETATM   12  C   UNL     1      -6.539  10.412  70.416  1.00  0.00    -0.119 A  
HETATM   13  C   UNL     1      -7.654  10.137  69.591  1.00  0.00    -0.156 A  
HETATM   14  C   UNL     1      -8.219   8.847  69.749  1.00  0.00    -0.119 A  
HETATM   15  C   UNL     1      -7.711   7.908  70.664  1.00  0.00    -0.090 A  
HETATM   16  C   UNL     1      -6.613   8.208  71.455  1.00  0.00    -0.047 A  
HETATM   17  C   UNL     1      -6.026   9.456  71.320  1.00  0.00    -0.076 A  
BRANCH  15  18
HETATM   18  S   UNL     1      -8.547   6.349  70.896  1.00  0.00    -0.136 S  
HETATM   19  O   UNL     1      -7.562   5.384  71.333  1.00  0.00    -0.096 OA 
HETATM   20  O   UNL     1      -9.345   6.113  69.707  1.00  0.00    -0.148 OA 
BRANCH  18  21
HETATM   21  N   UNL     1      -9.611   6.664  72.184  1.00  0.00    -0.148 N  
HETATM   22  C   UNL     1      -9.544   5.754  73.339  1.00  0.00    -0.143 C  
HETATM   23  C   UNL     1     -10.986   7.059  71.829  1.00  0.00    -0.234 C  
ENDBRANCH  18  21
ENDBRANCH  15  18
ENDBRANCH   3   4
ENDBRANCH   2   3
BRANCH   2  24
HETATM   24  N   UNL     1      -7.748   9.918  65.827  1.00  0.00    -0.108 NA 
HETATM   25  C   UNL     1      -7.418   8.488  66.004  1.00  0.00    -0.085 C  
HETATM   26  C   UNL     1      -7.629  10.198  64.390  1.00  0.00    -0.130 C  
ENDBRANCH   2  24
TORSDOF 5
ENDMDL
MODEL      148
REMARK 921   NORMALIZED FREE ENERGY PREDICTED BY IDOCK:   -2.72 KCAL/MOL
REMARK 922        TOTAL FREE ENERGY PREDICTED BY IDOCK:   -4.37 KCAL/MOL
REMARK 923 INTER-LIGAND FREE ENERGY PREDICTED BY IDOCK:   -3.95 KCAL/MOL
REMARK 924 INTRA-LIGAND FREE ENERGY PREDICTED BY IDOCK:   -0.42 KCAL/MOL
REMARK 927      BINDING AFFINITY PREDICTED BY RF-SCORE:    0.00 PKD
ROOT
HETATM    1  C   UNL     1      -7.829   7.521  67.587  1.00  0.00    -0.113 C  
HETATM    2  C   UNL     1      -8.859   7.281  66.452  1.00  0.00    -0.149 C  
ENDROOT
BRANCH   2   3
HETATM    3  C   UNL     1      -9.966   6.347  67.091  1.00  0.00    -0.155 C  
BRANCH   3   4
HETATM    4  N   UNL     1      -9.670   4.895  67.239  1.00  0.00    -0.158 NA 
HETATM    5  C   UNL     1      -9.563   4.126  66.034  1.00  0.00    -0.194 A  
HETATM    6  C   UNL     1      -9.768   4.681  64.750  1.00  0.00    -0.020 A  
HETATM    7  C   UNL     1      -9.750   3.917  63.574  1.00  0.00    -0.157 A  
HETATM    8  C   UNL     1      -9.479   2.563  63.631  1.00  0.00    -0.107 A  
HETATM    9  C   UNL     1      -9.225   1.986  64.866  1.00  0.00    -0.118 A  
HETATM   10  C   UNL     1      -9.270   2.746  66.053  1.00  0.00    -0.076 A  
HETATM   11  S   UNL     1      -8.934   1.819  67.522  1.00  0.00    -0.136 SA 
HETATM   12  C   UNL     1      -9.159   3.027  68.798  1.00  0.00    -0.152 A  
HETATM   13  C   UNL     1      -9.467   4.387  68.566  1.00  0.00    -0.156 A  
HETATM   14  C   UNL     1      -9.583   5.188  69.729  1.00  0.00    -0.242 A  
HETATM   15  C   UNL     1      -9.400   4.668  71.023  1.00  0.00    -0.147 A  
HETATM   16  C   UNL     1      -9.105   3.329  71.217  1.00  0.00    -0.178 A  
HETATM   17  C   UNL     1      -8.995   2.512  70.103  1.00  0.00    -0.160 A  
BRANCH  15  18
HETATM   18  S   UNL     1      -9.441   5.760  72.434  1.00  0.00    -0.141 S  
HETATM   19  O   UNL     1      -8.936   7.047  72.008  1.00  0.00    -0.132 OA 
HETATM   20  O   UNL     1      -8.828   5.050  73.541  1.00  0.00    -0.116 OA 
BRANCH  18  21
HETATM   21  N   UNL     1     -11.102   5.909  72.765  1.00  0.00    -0.268 N  
HETATM   22  C   UNL     1     -11.825   4.671  73.104  1.00  0.00     0.014 C  
HETATM   23  C   UNL     1     -11.873   6.820  71.902  1.00  0.00    -0.326 C  
ENDBRANCH  18  21
ENDBRANCH  15  18
ENDBRANCH   3   4
ENDBRANCH   2   3
BRANCH   2  24
HETATM   24  N   UNL     1      -9.206   8.595  65.821  1.00  0.00    -0.206 NA 
HETATM   25  C   UNL     1     -10.207   9.314  66.638  1.00  0.00    -0.253 C  
HETATM   26  C   UNL     1      -8.046   9.488  65.702  1.00  0.00    -0.112 C  
ENDBRANCH   2  24
TORSDOF 5
ENDMDL
MODEL      149
REMARK 921   NORMALIZED FREE ENERGY PREDICTED BY IDOCK:   -2.69 KCAL/MOL
REMARK 922        TOTAL FREE ENERGY PREDICTED BY IDOCK:   -4.34 KCAL/MOL
REMARK 923 INTER-LIGAND FREE ENERGY PREDICTED BY IDOCK:   -3.74 KCAL/MOL
REMARK 924 INTRA-LIGAND FREE ENERGY PREDICTED BY IDOCK:   -0.60 KCAL/MOL
REMARK 927      BINDING AFFINITY PREDICTED BY RF-SCORE:    0.00 PKD
ROOT
HETATM    1  C   UNL     1     -11.942   9.589  70.902  1.00  0.00    -0.372 C  
HETATM    2  C   UNL     1     -10.584   9.794  70.180  1.00  0.00    -0.285 C  
ENDROOT
BRANCH   2   3
HETATM    3  C   UNL     1     -10.022   8.335  69.936  1.00  0.00    -0.190 C  
BRANCH   3   4
HETATM    4  N   UNL     1      -8.601   8.056  70.279  1.00  0.00    -0.131 NA 
HETATM    5  C   UNL     1      -8.304   7.784  71.655  1.00  0.00    -0.110 A  
HETATM    6  C   UNL     1      -9.287   7.816  72.672  1.00  0.00    -0.246 A  
HETATM    7  C   UNL     1      -8.989   7.637  74.031  1.00  0.00    -0.299 A  
HETATM    8  C   UNL     1      -7.692   7.371  74.426  1.00  0.00    -0.170 A  
HETATM    9  C   UNL     1      -6.704   7.284  73.457  1.00  0.00    -0.065 A  
HETATM   10  C   UNL     1      -6.996   7.492  72.093  1.00  0.00    -0.063 A  
HETATM   11  S   UNL     1      -5.594   7.354  71.022  1.00  0.00    -0.031 SA 
HETATM   12  C   UNL     1      -6.280   7.754  69.438  1.00  0.00    -0.034 A  
HETATM   13  C   UNL     1      -7.647   8.033  69.207  1.00  0.00    -0.096 A  
HETATM   14  C   UNL     1      -7.988   8.308  67.859  1.00  0.00    -0.123 A  
HETATM   15  C   UNL     1      -7.036   8.300  66.824  1.00  0.00    -0.077 A  
HETATM   16  C   UNL     1      -5.703   8.028  67.085  1.00  0.00    -0.038 A  
HETATM   17  C   UNL     1      -5.329   7.766  68.394  1.00  0.00    -0.027 A  
BRANCH  15  18
HETATM   18  S   UNL     1      -7.558   8.535  65.134  1.00  0.00    -0.099 S  
HETATM   19  O   UNL     1      -6.622   9.444  64.509  1.00  0.00    -0.083 OA 
HETATM   20  O   UNL     1      -8.978   8.833  65.164  1.00  0.00    -0.184 OA 
BRANCH  18  21
HETATM   21  N   UNL     1      -7.363   6.993  64.446  1.00  0.00    -0.078 N  
HETATM   22  C   UNL     1      -7.918   5.855  65.198  1.00  0.00    -0.121 C  
HETATM   23  C   UNL     1      -6.060   6.703  63.823  1.00  0.00    -0.034 C  
ENDBRANCH  18  21
ENDBRANCH  15  18
ENDBRANCH   3   4
ENDBRANCH   2   3
BRANCH   2  24
HETATM   24  N   UNL     1     -10.772  10.764  69.053  1.00  0.00    -0.213 NA 
HETATM   25  C   UNL     1     -11.035  10.045  67.788  1.00  0.00    -0.249 C  
HETATM   26  C   UNL     1     -11.913  11.664  69.266  1.00  0.00    -0.317 C  
ENDBRANCH   2  24
TORSDOF 5
ENDMDL
MODEL      150
REMARK 921   NORMALIZED FREE ENERGY PREDICTED BY IDOCK:   -2.62 KCAL/MOL
REMARK 922        TOTAL FREE ENERGY PREDICTED BY IDOCK:   -4.24 KCAL/MOL
REMARK 923 INTER-LIGAND FREE ENERGY PREDICTED BY IDOCK:   -4.67 KCAL/MOL
REMARK 924 INTRA-LIGAND FREE ENERGY PREDICTED BY IDOCK:    0.43 KCAL/MOL
REMARK 927      BINDING AFFINITY PREDICTED BY RF-SCORE:    0.00 PKD
ROOT
HETATM    1  C   UNL     1      -8.600   5.411  66.203  1.00  0.00    -0.126 C  
HETATM    2  C   UNL     1      -8.671   6.720  67.032  1.00  0.00    -0.114 C  
ENDROOT
BRANCH   2   3
HETATM    3  C   UNL     1      -9.994   6.592  67.891  1.00  0.00    -0.131 C  
BRANCH   3   4
HETATM    4  N   UNL     1     -10.229   7.577  68.982  1.00  0.00    -0.200 NA 
HETATM    5  C   UNL     1     -10.502   8.929  68.591  1.00  0.00    -0.193 A  
HETATM    6  C   UNL     1     -10.510   9.350  67.241  1.00  0.00    -0.332 A  
HETATM    7  C   UNL     1     -10.690  10.686  66.856  1.00  0.00    -0.297 A  
HETATM    8  C   UNL     1     -10.917  11.658  67.813  1.00  0.00    -0.287 A  
HETATM    9  C   UNL     1     -10.964  11.282  69.147  1.00  0.00    -0.292 A  
HETATM   10  C   UNL     1     -10.755   9.943  69.538  1.00  0.00    -0.242 A  
HETATM   11  S   UNL     1     -10.838   9.676  71.285  1.00  0.00    -0.204 SA 
HETATM   12  C   UNL     1     -10.448   7.955  71.430  1.00  0.00    -0.206 A  
HETATM   13  C   UNL     1     -10.213   7.094  70.334  1.00  0.00    -0.193 A  
HETATM   14  C   UNL     1      -9.939   5.745  70.672  1.00  0.00    -0.251 A  
HETATM   15  C   UNL     1      -9.907   5.293  72.003  1.00  0.00    -0.174 A  
HETATM   16  C   UNL     1     -10.137   6.164  73.056  1.00  0.00    -0.194 A  
HETATM   17  C   UNL     1     -10.397   7.494  72.764  1.00  0.00    -0.331 A  
BRANCH  15  18
HETATM   18  S   UNL     1      -9.676   3.558  72.348  1.00  0.00    -0.161 S  
HETATM   19  O   UNL     1      -9.442   2.888  71.088  1.00  0.00    -0.134 OA 
HETATM   20  O   UNL     1     -10.762   3.149  73.220  1.00  0.00    -0.170 OA 
BRANCH  18  21
HETATM   21  N   UNL     1      -8.239   3.528  73.256  1.00  0.00    -0.075 N  
HETATM   22  C   UNL     1      -6.978   3.450  72.501  1.00  0.00    -0.042 C  
HETATM   23  C   UNL     1      -8.242   2.705  74.478  1.00  0.00    -0.067 C  
ENDBRANCH  18  21
ENDBRANCH  15  18
ENDBRANCH   3   4
ENDBRANCH   2   3
BRANCH   2  24
HETATM   24  N   UNL     1      -7.338   6.966  67.671  1.00  0.00    -0.094 NA 
HETATM   25  C   UNL     1      -7.440   8.035  68.688  1.00  0.00    -0.098 C  
HETATM   26  C   UNL     1      -6.815   5.782  68.364  1.00  0.00    -0.063 C  
ENDBRANCH   2  24
TORSDOF 5
ENDMDL
MODEL      151
REMARK 921   NORMALIZED FREE ENERGY PREDICTED BY IDOCK:   -2.60 KCAL/MOL
REMARK 922        TOTAL FREE ENERGY PREDICTED BY IDOCK:   -4.23 KCAL/MOL
REMARK 923 INTER-LIGAND FREE ENERGY PREDICTED BY IDOCK:   -3.36 KCAL/MOL
REMARK 924 INTRA-LIGAND FREE ENERGY PREDICTED BY IDOCK:   -0.86 KCAL/MOL
REMARK 927      BINDING AFFINITY PREDICTED BY RF-SCORE:    0.00 PKD
ROOT
HETATM    1  C   UNL     1      -8.679   8.966  64.886  1.00  0.00    -0.184 C  
HETATM    2  C   UNL     1      -8.189   8.500  66.282  1.00  0.00    -0.109 C  
ENDROOT
BRANCH   2   3
HETATM    3  C   UNL     1      -9.019   7.188  66.593  1.00  0.00    -0.146 C  
BRANCH   3   4
HETATM    4  N   UNL     1      -8.299   6.009  67.146  1.00  0.00    -0.106 NA 
HETATM    5  C   UNL     1      -7.816   5.041  66.206  1.00  0.00    -0.099 A  
HETATM    6  C   UNL     1      -8.035   5.149  64.813  1.00  0.00    -0.104 A  
HETATM    7  C   UNL     1      -7.641   4.163  63.897  1.00  0.00    -0.073 A  
HETATM    8  C   UNL     1      -6.964   3.040  64.335  1.00  0.00    -0.045 A  
HETATM    9  C   UNL     1      -6.686   2.916  65.688  1.00  0.00    -0.043 A  
HETATM   10  C   UNL     1      -7.106   3.892  66.615  1.00  0.00    -0.060 A  
HETATM   11  S   UNL     1      -6.668   3.537  68.292  1.00  0.00    -0.046 SA 
HETATM   12  C   UNL     1      -7.409   4.881  69.176  1.00  0.00    -0.053 A  
HETATM   13  C   UNL     1      -8.102   5.952  68.567  1.00  0.00    -0.106 A  
HETATM   14  C   UNL     1      -8.599   6.936  69.459  1.00  0.00    -0.134 A  
HETATM   15  C   UNL     1      -8.413   6.854  70.850  1.00  0.00    -0.135 A  
HETATM   16  C   UNL     1      -7.735   5.787  71.416  1.00  0.00    -0.107 A  
HETATM   17  C   UNL     1      -7.244   4.800  70.577  1.00  0.00    -0.049 A  
BRANCH  15  18
HETATM   18  S   UNL     1      -8.960   8.188  71.900  1.00  0.00    -0.187 S  
HETATM   19  O   UNL     1      -8.286   9.393  71.466  1.00  0.00    -0.270 OA 
HETATM   20  O   UNL     1      -8.848   7.726  73.271  1.00  0.00    -0.171 OA 
BRANCH  18  21
HETATM   21  N   UNL     1     -10.614   8.325  71.530  1.00  0.00    -0.223 N  
HETATM   22  C   UNL     1     -11.043   9.560  70.852  1.00  0.00    -0.336 C  
HETATM   23  C   UNL     1     -11.565   7.858  72.554  1.00  0.00    -0.386 C  
ENDBRANCH  18  21
ENDBRANCH  15  18
ENDBRANCH   3   4
ENDBRANCH   2   3
BRANCH   2  24
HETATM   24  N   UNL     1      -6.691   8.507  66.302  1.00  0.00    -0.068 NA 
HETATM   25  C   UNL     1      -6.155   8.711  64.939  1.00  0.00    -0.060 C  
HETATM   26  C   UNL     1      -6.141   9.587  67.132  1.00  0.00    -0.063 C  
ENDBRANCH   2  24
TORSDOF 5
ENDMDL
MODEL      152
REMARK 921   NORMALIZED FREE ENERGY PREDICTED BY IDOCK:   -2.46 KCAL/MOL
REMARK 922        TOTAL FREE ENERGY PREDICTED BY IDOCK:   -4.04 KCAL/MOL
REMARK 923 INTER-LIGAND FREE ENERGY PREDICTED BY IDOCK:   -4.42 KCAL/MOL
REMARK 924 INTRA-LIGAND FREE ENERGY PREDICTED BY IDOCK:    0.39 KCAL/MOL
REMARK 927      BINDING AFFINITY PREDICTED BY RF-SCORE:    0.00 PKD
ROOT
HETATM    1  C   UNL     1      -8.534  12.042  68.190  1.00  0.00    -0.171 C  
HETATM    2  C   UNL     1      -9.325  11.732  66.892  1.00  0.00    -0.192 C  
ENDROOT
BRANCH   2   3
HETATM    3  C   UNL     1     -10.032  10.342  67.162  1.00  0.00    -0.197 C  
BRANCH   3   4
HETATM    4  N   UNL     1     -10.217   9.903  68.573  1.00  0.00    -0.170 NA 
HETATM    5  C   UNL     1     -11.106  10.680  69.385  1.00  0.00    -0.260 A  
HETATM    6  C   UNL     1     -11.758  11.843  68.913  1.00  0.00    -0.381 A  
HETATM    7  C   UNL     1     -12.560  12.656  69.727  1.00  0.00     0.238 A  
HETATM    8  C   UNL     1     -12.781  12.312  71.047  1.00  0.00    -0.319 A  
HETATM    9  C   UNL     1     -12.199  11.153  71.540  1.00  0.00    -0.128 A  
HETATM   10  C   UNL     1     -11.369  10.349  70.731  1.00  0.00    -0.284 A  
HETATM   11  S   UNL     1     -10.711   8.927  71.554  1.00  0.00    -0.353 SA 
HETATM   12  C   UNL     1      -9.670   8.213  70.312  1.00  0.00    -0.175 A  
HETATM   13  C   UNL     1      -9.534   8.714  68.997  1.00  0.00    -0.153 A  
HETATM   14  C   UNL     1      -8.664   7.977  68.156  1.00  0.00    -0.126 A  
HETATM   15  C   UNL     1      -7.987   6.826  68.595  1.00  0.00    -0.119 A  
HETATM   16  C   UNL     1      -8.137   6.363  69.892  1.00  0.00    -0.121 A  
HETATM   17  C   UNL     1      -8.971   7.065  70.748  1.00  0.00    -0.150 A  
BRANCH  15  18
HETATM   18  S   UNL     1      -7.003   5.880  67.446  1.00  0.00    -0.070 S  
HETATM   19  O   UNL     1      -6.393   4.793  68.182  1.00  0.00    -0.034 OA 
HETATM   20  O   UNL     1      -6.190   6.824  66.703  1.00  0.00    -0.040 OA 
BRANCH  18  21
HETATM   21  N   UNL     1      -8.160   5.235  66.380  1.00  0.00    -0.108 N  
HETATM   22  C   UNL     1      -8.444   6.010  65.161  1.00  0.00    -0.112 C  
HETATM   23  C   UNL     1      -9.361   4.635  66.986  1.00  0.00    -0.141 C  
ENDBRANCH  18  21
ENDBRANCH  15  18
ENDBRANCH   3   4
ENDBRANCH   2   3
BRANCH   2  24
HETATM   24  N   UNL     1     -10.104  12.948  66.492  1.00  0.00    -0.255 NA 
HETATM   25  C   UNL     1      -9.344  14.177  66.804  1.00  0.00    -0.282 C  
HETATM   26  C   UNL     1     -10.389  12.988  65.052  1.00  0.00    -0.318 C  
ENDBRANCH   2  24
TORSDOF 5
ENDMDL
MODEL      153
REMARK 921   NORMALIZED FREE ENERGY PREDICTED BY IDOCK:   -2.36 KCAL/MOL
REMARK 922        TOTAL FREE ENERGY PREDICTED BY IDOCK:   -3.91 KCAL/MOL
REMARK 923 INTER-LIGAND FREE ENERGY PREDICTED BY IDOCK:   -3.86 KCAL/MOL
REMARK 924 INTRA-LIGAND FREE ENERGY PREDICTED BY IDOCK:   -0.04 KCAL/MOL
REMARK 927      BINDING AFFINITY PREDICTED BY RF-SCORE:    0.00 PKD
ROOT
HETATM    1  C   UNL     1      -6.121   7.682  70.557  1.00  0.00    -0.030 C  
HETATM    2  C   UNL     1      -7.388   8.483  70.957  1.00  0.00    -0.074 C  
ENDROOT
BRANCH   2   3
HETATM    3  C   UNL     1      -8.594   7.710  70.283  1.00  0.00    -0.143 C  
BRANCH   3   4
HETATM    4  N   UNL     1      -9.887   7.638  71.016  1.00  0.00    -0.175 NA 
HETATM    5  C   UNL     1     -10.777   8.753  70.880  1.00  0.00    -0.227 A  
HETATM    6  C   UNL     1     -10.452   9.905  70.126  1.00  0.00    -0.339 A  
HETATM    7  C   UNL     1     -11.280  11.035  70.059  1.00  0.00    -0.303 A  
HETATM    8  C   UNL     1     -12.498  11.041  70.711  1.00  0.00    -0.491 A  
HETATM    9  C   UNL     1     -12.879   9.913  71.424  1.00  0.00    -0.505 A  
HETATM   10  C   UNL     1     -12.035   8.786  71.516  1.00  0.00    -0.324 A  
HETATM   11  S   UNL     1     -12.698   7.462  72.485  1.00  0.00     0.393 SA 
HETATM   12  C   UNL     1     -11.379   6.279  72.470  1.00  0.00    -0.275 A  
HETATM   13  C   UNL     1     -10.167   6.443  71.762  1.00  0.00    -0.197 A  
HETATM   14  C   UNL     1      -9.254   5.364  71.868  1.00  0.00    -0.155 A  
HETATM   15  C   UNL     1      -9.536   4.209  72.620  1.00  0.00    -0.132 A  
HETATM   16  C   UNL     1     -10.733   4.082  73.306  1.00  0.00    -0.286 A  
HETATM   17  C   UNL     1     -11.645   5.123  73.236  1.00  0.00    -0.209 A  
BRANCH  15  18
HETATM   18  S   UNL     1      -8.393   2.840  72.609  1.00  0.00    -0.071 S  
HETATM   19  O   UNL     1      -8.895   1.842  73.529  1.00  0.00    -0.064 OA 
HETATM   20  O   UNL     1      -7.062   3.395  72.767  1.00  0.00    -0.041 OA 
BRANCH  18  21
HETATM   21  N   UNL     1      -8.521   2.236  71.025  1.00  0.00    -0.053 N  
HETATM   22  C   UNL     1      -9.761   1.517  70.687  1.00  0.00    -0.041 C  
HETATM   23  C   UNL     1      -7.313   1.621  70.448  1.00  0.00    -0.033 C  
ENDBRANCH  18  21
ENDBRANCH  15  18
ENDBRANCH   3   4
ENDBRANCH   2   3
BRANCH   2  24
HETATM   24  N   UNL     1      -7.350   8.752  72.431  1.00  0.00    -0.336 NA 
HETATM   25  C   UNL     1      -7.426   7.487  73.192  1.00  0.00    -0.088 C  
HETATM   26  C   UNL     1      -6.111   9.418  72.852  1.00  0.00     0.331 C  
ENDBRANCH   2  24
TORSDOF 5
ENDMDL
MODEL      154
REMARK 921   NORMALIZED FREE ENERGY PREDICTED BY IDOCK:   -2.35 KCAL/MOL
REMARK 922        TOTAL FREE ENERGY PREDICTED BY IDOCK:   -3.90 KCAL/MOL
REMARK 923 INTER-LIGAND FREE ENERGY PREDICTED BY IDOCK:   -4.34 KCAL/MOL
REMARK 924 INTRA-LIGAND FREE ENERGY PREDICTED BY IDOCK:    0.44 KCAL/MOL
REMARK 927      BINDING AFFINITY PREDICTED BY RF-SCORE:    0.00 PKD
ROOT
HETATM    1  C   UNL     1      -6.560   9.154  68.254  1.00  0.00    -0.059 C  
HETATM    2  C   UNL     1      -7.575   8.339  69.098  1.00  0.00    -0.088 C  
ENDROOT
BRANCH   2   3
HETATM    3  C   UNL     1      -8.765   8.010  68.108  1.00  0.00    -0.126 C  
BRANCH   3   4
HETATM    4  N   UNL     1      -9.366   9.125  67.327  1.00  0.00    -0.133 NA 
HETATM    5  C   UNL     1     -10.175  10.063  68.048  1.00  0.00    -0.181 A  
HETATM    6  C   UNL     1     -10.446   9.938  69.431  1.00  0.00    -0.250 A  
HETATM    7  C   UNL     1     -11.306  10.802  70.124  1.00  0.00    -0.390 A  
HETATM    8  C   UNL     1     -11.900  11.863  69.467  1.00  0.00    -0.395 A  
HETATM    9  C   UNL     1     -11.624  12.052  68.120  1.00  0.00    -0.403 A  
HETATM   10  C   UNL     1     -10.782  11.168  67.414  1.00  0.00    -0.250 A  
HETATM   11  S   UNL     1     -10.575  11.573  65.705  1.00  0.00    -0.269 SA 
HETATM   12  C   UNL     1      -9.564  10.244  65.115  1.00  0.00    -0.277 A  
HETATM   13  C   UNL     1      -9.054   9.205  65.928  1.00  0.00    -0.205 A  
HETATM   14  C   UNL     1      -8.248   8.252  65.257  1.00  0.00    -0.149 A  
HETATM   15  C   UNL     1      -7.969   8.336  63.881  1.00  0.00    -0.146 A  
HETATM   16  C   UNL     1      -8.488   9.364  63.111  1.00  0.00    -0.205 A  
HETATM   17  C   UNL     1      -9.292  10.308  63.730  1.00  0.00    -0.339 A  
BRANCH  15  18
HETATM   18  S   UNL     1      -6.847   7.170  63.129  1.00  0.00    -0.055 S  
HETATM   19  O   UNL     1      -5.894   7.924  62.343  1.00  0.00    -0.067 OA 
HETATM   20  O   UNL     1      -7.657   6.131  62.521  1.00  0.00    -0.059 OA 
BRANCH  18  21
HETATM   21  N   UNL     1      -6.039   6.490  64.461  1.00  0.00    -0.033 N  
HETATM   22  C   UNL     1      -6.632   5.278  65.050  1.00  0.00    -0.040 C  
HETATM   23  C   UNL     1      -5.505   7.428  65.464  1.00  0.00    -0.029 C  
ENDBRANCH  18  21
ENDBRANCH  15  18
ENDBRANCH   3   4
ENDBRANCH   2   3
BRANCH   2  24
HETATM   24  N   UNL     1      -6.842   7.259  69.835  1.00  0.00    -0.054 NA 
HETATM   25  C   UNL     1      -7.681   6.711  70.922  1.00  0.00    -0.094 C  
HETATM   26  C   UNL     1      -6.487   6.126  68.971  1.00  0.00    -0.043 C  
ENDBRANCH   2  24
TORSDOF 5
ENDMDL
MODEL      155
REMARK 921   NORMALIZED FREE ENERGY PREDICTED BY IDOCK:   -2.27 KCAL/MOL
REMARK 922        TOTAL FREE ENERGY PREDICTED BY IDOCK:   -3.80 KCAL/MOL
REMARK 923 INTER-LIGAND FREE ENERGY PREDICTED BY IDOCK:   -4.79 KCAL/MOL
REMARK 924 INTRA-LIGAND FREE ENERGY PREDICTED BY IDOCK:    0.99 KCAL/MOL
REMARK 927      BINDING AFFINITY PREDICTED BY RF-SCORE:    0.00 PKD
ROOT
HETATM    1  C   UNL     1      -9.722  12.126  68.750  1.00  0.00    -0.001 C  
HETATM    2  C   UNL     1     -11.268  12.130  68.618  1.00  0.00    -0.269 C  
ENDROOT
BRANCH   2   3
HETATM    3  C   UNL     1     -11.705  10.626  68.848  1.00  0.00    -0.211 C  
BRANCH   3   4
HETATM    4  N   UNL     1     -10.807   9.544  68.360  1.00  0.00    -0.179 NA 
HETATM    5  C   UNL     1     -10.456   8.517  69.296  1.00  0.00    -0.215 A  
HETATM    6  C   UNL     1     -10.889   8.525  70.642  1.00  0.00    -0.255 A  
HETATM    7  C   UNL     1     -10.479   7.572  71.585  1.00  0.00    -0.226 A  
HETATM    8  C   UNL     1      -9.648   6.535  71.205  1.00  0.00    -0.181 A  
HETATM    9  C   UNL     1      -9.236   6.461  69.882  1.00  0.00    -0.154 A  
HETATM   10  C   UNL     1      -9.624   7.435  68.939  1.00  0.00    -0.148 A  
HETATM   11  S   UNL     1      -8.978   7.169  67.313  1.00  0.00    -0.125 SA 
HETATM   12  C   UNL     1      -9.568   8.586  66.429  1.00  0.00    -0.245 A  
HETATM   13  C   UNL     1     -10.401   9.584  66.983  1.00  0.00    -0.250 A  
HETATM   14  C   UNL     1     -10.776  10.622  66.094  1.00  0.00    -0.146 A  
HETATM   15  C   UNL     1     -10.352  10.655  64.753  1.00  0.00    -0.283 A  
HETATM   16  C   UNL     1      -9.530   9.664  64.242  1.00  0.00    -0.089 A  
HETATM   17  C   UNL     1      -9.134   8.638  65.086  1.00  0.00    -0.045 A  
BRANCH  15  18
HETATM   18  S   UNL     1     -10.961  11.926  63.660  1.00  0.00    -0.455 S  
HETATM   19  O   UNL     1     -12.153  11.417  63.016  1.00  0.00    -0.042 OA 
HETATM   20  O   UNL     1      -9.831  12.389  62.875  1.00  0.00    -0.068 OA 
BRANCH  18  21
HETATM   21  N   UNL     1     -11.405  13.176  64.722  1.00  0.00    -0.313 N  
HETATM   22  C   UNL     1     -12.585  12.939  65.570  1.00  0.00    -0.296 C  
HETATM   23  C   UNL     1     -11.326  14.552  64.200  1.00  0.00     0.029 C  
ENDBRANCH  18  21
ENDBRANCH  15  18
ENDBRANCH   3   4
ENDBRANCH   2   3
BRANCH   2  24
HETATM   24  N   UNL     1     -11.827  13.248  69.446  1.00  0.00    -0.319 NA 
HETATM   25  C   UNL     1     -12.116  12.782  70.819  1.00  0.00    -0.155 C  
HETATM   26  C   UNL     1     -10.894  14.375  69.577  1.00  0.00    -0.150 C  
ENDBRANCH   2  24
TORSDOF 5
ENDMDL
MODEL      156
REMARK 921   NORMALIZED FREE ENERGY PREDICTED BY IDOCK:   -2.10 KCAL/MOL
REMARK 922        TOTAL FREE ENERGY PREDICTED BY IDOCK:   -3.58 KCAL/MOL
REMARK 923 INTER-LIGAND FREE ENERGY PREDICTED BY IDOCK:   -3.81 KCAL/MOL
REMARK 924 INTRA-LIGAND FREE ENERGY PREDICTED BY IDOCK:    0.23 KCAL/MOL
REMARK 927      BINDING AFFINITY PREDICTED BY RF-SCORE:    0.00 PKD
ROOT
HETATM    1  C   UNL     1     -11.088   6.384  67.222  1.00  0.00    -0.416 C  
HETATM    2  C   UNL     1     -10.365   7.691  66.803  1.00  0.00    -0.273 C  
ENDROOT
BRANCH   2   3
HETATM    3  C   UNL     1     -10.393   8.609  68.093  1.00  0.00    -0.216 C  
BRANCH   3   4
HETATM    4  N   UNL     1      -9.546   9.833  68.110  1.00  0.00    -0.142 NA 
HETATM    5  C   UNL     1      -9.984  10.939  67.311  1.00  0.00    -0.186 A  
HETATM    6  C   UNL     1     -11.138  10.887  66.496  1.00  0.00    -0.119 A  
HETATM    7  C   UNL     1     -11.524  11.934  65.646  1.00  0.00    -0.314 A  
HETATM    8  C   UNL     1     -10.788  13.104  65.610  1.00  0.00    -0.294 A  
HETATM    9  C   UNL     1      -9.674  13.216  66.429  1.00  0.00    -0.269 A  
HETATM   10  C   UNL     1      -9.269  12.154  67.264  1.00  0.00    -0.185 A  
HETATM   11  S   UNL     1      -7.814  12.492  68.213  1.00  0.00    -0.145 SA 
HETATM   12  C   UNL     1      -7.540  10.958  69.054  1.00  0.00    -0.135 A  
HETATM   13  C   UNL     1      -8.388   9.831  68.958  1.00  0.00    -0.127 A  
HETATM   14  C   UNL     1      -7.995   8.711  69.733  1.00  0.00    -0.095 A  
HETATM   15  C   UNL     1      -6.846   8.720  70.543  1.00  0.00    -0.046 A  
HETATM   16  C   UNL     1      -6.032   9.840  70.610  1.00  0.00    -0.078 A  
HETATM   17  C   UNL     1      -6.378  10.951  69.857  1.00  0.00    -0.132 A  
BRANCH  15  18
HETATM   18  S   UNL     1      -6.479   7.318  71.583  1.00  0.00    -0.039 S  
HETATM   19  O   UNL     1      -7.729   6.651  71.876  1.00  0.00    -0.095 OA 
HETATM   20  O   UNL     1      -5.621   7.794  72.652  1.00  0.00    -0.036 OA 
BRANCH  18  21
HETATM   21  N   UNL     1      -5.549   6.315  70.574  1.00  0.00    -0.018 N  
HETATM   22  C   UNL     1      -5.155   6.869  69.268  1.00  0.00    -0.014 C  
HETATM   23  C   UNL     1      -5.929   4.893  70.517  1.00  0.00    -0.018 C  
ENDBRANCH  18  21
ENDBRANCH  15  18
ENDBRANCH   3   4
ENDBRANCH   2   3
BRANCH   2  24
HETATM   24  N   UNL     1      -9.081   7.340  66.115  1.00  0.00    -0.153 NA 
HETATM   25  C   UNL     1      -8.394   8.562  65.643  1.00  0.00    -0.148 C  
HETATM   26  C   UNL     1      -8.135   6.647  67.000  1.00  0.00    -0.113 C  
ENDBRANCH   2  24
TORSDOF 5
ENDMDL
MODEL      157
REMARK 921   NORMALIZED FREE ENERGY PREDICTED BY IDOCK:   -1.79 KCAL/MOL
REMARK 922        TOTAL FREE ENERGY PREDICTED BY IDOCK:   -3.18 KCAL/MOL
REMARK 923 INTER-LIGAND FREE ENERGY PREDICTED BY IDOCK:   -4.64 KCAL/MOL
REMARK 924 INTRA-LIGAND FREE ENERGY PREDICTED BY IDOCK:    1.46 KCAL/MOL
REMARK 927      BINDING AFFINITY PREDICTED BY RF-SCORE:    0.00 PKD
ROOT
HETATM    1  C   UNL     1     -11.833  14.648  71.783  1.00  0.00    -0.300 C  
HETATM    2  C   UNL     1     -11.627  14.295  70.287  1.00  0.00    -0.224 C  
ENDROOT
BRANCH   2   3
HETATM    3  C   UNL     1     -12.236  12.844  70.118  1.00  0.00    -0.266 C  
BRANCH   3   4
HETATM    4  N   UNL     1     -11.305  11.709  69.871  1.00  0.00    -0.204 NA 
HETATM    5  C   UNL     1     -11.733  10.410  70.300  1.00  0.00    -0.321 A  
HETATM    6  C   UNL     1     -12.959  10.189  70.969  1.00  0.00    -0.473 A  
HETATM    7  C   UNL     1     -13.345   8.937  71.468  1.00  0.00    -0.374 A  
HETATM    8  C   UNL     1     -12.534   7.834  71.275  1.00  0.00    -0.301 A  
HETATM    9  C   UNL     1     -11.344   7.996  70.581  1.00  0.00    -0.256 A  
HETATM   10  C   UNL     1     -10.940   9.260  70.103  1.00  0.00    -0.246 A  
HETATM   11  S   UNL     1      -9.384   9.255  69.262  1.00  0.00    -0.165 SA 
HETATM   12  C   UNL     1      -9.144  10.969  68.888  1.00  0.00    -0.123 A  
HETATM   13  C   UNL     1     -10.076  11.990  69.184  1.00  0.00     0.209 A  
HETATM   14  C   UNL     1      -9.696  13.294  68.778  1.00  0.00     0.024 A  
HETATM   15  C   UNL     1      -8.478  13.553  68.123  1.00  0.00    -0.172 A  
HETATM   16  C   UNL     1      -7.584  12.531  67.852  1.00  0.00    -0.133 A  
HETATM   17  C   UNL     1      -7.917  11.244  68.245  1.00  0.00    -0.134 A  
BRANCH  15  18
HETATM   18  S   UNL     1      -8.119  15.198  67.533  1.00  0.00    -0.193 S  
HETATM   19  O   UNL     1      -8.623  16.136  68.514  1.00  0.00    -0.184 OA 
HETATM   20  O   UNL     1      -8.557  15.260  66.151  1.00  0.00    -0.177 OA 
BRANCH  18  21
HETATM   21  N   UNL     1      -6.420  15.256  67.545  1.00  0.00    -0.162 N  
HETATM   22  C   UNL     1      -5.750  14.824  68.783  1.00  0.00    -0.086 C  
HETATM   23  C   UNL     1      -5.791  16.432  66.918  1.00  0.00     0.043 C  
ENDBRANCH  18  21
ENDBRANCH  15  18
ENDBRANCH   3   4
ENDBRANCH   2   3
BRANCH   2  24
HETATM   24  N   UNL     1     -12.089  15.446  69.445  1.00  0.00    -0.310 NA 
HETATM   25  C   UNL     1     -11.322  16.668  69.771  1.00  0.00     0.092 C  
HETATM   26  C   UNL     1     -11.900  15.207  68.009  1.00  0.00    -0.202 C  
ENDBRANCH   2  24
TORSDOF 5
ENDMDL
MODEL      158
REMARK 921   NORMALIZED FREE ENERGY PREDICTED BY IDOCK:   -0.85 KCAL/MOL
REMARK 922        TOTAL FREE ENERGY PREDICTED BY IDOCK:   -1.96 KCAL/MOL
REMARK 923 INTER-LIGAND FREE ENERGY PREDICTED BY IDOCK:   -1.90 KCAL/MOL
REMARK 924 INTRA-LIGAND FREE ENERGY PREDICTED BY IDOCK:   -0.06 KCAL/MOL
REMARK 927      BINDING AFFINITY PREDICTED BY RF-SCORE:    0.00 PKD
ROOT
HETATM    1  C   UNL     1      -8.048   3.514  64.770  1.00  0.00    -0.090 C  
HETATM    2  C   UNL     1      -8.162   5.058  64.859  1.00  0.00    -0.132 C  
ENDROOT
BRANCH   2   3
HETATM    3  C   UNL     1      -8.793   5.344  66.282  1.00  0.00    -0.131 C  
BRANCH   3   4
HETATM    4  N   UNL     1      -8.201   6.427  67.115  1.00  0.00    -0.112 NA 
HETATM    5  C   UNL     1      -8.333   7.769  66.629  1.00  0.00    -0.126 A  
HETATM    6  C   UNL     1      -8.953   8.080  65.396  1.00  0.00     0.013 A  
HETATM    7  C   UNL     1      -9.009   9.380  64.874  1.00  0.00    -0.256 A  
HETATM    8  C   UNL     1      -8.483  10.438  65.591  1.00  0.00    -0.169 A  
HETATM    9  C   UNL     1      -7.908  10.185  66.828  1.00  0.00    -0.108 A  
HETATM   10  C   UNL     1      -7.825   8.874  67.343  1.00  0.00    -0.097 A  
HETATM   11  S   UNL     1      -7.040   8.764  68.924  1.00  0.00    -0.067 SA 
HETATM   12  C   UNL     1      -7.021   7.018  69.222  1.00  0.00    -0.074 A  
HETATM   13  C   UNL     1      -7.588   6.054  68.358  1.00  0.00    -0.091 A  
HETATM   14  C   UNL     1      -7.481   4.711  68.798  1.00  0.00    -0.064 A  
HETATM   15  C   UNL     1      -6.859   4.362  70.010  1.00  0.00    -0.041 A  
HETATM   16  C   UNL     1      -6.308   5.331  70.832  1.00  0.00    -0.023 A  
HETATM   17  C   UNL     1      -6.383   6.655  70.429  1.00  0.00    -0.043 A  
BRANCH  15  18
HETATM   18  S   UNL     1      -6.868   2.664  70.558  1.00  0.00    -0.033 S  
HETATM   19  O   UNL     1      -5.541   2.128  70.348  1.00  0.00    -0.015 OA 
HETATM   20  O   UNL     1      -8.030   2.031  69.962  1.00  0.00    -0.042 OA 
BRANCH  18  21
HETATM   21  N   UNL     1      -7.146   2.794  72.230  1.00  0.00    -0.036 N  
HETATM   22  C   UNL     1      -5.959   2.914  73.093  1.00  0.00    -0.008 C  
HETATM   23  C   UNL     1      -8.199   1.934  72.798  1.00  0.00    -0.054 C  
ENDBRANCH  18  21
ENDBRANCH  15  18
ENDBRANCH   3   4
ENDBRANCH   2   3
BRANCH   2  24
HETATM   24  N   UNL     1      -6.861   5.670  64.437  1.00  0.00    -0.049 NA 
HETATM   25  C   UNL     1      -5.752   4.709  64.620  1.00  0.00    -0.014 C  
HETATM   26  C   UNL     1      -6.850   6.053  63.019  1.00  0.00    -0.040 C  
ENDBRANCH   2  24
TORSDOF 5
ENDMDL
MODEL      159
REMARK 921   NORMALIZED FREE ENERGY PREDICTED BY IDOCK:   -0.34 KCAL/MOL
REMARK 922        TOTAL FREE ENERGY PREDICTED BY IDOCK:   -1.31 KCAL/MOL
REMARK 923 INTER-LIGAND FREE ENERGY PREDICTED BY IDOCK:   -1.18 KCAL/MOL
REMARK 924 INTRA-LIGAND FREE ENERGY PREDICTED BY IDOCK:   -0.13 KCAL/MOL
REMARK 927      BINDING AFFINITY PREDICTED BY RF-SCORE:    0.00 PKD
ROOT
HETATM    1  C   UNL     1      -9.961  13.256  64.927  1.00  0.00    -0.156 C  
HETATM    2  C   UNL     1     -10.599  12.863  66.286  1.00  0.00    -0.266 C  
ENDROOT
BRANCH   2   3
HETATM    3  C   UNL     1     -11.134  11.388  66.079  1.00  0.00    -0.173 C  
BRANCH   3   4
HETATM    4  N   UNL     1     -10.551  10.299  66.911  1.00  0.00    -0.238 NA 
HETATM    5  C   UNL     1      -9.646   9.397  66.262  1.00  0.00    -0.234 A  
HETATM    6  C   UNL     1      -9.334   9.483  64.885  1.00  0.00    -0.264 A  
HETATM    7  C   UNL     1      -8.518   8.552  64.225  1.00  0.00    -0.068 A  
HETATM    8  C   UNL     1      -7.938   7.516  64.931  1.00  0.00    -0.132 A  
HETATM    9  C   UNL     1      -8.179   7.421  66.294  1.00  0.00    -0.126 A  
HETATM   10  C   UNL     1      -9.022   8.339  66.955  1.00  0.00    -0.146 A  
HETATM   11  S   UNL     1      -9.212   8.033  68.687  1.00  0.00    -0.142 SA 
HETATM   12  C   UNL     1     -10.375   9.278  69.171  1.00  0.00    -0.211 A  
HETATM   13  C   UNL     1     -10.899  10.263  68.303  1.00  0.00    -0.255 A  
HETATM   14  C   UNL     1     -11.800  11.179  68.901  1.00  0.00    -0.406 A  
HETATM   15  C   UNL     1     -12.146  11.116  70.263  1.00  0.00    -0.377 A  
HETATM   16  C   UNL     1     -11.618  10.135  71.086  1.00  0.00    -0.430 A  
HETATM   17  C   UNL     1     -10.742   9.214  70.534  1.00  0.00    -0.289 A  
BRANCH  15  18
HETATM   18  S   UNL     1     -13.191  12.375  70.975  1.00  0.00     0.417 S  
HETATM   19  O   UNL     1     -13.795  11.820  72.167  1.00  0.00    -0.114 OA 
HETATM   20  O   UNL     1     -14.011  12.904  69.901  1.00  0.00     3.340 OA 
BRANCH  18  21
HETATM   21  N   UNL     1     -12.089  13.585  71.434  1.00  0.00    -0.034 N  
HETATM   22  C   UNL     1     -12.497  14.471  72.536  1.00  0.00    -0.253 C  
HETATM   23  C   UNL     1     -11.383  14.287  70.348  1.00  0.00    -0.040 C  
ENDBRANCH  18  21
ENDBRANCH  15  18
ENDBRANCH   3   4
ENDBRANCH   2   3
BRANCH   2  24
HETATM   24  N   UNL     1      -9.646  13.208  67.391  1.00  0.00    -0.213 NA 
HETATM   25  C   UNL     1      -8.297  12.678  67.097  1.00  0.00    -0.172 C  
HETATM   26  C   UNL     1      -9.493  14.657  67.574  1.00  0.00    -0.198 C  
ENDBRANCH   2  24
TORSDOF 5
ENDMDL
MODEL      160
REMARK 921   NORMALIZED FREE ENERGY PREDICTED BY IDOCK:    0.03 KCAL/MOL
REMARK 922        TOTAL FREE ENERGY PREDICTED BY IDOCK:   -0.82 KCAL/MOL
REMARK 923 INTER-LIGAND FREE ENERGY PREDICTED BY IDOCK:   -1.42 KCAL/MOL
REMARK 924 INTRA-LIGAND FREE ENERGY PREDICTED BY IDOCK:    0.60 KCAL/MOL
REMARK 927      BINDING AFFINITY PREDICTED BY RF-SCORE:    0.00 PKD
ROOT
HETATM    1  C   UNL     1      -6.302  11.172  70.287  1.00  0.00    -0.097 C  
HETATM    2  C   UNL     1      -7.604  10.435  69.877  1.00  0.00    -0.100 C  
ENDROOT
BRANCH   2   3
HETATM    3  C   UNL     1      -7.828   9.339  70.997  1.00  0.00    -0.067 C  
BRANCH   3   4
HETATM    4  N   UNL     1      -7.939   7.914  70.582  1.00  0.00    -0.095 NA 
HETATM    5  C   UNL     1      -8.484   6.998  71.540  1.00  0.00    -0.116 A  
HETATM    6  C   UNL     1      -8.868   7.389  72.844  1.00  0.00    -0.173 A  
HETATM    7  C   UNL     1      -9.320   6.482  73.813  1.00  0.00    -0.167 A  
HETATM    8  C   UNL     1      -9.453   5.142  73.501  1.00  0.00    -0.136 A  
HETATM    9  C   UNL     1      -9.133   4.722  72.219  1.00  0.00    -0.144 A  
HETATM   10  C   UNL     1      -8.650   5.627  71.250  1.00  0.00    -0.128 A  
HETATM   11  S   UNL     1      -8.284   4.888  69.685  1.00  0.00    -0.080 SA 
HETATM   12  C   UNL     1      -7.631   6.250  68.761  1.00  0.00    -0.092 A  
HETATM   13  C   UNL     1      -7.538   7.574  69.246  1.00  0.00    -0.100 A  
HETATM   14  C   UNL     1      -7.004   8.518  68.334  1.00  0.00    -0.066 A  
HETATM   15  C   UNL     1      -6.598   8.163  67.034  1.00  0.00    -0.058 A  
HETATM   16  C   UNL     1      -6.697   6.854  66.591  1.00  0.00    -0.049 A  
HETATM   17  C   UNL     1      -7.204   5.901  67.460  1.00  0.00    -0.076 A  
BRANCH  15  18
HETATM   18  S   UNL     1      -6.048   9.424  65.899  1.00  0.00    -0.056 S  
HETATM   19  O   UNL     1      -5.229   8.783  64.894  1.00  0.00    -0.038 OA 
HETATM   20  O   UNL     1      -5.527  10.518  66.697  1.00  0.00    -0.045 OA 
BRANCH  18  21
HETATM   21  N   UNL     1      -7.492   9.951  65.171  1.00  0.00    -0.127 N  
HETATM   22  C   UNL     1      -7.703   9.571  63.764  1.00  0.00    -0.126 C  
HETATM   23  C   UNL     1      -7.928  11.324  65.479  1.00  0.00     0.300 C  
ENDBRANCH  18  21
ENDBRANCH  15  18
ENDBRANCH   3   4
ENDBRANCH   2   3
BRANCH   2  24
HETATM   24  N   UNL     1      -8.656  11.450  69.547  1.00  0.00     0.522 NA 
HETATM   25  C   UNL     1      -8.082  12.552  68.746  1.00  0.00     0.087 C  
HETATM   26  C   UNL     1      -9.755  10.887  68.753  1.00  0.00    -0.189 C  
ENDBRANCH   2  24
TORSDOF 5
ENDMDL
MODEL      161
REMARK 921   NORMALIZED FREE ENERGY PREDICTED BY IDOCK:    1.47 KCAL/MOL
REMARK 922        TOTAL FREE ENERGY PREDICTED BY IDOCK:    1.04 KCAL/MOL
REMARK 923 INTER-LIGAND FREE ENERGY PREDICTED BY IDOCK:   -3.66 KCAL/MOL
REMARK 924 INTRA-LIGAND FREE ENERGY PREDICTED BY IDOCK:    4.70 KCAL/MOL
REMARK 927      BINDING AFFINITY PREDICTED BY RF-SCORE:    0.00 PKD
ROOT
HETATM    1  C   UNL     1      -8.565  11.521  67.099  1.00  0.00    -0.155 C  
HETATM    2  C   UNL     1      -7.362  11.533  68.078  1.00  0.00    -0.091 C  
ENDROOT
BRANCH   2   3
HETATM    3  C   UNL     1      -7.922  10.921  69.427  1.00  0.00    -0.017 C  
BRANCH   3   4
HETATM    4  N   UNL     1      -9.381  11.026  69.700  1.00  0.00     0.341 NA 
HETATM    5  C   UNL     1     -10.074  12.138  69.119  1.00  0.00     0.247 A  
HETATM    6  C   UNL     1      -9.423  13.132  68.352  1.00  0.00    -0.166 A  
HETATM    7  C   UNL     1     -10.078  14.267  67.854  1.00  0.00    -0.233 A  
HETATM    8  C   UNL     1     -11.434  14.433  68.065  1.00  0.00    -0.336 A  
HETATM    9  C   UNL     1     -12.123  13.458  68.771  1.00  0.00    -0.281 A  
HETATM   10  C   UNL     1     -11.460  12.329  69.298  1.00  0.00    -0.292 A  
HETATM   11  S   UNL     1     -12.514  11.215  70.180  1.00  0.00    -0.200 SA 
HETATM   12  C   UNL     1     -11.374   9.994  70.770  1.00  0.00    -0.360 A  
HETATM   13  C   UNL     1      -9.991   9.987  70.481  1.00  0.00     0.029 A  
HETATM   14  C   UNL     1      -9.262   8.905  71.035  1.00  0.00    -0.307 A  
HETATM   15  C   UNL     1      -9.873   7.906  71.814  1.00  0.00    -0.173 A  
HETATM   16  C   UNL     1     -11.232   7.946  72.084  1.00  0.00    -0.363 A  
HETATM   17  C   UNL     1     -11.975   8.996  71.568  1.00  0.00    -0.414 A  
BRANCH  15  18
HETATM   18  S   UNL     1      -8.918   6.509  72.378  1.00  0.00    -0.132 S  
HETATM   19  O   UNL     1      -9.652   5.309  72.038  1.00  0.00    -0.149 OA 
HETATM   20  O   UNL     1      -8.532   6.782  73.750  1.00  0.00    -0.121 OA 
BRANCH  18  21
HETATM   21  N   UNL     1      -7.516   6.582  71.419  1.00  0.00    -0.087 N  
HETATM   22  C   UNL     1      -6.612   7.721  71.648  1.00  0.00    -0.042 C  
HETATM   23  C   UNL     1      -7.666   6.231  69.995  1.00  0.00    -0.101 C  
ENDBRANCH  18  21
ENDBRANCH  15  18
ENDBRANCH   3   4
ENDBRANCH   2   3
BRANCH   2  24
HETATM   24  N   UNL     1      -6.165  10.952  67.388  1.00  0.00    -0.054 NA 
HETATM   25  C   UNL     1      -6.555  10.341  66.099  1.00  0.00    -0.105 C  
HETATM   26  C   UNL     1      -5.146  11.963  67.077  1.00  0.00    -0.097 C  
ENDBRANCH   2  24
TORSDOF 5
ENDMDL
MODEL      162
REMARK 921   NORMALIZED FREE ENERGY PREDICTED BY IDOCK:    3.72 KCAL/MOL
REMARK 922        TOTAL FREE ENERGY PREDICTED BY IDOCK:    3.95 KCAL/MOL
REMARK 923 INTER-LIGAND FREE ENERGY PREDICTED BY IDOCK:    1.63 KCAL/MOL
REMARK 924 INTRA-LIGAND FREE ENERGY PREDICTED BY IDOCK:    2.32 KCAL/MOL
REMARK 927      BINDING AFFINITY PREDICTED BY RF-SCORE:    0.00 PKD
ROOT
HETATM    1  C   UNL     1     -10.523  14.773  63.668  1.00  0.00     3.304 C  
HETATM    2  C   UNL     1     -11.015  13.999  64.919  1.00  0.00    -0.392 C  
ENDROOT
BRANCH   2   3
HETATM    3  C   UNL     1     -11.003  12.474  64.493  1.00  0.00    -0.323 C  
BRANCH   3   4
HETATM    4  N   UNL     1     -10.254  11.507  65.341  1.00  0.00    -0.252 NA 
HETATM    5  C   UNL     1      -9.395  10.578  64.667  1.00  0.00    -0.248 A  
HETATM    6  C   UNL     1      -9.276  10.527  63.258  1.00  0.00    -0.299 A  
HETATM    7  C   UNL     1      -8.506   9.565  62.589  1.00  0.00    -0.190 A  
HETATM    8  C   UNL     1      -7.780   8.635  63.309  1.00  0.00    -0.134 A  
HETATM    9  C   UNL     1      -7.830   8.679  64.695  1.00  0.00    -0.129 A  
HETATM   10  C   UNL     1      -8.626   9.627  65.370  1.00  0.00    -0.151 A  
HETATM   11  S   UNL     1      -8.565   9.503  67.134  1.00  0.00    -0.132 SA 
HETATM   12  C   UNL     1      -9.719  10.744  67.646  1.00  0.00    -0.166 A  
HETATM   13  C   UNL     1     -10.410  11.607  66.764  1.00  0.00    -0.222 A  
HETATM   14  C   UNL     1     -11.272  12.544  67.386  1.00  0.00    -0.344 A  
HETATM   15  C   UNL     1     -11.427  12.615  68.782  1.00  0.00    -0.306 A  
HETATM   16  C   UNL     1     -10.740  11.751  69.619  1.00  0.00     0.157 A  
HETATM   17  C   UNL     1      -9.896  10.812  69.046  1.00  0.00    -0.208 A  
BRANCH  15  18
HETATM   18  S   UNL     1     -12.436  13.899  69.501  1.00  0.00     0.069 S  
HETATM   19  O   UNL     1     -13.634  13.276  70.020  1.00  0.00     1.308 OA 
HETATM   20  O   UNL     1     -12.516  14.973  68.528  1.00  0.00     0.038 OA 
BRANCH  18  21
HETATM   21  N   UNL     1     -11.497  14.448  70.808  1.00  0.00    -0.163 N  
HETATM   22  C   UNL     1     -11.954  14.075  72.157  1.00  0.00     0.495 C  
HETATM   23  C   UNL     1     -10.983  15.826  70.724  1.00  0.00    -0.281 C  
ENDBRANCH  18  21
ENDBRANCH  15  18
ENDBRANCH   3   4
ENDBRANCH   2   3
BRANCH   2  24
HETATM   24  N   UNL     1     -10.265  14.486  66.122  1.00  0.00    -0.293 NA 
HETATM   25  C   UNL     1      -8.833  14.666  65.802  1.00  0.00     0.778 C  
HETATM   26  C   UNL     1     -10.751  15.785  66.603  1.00  0.00    -0.287 C  
ENDBRANCH   2  24
TORSDOF 5
ENDMDL
MODEL      163
REMARK 921   NORMALIZED FREE ENERGY PREDICTED BY IDOCK:    5.16 KCAL/MOL
REMARK 922        TOTAL FREE ENERGY PREDICTED BY IDOCK:    5.81 KCAL/MOL
REMARK 923 INTER-LIGAND FREE ENERGY PREDICTED BY IDOCK:    3.65 KCAL/MOL
REMARK 924 INTRA-LIGAND FREE ENERGY PREDICTED BY IDOCK:    2.16 KCAL/MOL
REMARK 927      BINDING AFFINITY PREDICTED BY RF-SCORE:    0.00 PKD
ROOT
HETATM    1  C   UNL     1     -10.222  14.826  63.324  1.00  0.00     6.710 C  
HETATM    2  C   UNL     1     -10.875  14.524  64.699  1.00  0.00    -0.332 C  
ENDROOT
BRANCH   2   3
HETATM    3  C   UNL     1     -11.012  12.948  64.754  1.00  0.00    -0.318 C  
BRANCH   3   4
HETATM    4  N   UNL     1     -10.786  12.262  66.055  1.00  0.00    -0.265 NA 
HETATM    5  C   UNL     1     -11.390  12.850  67.215  1.00  0.00    -0.310 A  
HETATM    6  C   UNL     1     -12.135  14.051  67.165  1.00  0.00    -0.436 A  
HETATM    7  C   UNL     1     -12.655  14.678  68.308  1.00  0.00     0.508 A  
HETATM    8  C   UNL     1     -12.489  14.099  69.551  1.00  0.00    -0.165 A  
HETATM    9  C   UNL     1     -11.805  12.895  69.641  1.00  0.00    -0.387 A  
HETATM   10  C   UNL     1     -11.257  12.278  68.497  1.00  0.00    -0.271 A  
HETATM   11  S   UNL     1     -10.409  10.760  68.828  1.00  0.00    -0.202 SA 
HETATM   12  C   UNL     1      -9.782  10.315  67.232  1.00  0.00    -0.166 A  
HETATM   13  C   UNL     1     -10.026  11.044  66.045  1.00  0.00    -0.237 A  
HETATM   14  C   UNL     1      -9.448  10.501  64.871  1.00  0.00    -0.304 A  
HETATM   15  C   UNL     1      -8.689   9.317  64.884  1.00  0.00    -0.192 A  
HETATM   16  C   UNL     1      -8.463   8.629  66.065  1.00  0.00    -0.151 A  
HETATM   17  C   UNL     1      -9.003   9.137  67.236  1.00  0.00    -0.136 A  
BRANCH  15  18
HETATM   18  S   UNL     1      -8.094   8.626  63.351  1.00  0.00    -0.154 S  
HETATM   19  O   UNL     1      -6.776   9.171  63.106  1.00  0.00    -0.091 OA 
HETATM   20  O   UNL     1      -9.156   8.779  62.374  1.00  0.00    -0.084 OA 
BRANCH  18  21
HETATM   21  N   UNL     1      -7.943   6.969  63.701  1.00  0.00    -0.107 N  
HETATM   22  C   UNL     1      -6.577   6.451  63.886  1.00  0.00    -0.033 C  
HETATM   23  C   UNL     1      -8.821   6.050  62.958  1.00  0.00     0.450 C  
ENDBRANCH  18  21
ENDBRANCH  15  18
ENDBRANCH   3   4
ENDBRANCH   2   3
BRANCH   2  24
HETATM   24  N   UNL     1     -10.149  15.289  65.763  1.00  0.00    -0.328 NA 
HETATM   25  C   UNL     1      -8.946  14.551  66.204  1.00  0.00     0.070 C  
HETATM   26  C   UNL     1      -9.684  16.602  65.298  1.00  0.00     0.577 C  
ENDBRANCH   2  24
TORSDOF 5
ENDMDL
MODEL      164
REMARK 921   NORMALIZED FREE ENERGY PREDICTED BY IDOCK:    7.10 KCAL/MOL
REMARK 922        TOTAL FREE ENERGY PREDICTED BY IDOCK:    8.32 KCAL/MOL
REMARK 923 INTER-LIGAND FREE ENERGY PREDICTED BY IDOCK:    0.76 KCAL/MOL
REMARK 924 INTRA-LIGAND FREE ENERGY PREDICTED BY IDOCK:    7.56 KCAL/MOL
REMARK 927      BINDING AFFINITY PREDICTED BY RF-SCORE:    0.00 PKD
ROOT
HETATM    1  C   UNL     1      -8.296   1.977  65.921  1.00  0.00    -0.095 C  
HETATM    2  C   UNL     1      -9.256   3.195  65.974  1.00  0.00    -0.134 C  
ENDROOT
BRANCH   2   3
HETATM    3  C   UNL     1      -9.414   3.529  67.513  1.00  0.00    -0.186 C  
BRANCH   3   4
HETATM    4  N   UNL     1      -9.067   4.900  67.980  1.00  0.00    -0.110 NA 
HETATM    5  C   UNL     1      -9.227   5.968  67.038  1.00  0.00    -0.121 A  
HETATM    6  C   UNL     1      -9.650   5.758  65.705  1.00  0.00     0.129 A  
HETATM    7  C   UNL     1      -9.725   6.787  64.754  1.00  0.00     2.331 A  
HETATM    8  C   UNL     1      -9.422   8.086  65.113  1.00  0.00     0.852 A  
HETATM    9  C   UNL     1      -9.048   8.345  66.424  1.00  0.00    -0.231 A  
HETATM   10  C   UNL     1      -8.944   7.309  67.375  1.00  0.00    -0.122 A  
HETATM   11  S   UNL     1      -8.437   7.846  68.982  1.00  0.00    -0.131 SA 
HETATM   12  C   UNL     1      -8.321   6.322  69.878  1.00  0.00    -0.129 A  
HETATM   13  C   UNL     1      -8.648   5.055  69.344  1.00  0.00    -0.088 A  
HETATM   14  C   UNL     1      -8.505   3.966  70.240  1.00  0.00    -0.091 A  
HETATM   15  C   UNL     1      -8.073   4.135  71.568  1.00  0.00    -0.082 A  
HETATM   16  C   UNL     1      -7.756   5.390  72.059  1.00  0.00    -0.101 A  
HETATM   17  C   UNL     1      -7.872   6.478  71.208  1.00  0.00    -0.103 A  
BRANCH  15  18
HETATM   18  S   UNL     1      -8.033   2.735  72.674  1.00  0.00    -0.059 S  
HETATM   19  O   UNL     1      -6.782   2.784  73.398  1.00  0.00    -0.021 OA 
HETATM   20  O   UNL     1      -8.397   1.566  71.896  1.00  0.00    -0.044 OA 
BRANCH  18  21
HETATM   21  N   UNL     1      -9.303   3.057  73.757  1.00  0.00    -0.084 N  
HETATM   22  C   UNL     1     -10.668   2.776  73.282  1.00  0.00    -0.175 C  
HETATM   23  C   UNL     1      -9.203   4.294  74.551  1.00  0.00    -0.102 C  
ENDBRANCH  18  21
ENDBRANCH  15  18
ENDBRANCH   3   4
ENDBRANCH   2   3
BRANCH   2  24
HETATM   24  N   UNL     1      -8.794   4.224  64.988  1.00  0.00    -0.130 NA 
HETATM   25  C   UNL     1      -7.350   4.066  64.711  1.00  0.00    -0.071 C  
HETATM   26  C   UNL     1      -9.480   4.116  63.694  1.00  0.00    -0.142 C  
ENDBRANCH   2  24
TORSDOF 5
ENDMDL
MODEL      165
REMARK 921   NORMALIZED FREE ENERGY PREDICTED BY IDOCK:    7.56 KCAL/MOL
REMARK 922        TOTAL FREE ENERGY PREDICTED BY IDOCK:    8.91 KCAL/MOL
REMARK 923 INTER-LIGAND FREE ENERGY PREDICTED BY IDOCK:   -0.66 KCAL/MOL
REMARK 924 INTRA-LIGAND FREE ENERGY PREDICTED BY IDOCK:    9.58 KCAL/MOL
REMARK 927      BINDING AFFINITY PREDICTED BY RF-SCORE:    0.00 PKD
ROOT
HETATM    1  C   UNL     1      -8.999  11.885  69.566  1.00  0.00     1.244 C  
HETATM    2  C   UNL     1     -10.095  11.554  68.518  1.00  0.00    -0.207 C  
ENDROOT
BRANCH   2   3
HETATM    3  C   UNL     1     -10.273   9.983  68.589  1.00  0.00    -0.180 C  
BRANCH   3   4
HETATM    4  N   UNL     1      -9.065   9.143  68.818  1.00  0.00    -0.136 NA 
HETATM    5  C   UNL     1      -9.218   7.726  68.659  1.00  0.00    -0.138 A  
HETATM    6  C   UNL     1     -10.456   7.119  68.345  1.00  0.00    -0.228 A  
HETATM    7  C   UNL     1     -10.631   5.729  68.273  1.00  0.00    -0.286 A  
HETATM    8  C   UNL     1      -9.555   4.884  68.471  1.00  0.00    -0.210 A  
HETATM    9  C   UNL     1      -8.311   5.439  68.735  1.00  0.00    -0.097 A  
HETATM   10  C   UNL     1      -8.138   6.835  68.835  1.00  0.00    -0.120 A  
HETATM   11  S   UNL     1      -6.481   7.337  69.195  1.00  0.00    -0.037 SA 
HETATM   12  C   UNL     1      -6.635   9.096  69.341  1.00  0.00    -0.044 A  
HETATM   13  C   UNL     1      -7.835   9.813  69.131  1.00  0.00    -0.095 A  
HETATM   14  C   UNL     1      -7.733  11.219  69.277  1.00  0.00     0.010 A  
HETATM   15  C   UNL     1      -6.523  11.856  69.603  1.00  0.00    -0.101 A  
HETATM   16  C   UNL     1      -5.365  11.124  69.808  1.00  0.00    -0.049 A  
HETATM   17  C   UNL     1      -5.429   9.745  69.686  1.00  0.00    -0.033 A  
BRANCH  15  18
HETATM   18  S   UNL     1      -6.441  13.638  69.651  1.00  0.00    -0.041 S  
HETATM   19  O   UNL     1      -5.149  14.004  70.189  1.00  0.00    -0.089 OA 
HETATM   20  O   UNL     1      -7.666  14.104  70.275  1.00  0.00     0.751 OA 
BRANCH  18  21
HETATM   21  N   UNL     1      -6.493  14.076  68.010  1.00  0.00    -0.132 N  
HETATM   22  C   UNL     1      -7.691  14.801  67.553  1.00  0.00    -0.194 C  
HETATM   23  C   UNL     1      -6.007  13.080  67.040  1.00  0.00     0.560 C  
ENDBRANCH  18  21
ENDBRANCH  15  18
ENDBRANCH   3   4
ENDBRANCH   2   3
BRANCH   2  24
HETATM   24  N   UNL     1     -11.252  12.487  68.711  1.00  0.00    -0.256 NA 
HETATM   25  C   UNL     1     -11.898  12.249  70.020  1.00  0.00    -0.296 C  
HETATM   26  C   UNL     1     -10.849  13.899  68.696  1.00  0.00    -0.262 C  
ENDBRANCH   2  24
TORSDOF 5
ENDMDL
MODEL      166
REMARK 921   NORMALIZED FREE ENERGY PREDICTED BY IDOCK:    8.57 KCAL/MOL
REMARK 922        TOTAL FREE ENERGY PREDICTED BY IDOCK:   10.21 KCAL/MOL
REMARK 923 INTER-LIGAND FREE ENERGY PREDICTED BY IDOCK:    5.00 KCAL/MOL
REMARK 924 INTRA-LIGAND FREE ENERGY PREDICTED BY IDOCK:    5.21 KCAL/MOL
REMARK 927      BINDING AFFINITY PREDICTED BY RF-SCORE:    0.00 PKD
ROOT
HETATM    1  C   UNL     1      -9.584  12.004  67.162  1.00  0.00    -0.195 C  
HETATM    2  C   UNL     1      -8.295  12.867  67.116  1.00  0.00    -0.157 C  
ENDROOT
BRANCH   2   3
HETATM    3  C   UNL     1      -8.687  14.148  66.273  1.00  0.00     0.341 C  
BRANCH   3   4
HETATM    4  N   UNL     1      -9.578  15.163  66.898  1.00  0.00    -0.231 NA 
HETATM    5  C   UNL     1     -10.651  14.673  67.713  1.00  0.00    -0.251 A  
HETATM    6  C   UNL     1     -10.905  13.295  67.899  1.00  0.00    -0.260 A  
HETATM    7  C   UNL     1     -12.004  12.809  68.624  1.00  0.00    -0.272 A  
HETATM    8  C   UNL     1     -12.874  13.691  69.236  1.00  0.00     0.868 A  
HETATM    9  C   UNL     1     -12.635  15.053  69.119  1.00  0.00     0.165 A  
HETATM   10  C   UNL     1     -11.548  15.544  68.368  1.00  0.00    -0.357 A  
HETATM   11  S   UNL     1     -11.430  17.309  68.329  1.00  0.00     0.804 SA 
HETATM   12  C   UNL     1     -10.050  17.578  67.252  1.00  0.00    -0.327 A  
HETATM   13  C   UNL     1      -9.271  16.548  66.679  1.00  0.00    -0.250 A  
HETATM   14  C   UNL     1      -8.197  16.984  65.863  1.00  0.00    -0.004 A  
HETATM   15  C   UNL     1      -7.922  18.346  65.644  1.00  0.00     0.368 A  
HETATM   16  C   UNL     1      -8.709  19.331  66.216  1.00  0.00    -0.333 A  
HETATM   17  C   UNL     1      -9.776  18.943  67.011  1.00  0.00    -0.349 A  
BRANCH  15  18
HETATM   18  S   UNL     1      -6.482  18.822  64.705  1.00  0.00     0.639 S  
HETATM   19  O   UNL     1      -6.602  18.235  63.388  1.00  0.00     3.376 OA 
HETATM   20  O   UNL     1      -5.323  18.554  65.537  1.00  0.00    -0.144 OA 
BRANCH  18  21
HETATM   21  N   UNL     1      -6.645  20.509  64.567  1.00  0.00    -0.285 N  
HETATM   22  C   UNL     1      -6.382  21.303  65.779  1.00  0.00    -0.031 C  
HETATM   23  C   UNL     1      -7.787  21.004  63.779  1.00  0.00     1.876 C  
ENDBRANCH  18  21
ENDBRANCH  15  18
ENDBRANCH   3   4
ENDBRANCH   2   3
BRANCH   2  24
HETATM   24  N   UNL     1      -7.732  12.977  68.500  1.00  0.00    -0.128 NA 
HETATM   25  C   UNL     1      -7.846  11.686  69.211  1.00  0.00     0.222 C  
HETATM   26  C   UNL     1      -6.306  13.329  68.503  1.00  0.00    -0.083 C  
ENDBRANCH   2  24
TORSDOF 5
ENDMDL
MODEL      167
REMARK 921   NORMALIZED FREE ENERGY PREDICTED BY IDOCK:    9.10 KCAL/MOL
REMARK 922        TOTAL FREE ENERGY PREDICTED BY IDOCK:   10.90 KCAL/MOL
REMARK 923 INTER-LIGAND FREE ENERGY PREDICTED BY IDOCK:   11.48 KCAL/MOL
REMARK 924 INTRA-LIGAND FREE ENERGY PREDICTED BY IDOCK:   -0.59 KCAL/MOL
REMARK 927      BINDING AFFINITY PREDICTED BY RF-SCORE:    0.00 PKD
ROOT
HETATM    1  C   UNL     1     -11.890  13.192  70.393  1.00  0.00    -0.259 C  
HETATM    2  C   UNL     1     -10.856  14.318  70.131  1.00  0.00     0.228 C  
ENDROOT
BRANCH   2   3
HETATM    3  C   UNL     1     -11.091  14.751  68.626  1.00  0.00    -0.262 C  
BRANCH   3   4
HETATM    4  N   UNL     1     -10.060  14.390  67.615  1.00  0.00    -0.221 NA 
HETATM    5  C   UNL     1     -10.349  13.277  66.760  1.00  0.00    -0.257 A  
HETATM    6  C   UNL     1     -11.530  12.508  66.874  1.00  0.00    -0.416 A  
HETATM    7  C   UNL     1     -11.780  11.366  66.099  1.00  0.00     0.332 A  
HETATM    8  C   UNL     1     -10.870  10.970  65.137  1.00  0.00    -0.183 A  
HETATM    9  C   UNL     1      -9.719  11.723  64.958  1.00  0.00    -0.212 A  
HETATM   10  C   UNL     1      -9.452  12.855  65.755  1.00  0.00     0.013 A  
HETATM   11  S   UNL     1      -7.924  13.664  65.380  1.00  0.00     5.953 SA 
HETATM   12  C   UNL     1      -7.862  14.951  66.596  1.00  0.00     0.382 A  
HETATM   13  C   UNL     1      -8.882  15.207  67.541  1.00  0.00    -0.182 A  
HETATM   14  C   UNL     1      -8.640  16.300  68.410  1.00  0.00    -0.200 A  
HETATM   15  C   UNL     1      -7.471  17.078  68.335  1.00  0.00    -0.213 A  
HETATM   16  C   UNL     1      -6.488  16.797  67.401  1.00  0.00    -0.192 A  
HETATM   17  C   UNL     1      -6.684  15.727  66.541  1.00  0.00     0.977 A  
BRANCH  15  18
HETATM   18  S   UNL     1      -7.289  18.513  69.380  1.00  0.00     0.143 S  
HETATM   19  O   UNL     1      -5.982  18.442  69.998  1.00  0.00    -0.233 OA 
HETATM   20  O   UNL     1      -8.491  18.606  70.188  1.00  0.00     1.448 OA 
BRANCH  18  21
HETATM   21  N   UNL     1      -7.301  19.805  68.276  1.00  0.00    -0.308 N  
HETATM   22  C   UNL     1      -5.998  20.231  67.738  1.00  0.00    -0.216 C  
HETATM   23  C   UNL     1      -8.206  20.928  68.577  1.00  0.00     1.003 C  
ENDBRANCH  18  21
ENDBRANCH  15  18
ENDBRANCH   3   4
ENDBRANCH   2   3
BRANCH   2  24
HETATM   24  N   UNL     1     -10.916  15.308  71.254  1.00  0.00    -0.257 NA 
HETATM   25  C   UNL     1      -9.618  15.371  71.960  1.00  0.00     4.492 C  
HETATM   26  C   UNL     1     -11.204  16.671  70.791  1.00  0.00     0.123 C  
ENDBRANCH   2  24
TORSDOF 5
ENDMDL
MODEL      168
REMARK 921   NORMALIZED FREE ENERGY PREDICTED BY IDOCK:    9.71 KCAL/MOL
REMARK 922        TOTAL FREE ENERGY PREDICTED BY IDOCK:   11.69 KCAL/MOL
REMARK 923 INTER-LIGAND FREE ENERGY PREDICTED BY IDOCK:   11.75 KCAL/MOL
REMARK 924 INTRA-LIGAND FREE ENERGY PREDICTED BY IDOCK:   -0.06 KCAL/MOL
REMARK 927      BINDING AFFINITY PREDICTED BY RF-SCORE:    0.00 PKD
ROOT
HETATM    1  C   UNL     1     -10.428  18.375  70.335  1.00  0.00     1.786 C  
HETATM    2  C   UNL     1     -10.830  17.081  69.579  1.00  0.00    -0.039 C  
ENDROOT
BRANCH   2   3
HETATM    3  C   UNL     1      -9.645  16.811  68.564  1.00  0.00    -0.245 C  
BRANCH   3   4
HETATM    4  N   UNL     1      -9.982  16.454  67.159  1.00  0.00    -0.254 NA 
HETATM    5  C   UNL     1     -10.564  17.482  66.348  1.00  0.00    -0.195 A  
HETATM    6  C   UNL     1     -10.858  18.774  66.841  1.00  0.00    -0.297 A  
HETATM    7  C   UNL     1     -11.506  19.757  66.078  1.00  0.00     0.812 A  
HETATM    8  C   UNL     1     -11.847  19.500  64.764  1.00  0.00     4.275 A  
HETATM    9  C   UNL     1     -11.535  18.261  64.224  1.00  0.00     5.188 A  
HETATM   10  C   UNL     1     -10.909  17.261  64.998  1.00  0.00     0.167 A  
HETATM   11  S   UNL     1     -10.614  15.749  64.128  1.00  0.00     1.959 SA 
HETATM   12  C   UNL     1      -9.922  14.711  65.386  1.00  0.00    -0.330 A  
HETATM   13  C   UNL     1      -9.658  15.129  66.711  1.00  0.00    -0.245 A  
HETATM   14  C   UNL     1      -9.082  14.145  67.552  1.00  0.00    -0.195 A  
HETATM   15  C   UNL     1      -8.790  12.845  67.100  1.00  0.00    -0.210 A  
HETATM   16  C   UNL     1      -9.066  12.466  65.797  1.00  0.00     0.166 A  
HETATM   17  C   UNL     1      -9.641  13.398  64.948  1.00  0.00     0.300 A  
BRANCH  15  18
HETATM   18  S   UNL     1      -7.953  11.696  68.179  1.00  0.00    -0.149 S  
HETATM   19  O   UNL     1      -7.280  10.723  67.347  1.00  0.00    -0.088 OA 
HETATM   20  O   UNL     1      -8.914  11.279  69.184  1.00  0.00    -0.033 OA 
BRANCH  18  21
HETATM   21  N   UNL     1      -6.783  12.661  68.947  1.00  0.00    -0.094 N  
HETATM   22  C   UNL     1      -6.117  13.682  68.120  1.00  0.00    -0.118 C  
HETATM   23  C   UNL     1      -5.872  11.982  69.884  1.00  0.00    -0.139 C  
ENDBRANCH  18  21
ENDBRANCH  15  18
ENDBRANCH   3   4
ENDBRANCH   2   3
BRANCH   2  24
HETATM   24  N   UNL     1     -11.264  16.048  70.575  1.00  0.00    -0.370 NA 
HETATM   25  C   UNL     1     -12.150  16.651  71.594  1.00  0.00     0.423 C  
HETATM   26  C   UNL     1     -12.023  14.953  69.958  1.00  0.00    -0.329 C  
ENDBRANCH   2  24
TORSDOF 5
ENDMDL
MODEL      169
REMARK 921   NORMALIZED FREE ENERGY PREDICTED BY IDOCK:   11.72 KCAL/MOL
REMARK 922        TOTAL FREE ENERGY PREDICTED BY IDOCK:   14.28 KCAL/MOL
REMARK 923 INTER-LIGAND FREE ENERGY PREDICTED BY IDOCK:   14.39 KCAL/MOL
REMARK 924 INTRA-LIGAND FREE ENERGY PREDICTED BY IDOCK:   -0.10 KCAL/MOL
REMARK 927      BINDING AFFINITY PREDICTED BY RF-SCORE:    0.00 PKD
ROOT
HETATM    1  C   UNL     1      -8.367   7.295  66.384  1.00  0.00    -0.124 C  
HETATM    2  C   UNL     1      -9.842   6.884  66.636  1.00  0.00    -0.153 C  
ENDROOT
BRANCH   2   3
HETATM    3  C   UNL     1     -10.131   7.284  68.140  1.00  0.00    -0.173 C  
BRANCH   3   4
HETATM    4  N   UNL     1      -9.194   8.222  68.816  1.00  0.00    -0.144 NA 
HETATM    5  C   UNL     1      -9.291   9.608  68.462  1.00  0.00    -0.137 A  
HETATM    6  C   UNL     1     -10.195  10.088  67.486  1.00  0.00    -0.260 A  
HETATM    7  C   UNL     1     -10.235  11.428  67.073  1.00  0.00    -0.246 A  
HETATM    8  C   UNL     1      -9.398  12.359  67.658  1.00  0.00    -0.188 A  
HETATM    9  C   UNL     1      -8.528  11.940  68.654  1.00  0.00    -0.045 A  
HETATM   10  C   UNL     1      -8.465  10.588  69.051  1.00  0.00    -0.157 A  
HETATM   11  S   UNL     1      -7.279  10.259  70.322  1.00  0.00     0.061 SA 
HETATM   12  C   UNL     1      -7.393   8.501  70.508  1.00  0.00    -0.060 A  
HETATM   13  C   UNL     1      -8.301   7.680  69.801  1.00  0.00    -0.133 A  
HETATM   14  C   UNL     1      -8.242   6.300  70.118  1.00  0.00    -0.121 A  
HETATM   15  C   UNL     1      -7.346   5.784  71.072  1.00  0.00    -0.085 A  
HETATM   16  C   UNL     1      -6.465   6.616  71.744  1.00  0.00    -0.049 A  
HETATM   17  C   UNL     1      -6.486   7.970  71.452  1.00  0.00    -0.040 A  
BRANCH  15  18
HETATM   18  S   UNL     1      -7.410   4.055  71.508  1.00  0.00    -0.056 S  
HETATM   19  O   UNL     1      -6.114   3.687  72.036  1.00  0.00    -0.012 OA 
HETATM   20  O   UNL     1      -7.979   3.351  70.374  1.00  0.00    -0.046 OA 
BRANCH  18  21
HETATM   21  N   UNL     1      -8.546   4.012  72.772  1.00  0.00    -0.099 N  
HETATM   22  C   UNL     1      -8.037   4.260  74.131  1.00  0.00    -0.092 C  
HETATM   23  C   UNL     1      -9.566   2.951  72.713  1.00  0.00    -0.111 C  
ENDBRANCH  18  21
ENDBRANCH  15  18
ENDBRANCH   3   4
ENDBRANCH   2   3
BRANCH   2  24
HETATM   24  N   UNL     1     -10.690   7.391  65.509  1.00  0.00     3.238 NA 
HETATM   25  C   UNL     1     -10.145   6.946  64.209  1.00  0.00     5.347 C  
HETATM   26  C   UNL     1     -12.071   6.897  65.573  1.00  0.00     8.273 C  
ENDBRANCH   2  24
TORSDOF 5
ENDMDL
MODEL      170
REMARK 921   NORMALIZED FREE ENERGY PREDICTED BY IDOCK:   15.26 KCAL/MOL
REMARK 922        TOTAL FREE ENERGY PREDICTED BY IDOCK:   18.86 KCAL/MOL
REMARK 923 INTER-LIGAND FREE ENERGY PREDICTED BY IDOCK:   16.48 KCAL/MOL
REMARK 924 INTRA-LIGAND FREE ENERGY PREDICTED BY IDOCK:    2.38 KCAL/MOL
REMARK 927      BINDING AFFINITY PREDICTED BY RF-SCORE:    0.00 PKD
ROOT
HETATM    1  C   UNL     1      -9.719  19.794  69.887  1.00  0.00     0.337 C  
HETATM    2  C   UNL     1      -9.828  18.275  70.182  1.00  0.00     1.428 C  
ENDROOT
BRANCH   2   3
HETATM    3  C   UNL     1      -8.601  17.620  69.427  1.00  0.00     0.469 C  
BRANCH   3   4
HETATM    4  N   UNL     1      -8.823  17.059  68.066  1.00  0.00    -0.218 NA 
HETATM    5  C   UNL     1      -9.448  17.916  67.102  1.00  0.00    -0.263 A  
HETATM    6  C   UNL     1      -9.886  19.225  67.411  1.00  0.00    -0.425 A  
HETATM    7  C   UNL     1     -10.576  20.037  66.498  1.00  0.00    -0.461 A  
HETATM    8  C   UNL     1     -10.817  19.586  65.214  1.00  0.00     0.160 A  
HETATM    9  C   UNL     1     -10.363  18.326  64.854  1.00  0.00     2.010 A  
HETATM   10  C   UNL     1      -9.694  17.496  65.778  1.00  0.00     0.080 A  
HETATM   11  S   UNL     1      -9.213  15.924  65.126  1.00  0.00     1.666 SA 
HETATM   12  C   UNL     1      -8.503  15.123  66.538  1.00  0.00    -0.114 A  
HETATM   13  C   UNL     1      -8.355  15.727  67.808  1.00  0.00    -0.154 A  
HETATM   14  C   UNL     1      -7.740  14.916  68.795  1.00  0.00    -0.139 A  
HETATM   15  C   UNL     1      -7.306  13.605  68.529  1.00  0.00    -0.114 A  
HETATM   16  C   UNL     1      -7.471  13.041  67.275  1.00  0.00    -0.083 A  
HETATM   17  C   UNL     1      -8.079  13.800  66.287  1.00  0.00     1.309 A  
BRANCH  15  18
HETATM   18  S   UNL     1      -6.432  12.686  69.784  1.00  0.00     0.064 S  
HETATM   19  O   UNL     1      -5.132  12.340  69.250  1.00  0.00    -0.066 OA 
HETATM   20  O   UNL     1      -7.336  11.659  70.267  1.00  0.00     0.624 OA 
BRANCH  18  21
HETATM   21  N   UNL     1      -6.224  13.825  71.029  1.00  0.00    -0.022 N  
HETATM   22  C   UNL     1      -5.740  15.159  70.635  1.00  0.00    -0.102 C  
HETATM   23  C   UNL     1      -5.632  13.336  72.286  1.00  0.00     0.303 C  
ENDBRANCH  18  21
ENDBRANCH  15  18
ENDBRANCH   3   4
ENDBRANCH   2   3
BRANCH   2  24
HETATM   24  N   UNL     1     -10.046  18.077  71.651  1.00  0.00     4.515 NA 
HETATM   25  C   UNL     1      -9.919  19.362  72.372  1.00  0.00     3.778 C  
HETATM   26  C   UNL     1     -11.384  17.557  71.959  1.00  0.00     1.901 C  
ENDBRANCH   2  24
TORSDOF 5
ENDMDL
MODEL      171
REMARK 921   NORMALIZED FREE ENERGY PREDICTED BY IDOCK:   17.51 KCAL/MOL
REMARK 922        TOTAL FREE ENERGY PREDICTED BY IDOCK:   21.77 KCAL/MOL
REMARK 923 INTER-LIGAND FREE ENERGY PREDICTED BY IDOCK:   21.50 KCAL/MOL
REMARK 924 INTRA-LIGAND FREE ENERGY PREDICTED BY IDOCK:    0.27 KCAL/MOL
REMARK 927      BINDING AFFINITY PREDICTED BY RF-SCORE:    0.00 PKD
ROOT
HETATM    1  C   UNL     1     -10.452  14.186  69.169  1.00  0.00    -0.143 C  
HETATM    2  C   UNL     1     -11.482  14.215  68.009  1.00  0.00    -0.312 C  
ENDROOT
BRANCH   2   3
HETATM    3  C   UNL     1     -12.888  13.992  68.700  1.00  0.00     1.267 C  
BRANCH   3   4
HETATM    4  N   UNL     1     -12.965  13.078  69.873  1.00  0.00     0.569 NA 
HETATM    5  C   UNL     1     -13.446  13.636  71.102  1.00  0.00    -0.049 A  
HETATM    6  C   UNL     1     -13.799  14.998  71.241  1.00  0.00    -0.528 A  
HETATM    7  C   UNL     1     -14.188  15.569  72.461  1.00  0.00    -0.502 A  
HETATM    8  C   UNL     1     -14.285  14.783  73.594  1.00  0.00     3.480 A  
HETATM    9  C   UNL     1     -13.994  13.430  73.494  1.00  0.00     3.599 A  
HETATM   10  C   UNL     1     -13.575  12.860  72.273  1.00  0.00    -0.515 A  
HETATM   11  S   UNL     1     -13.237  11.125  72.362  1.00  0.00     0.746 SA 
HETATM   12  C   UNL     1     -12.662  10.763  70.726  1.00  0.00    -0.360 A  
HETATM   13  C   UNL     1     -12.598  11.704  69.674  1.00  0.00     0.155 A  
HETATM   14  C   UNL     1     -12.127  11.199  68.437  1.00  0.00    -0.069 A  
HETATM   15  C   UNL     1     -11.753   9.854  68.266  1.00  0.00     0.688 A  
HETATM   16  C   UNL     1     -11.822   8.957  69.319  1.00  0.00     1.119 A  
HETATM   17  C   UNL     1     -12.267   9.418  70.548  1.00  0.00    -0.045 A  
BRANCH  15  18
HETATM   18  S   UNL     1     -11.285   9.259  66.650  1.00  0.00     1.597 S  
HETATM   19  O   UNL     1     -12.344   8.393  66.178  1.00  0.00     8.138 OA 
HETATM   20  O   UNL     1      -9.920   8.779  66.752  1.00  0.00    -0.218 OA 
BRANCH  18  21
HETATM   21  N   UNL     1     -11.272  10.671  65.703  1.00  0.00     0.329 N  
HETATM   22  C   UNL     1     -11.550  10.509  64.266  1.00  0.00     2.487 C  
HETATM   23  C   UNL     1     -10.210  11.652  65.988  1.00  0.00    -0.232 C  
ENDBRANCH  18  21
ENDBRANCH  15  18
ENDBRANCH   3   4
ENDBRANCH   2   3
BRANCH   2  24
HETATM   24  N   UNL     1     -11.210  15.408  67.144  1.00  0.00    -0.300 NA 
HETATM   25  C   UNL     1     -12.156  15.451  66.008  1.00  0.00     0.601 C  
HETATM   26  C   UNL     1     -11.369  16.677  67.865  1.00  0.00     0.001 C  
ENDBRANCH   2  24
TORSDOF 5
ENDMDL
MODEL      172
REMARK 921   NORMALIZED FREE ENERGY PREDICTED BY IDOCK:   77.77 KCAL/MOL
REMARK 922        TOTAL FREE ENERGY PREDICTED BY IDOCK:   99.64 KCAL/MOL
REMARK 923 INTER-LIGAND FREE ENERGY PREDICTED BY IDOCK:   98.26 KCAL/MOL
REMARK 924 INTRA-LIGAND FREE ENERGY PREDICTED BY IDOCK:    1.38 KCAL/MOL
REMARK 927      BINDING AFFINITY PREDICTED BY RF-SCORE:    0.00 PKD
ROOT
HETATM    1  C   UNL     1      -8.825  19.771  71.899  1.00  0.00     3.446 C  
HETATM    2  C   UNL     1      -8.400  18.336  72.306  1.00  0.00    13.757 C  
ENDROOT
BRANCH   2   3
HETATM    3  C   UNL     1      -7.158  17.997  71.386  1.00  0.00     5.024 C  
BRANCH   3   4
HETATM    4  N   UNL     1      -7.412  17.534  69.994  1.00  0.00     1.108 NA 
HETATM    5  C   UNL     1      -7.445  18.536  68.970  1.00  0.00    -0.201 A  
HETATM    6  C   UNL     1      -7.291  19.915  69.242  1.00  0.00    -0.191 A  
HETATM    7  C   UNL     1      -7.408  20.908  68.257  1.00  0.00     0.205 A  
HETATM    8  C   UNL     1      -7.641  20.554  66.942  1.00  0.00    -0.327 A  
HETATM    9  C   UNL     1      -7.751  19.209  66.622  1.00  0.00    -0.263 A  
HETATM   10  C   UNL     1      -7.662  18.211  67.615  1.00  0.00    -0.223 A  
HETATM   11  S   UNL     1      -7.848  16.561  67.003  1.00  0.00    -0.233 SA 
HETATM   12  C   UNL     1      -7.778  15.592  68.485  1.00  0.00    -0.131 A  
HETATM   13  C   UNL     1      -7.557  16.122  69.776  1.00  0.00     0.269 A  
HETATM   14  C   UNL     1      -7.517  15.168  70.823  1.00  0.00     1.269 A  
HETATM   15  C   UNL     1      -7.681  13.790  70.593  1.00  0.00     2.891 A  
HETATM   16  C   UNL     1      -7.902  13.303  69.315  1.00  0.00     0.488 A  
HETATM   17  C   UNL     1      -7.959  14.208  68.267  1.00  0.00    -0.140 A  
BRANCH  15  18
HETATM   18  S   UNL     1      -7.497  12.635  71.941  1.00  0.00    11.073 S  
HETATM   19  O   UNL     1      -6.845  11.453  71.420  1.00  0.00     1.833 OA 
HETATM   20  O   UNL     1      -8.785  12.544  72.602  1.00  0.00    19.453 OA 
BRANCH  18  21
HETATM   21  N   UNL     1      -6.425  13.431  72.994  1.00  0.00     2.437 N  
HETATM   22  C   UNL     1      -5.883  14.722  72.539  1.00  0.00     0.441 C  
HETATM   23  C   UNL     1      -5.435  12.593  73.692  1.00  0.00     0.837 C  
ENDBRANCH  18  21
ENDBRANCH  15  18
ENDBRANCH   3   4
ENDBRANCH   2   3
BRANCH   2  24
HETATM   24  N   UNL     1      -8.318  18.256  73.801  1.00  0.00     9.837 NA 
HETATM   25  C   UNL     1      -9.348  19.116  74.423  1.00  0.00     5.943 C  
HETATM   26  C   UNL     1      -8.548  16.897  74.308  1.00  0.00    19.659 C  
ENDBRANCH   2  24
TORSDOF 5
ENDMDL
