MODEL        1
REMARK 921   NORMALIZED FREE ENERGY PREDICTED BY IDOCK:   -4.90 KCAL/MOL
REMARK 922        TOTAL FREE ENERGY PREDICTED BY IDOCK:   -4.65 KCAL/MOL
REMARK 923 INTER-LIGAND FREE ENERGY PREDICTED BY IDOCK:   -5.18 KCAL/MOL
REMARK 924 INTRA-LIGAND FREE ENERGY PREDICTED BY IDOCK:    0.54 KCAL/MOL
REMARK 927      BINDING AFFINITY PREDICTED BY RF-SCORE:    0.00 PKD
ROOT
HETATM    1  O   UNL     1     -10.589  16.705  65.952  1.00  0.00    -0.316 OA 
HETATM    2  C   UNL     1     -10.920  15.938  64.886  1.00  0.00    -0.411 C  
HETATM    3  C   UNL     1     -10.457  14.489  64.978  1.00  0.00    -0.429 C  
HETATM    4  O   UNL     1     -11.538  16.398  63.934  1.00  0.00    -1.100 OA 
HETATM    5  S   UNL     1     -10.482  13.939  66.746  1.00  0.00    -0.272 SA 
HETATM    6  H   UNL     1     -10.060  12.617  66.830  1.00  0.00     0.000 H  
ENDROOT
BRANCH   3   7
HETATM    7  C   UNL     1     -11.294  13.551  64.091  1.00  0.00    -0.340 C  
HETATM    8  C   UNL     1     -12.656  13.288  64.726  1.00  0.00    -0.337 C  
HETATM    9  S   UNL     1     -10.456  11.967  63.630  1.00  0.00    -0.478 SA 
HETATM   10  O   UNL     1     -13.223  12.105  64.390  1.00  0.00    -0.758 OA 
HETATM   11  O   UNL     1     -13.250  14.117  65.405  1.00  0.00    -0.741 OA 
HETATM   12  H   UNL     1     -11.212  11.120  62.829  1.00  0.00     0.000 H  
ENDBRANCH   3   7
TORSDOF 1
ENDMDL
MODEL        2
REMARK 921   NORMALIZED FREE ENERGY PREDICTED BY IDOCK:   -4.54 KCAL/MOL
REMARK 922        TOTAL FREE ENERGY PREDICTED BY IDOCK:   -4.27 KCAL/MOL
REMARK 923 INTER-LIGAND FREE ENERGY PREDICTED BY IDOCK:   -4.80 KCAL/MOL
REMARK 924 INTRA-LIGAND FREE ENERGY PREDICTED BY IDOCK:    0.53 KCAL/MOL
REMARK 927      BINDING AFFINITY PREDICTED BY RF-SCORE:    0.00 PKD
ROOT
HETATM    1  O   UNL     1     -11.268  16.598  64.324  1.00  0.00    -1.098 OA 
HETATM    2  C   UNL     1     -11.669  15.309  64.220  1.00  0.00    -0.215 C  
HETATM    3  C   UNL     1     -10.654  14.286  64.717  1.00  0.00    -0.412 C  
HETATM    4  O   UNL     1     -12.764  15.015  63.758  1.00  0.00    -0.741 OA 
HETATM    5  S   UNL     1      -9.688  15.001  66.125  1.00  0.00    -0.324 SA 
HETATM    6  H   UNL     1      -8.762  14.068  66.578  1.00  0.00     0.000 H  
ENDROOT
BRANCH   3   7
HETATM    7  C   UNL     1     -11.313  12.954  65.114  1.00  0.00    -0.298 C  
HETATM    8  C   UNL     1     -11.857  13.028  66.537  1.00  0.00    -0.403 C  
HETATM    9  S   UNL     1     -10.245  11.461  64.884  1.00  0.00    -0.295 SA 
HETATM   10  O   UNL     1     -11.922  11.841  67.185  1.00  0.00    -0.617 OA 
HETATM   11  O   UNL     1     -12.301  14.057  67.032  1.00  0.00    -0.397 OA 
HETATM   12  H   UNL     1     -10.841  10.258  65.242  1.00  0.00     0.000 H  
ENDBRANCH   3   7
TORSDOF 1
ENDMDL
MODEL        3
REMARK 921   NORMALIZED FREE ENERGY PREDICTED BY IDOCK:   -4.48 KCAL/MOL
REMARK 922        TOTAL FREE ENERGY PREDICTED BY IDOCK:   -4.20 KCAL/MOL
REMARK 923 INTER-LIGAND FREE ENERGY PREDICTED BY IDOCK:   -4.58 KCAL/MOL
REMARK 924 INTRA-LIGAND FREE ENERGY PREDICTED BY IDOCK:    0.38 KCAL/MOL
REMARK 927      BINDING AFFINITY PREDICTED BY RF-SCORE:    0.00 PKD
ROOT
HETATM    1  O   UNL     1     -11.483  16.696  63.920  1.00  0.00    -1.186 OA 
HETATM    2  C   UNL     1     -11.563  15.429  64.392  1.00  0.00    -0.264 C  
HETATM    3  C   UNL     1     -10.333  14.959  65.161  1.00  0.00    -0.401 C  
HETATM    4  O   UNL     1     -12.554  14.736  64.200  1.00  0.00    -0.784 OA 
HETATM    5  S   UNL     1      -9.571  16.392  66.052  1.00  0.00    -0.294 SA 
HETATM    6  H   UNL     1      -8.450  15.963  66.753  1.00  0.00     0.000 H  
ENDROOT
BRANCH   3   7
HETATM    7  C   UNL     1     -10.655  13.808  66.130  1.00  0.00    -0.291 C  
HETATM    8  C   UNL     1     -10.915  12.518  65.360  1.00  0.00    -0.294 C  
HETATM    9  S   UNL     1     -12.022  14.160  67.326  1.00  0.00    -0.376 SA 
HETATM   10  O   UNL     1     -11.732  11.636  65.984  1.00  0.00    -0.382 OA 
HETATM   11  O   UNL     1     -10.355  12.240  64.307  1.00  0.00    -0.309 OA 
HETATM   12  H   UNL     1     -12.312  13.120  68.201  1.00  0.00     0.000 H  
ENDBRANCH   3   7
TORSDOF 1
ENDMDL
MODEL        4
REMARK 921   NORMALIZED FREE ENERGY PREDICTED BY IDOCK:   -4.39 KCAL/MOL
REMARK 922        TOTAL FREE ENERGY PREDICTED BY IDOCK:   -4.11 KCAL/MOL
REMARK 923 INTER-LIGAND FREE ENERGY PREDICTED BY IDOCK:   -4.47 KCAL/MOL
REMARK 924 INTRA-LIGAND FREE ENERGY PREDICTED BY IDOCK:    0.36 KCAL/MOL
REMARK 927      BINDING AFFINITY PREDICTED BY RF-SCORE:    0.00 PKD
ROOT
HETATM    1  O   UNL     1     -13.017  12.191  63.275  1.00  0.00    -0.735 OA 
HETATM    2  C   UNL     1     -12.636  12.628  64.498  1.00  0.00    -0.412 C  
HETATM    3  C   UNL     1     -11.373  11.971  65.042  1.00  0.00    -0.310 C  
HETATM    4  O   UNL     1     -13.275  13.482  65.100  1.00  0.00    -0.720 OA 
HETATM    5  S   UNL     1     -10.231  11.564  63.643  1.00  0.00    -0.450 SA 
HETATM    6  H   UNL     1      -9.079  10.965  64.140  1.00  0.00     0.000 H  
ENDROOT
BRANCH   3   7
HETATM    7  C   UNL     1     -10.671  12.841  66.099  1.00  0.00    -0.275 C  
HETATM    8  C   UNL     1     -11.428  12.793  67.422  1.00  0.00    -0.340 C  
HETATM    9  S   UNL     1     -10.349  14.587  65.578  1.00  0.00    -0.383 SA 
HETATM   10  O   UNL     1     -11.283  13.889  68.203  1.00  0.00    -0.247 OA 
HETATM   11  O   UNL     1     -12.040  11.804  67.808  1.00  0.00    -0.595 OA 
HETATM   12  H   UNL     1      -9.715  15.373  66.533  1.00  0.00     0.000 H  
ENDBRANCH   3   7
TORSDOF 1
ENDMDL
MODEL        5
REMARK 921   NORMALIZED FREE ENERGY PREDICTED BY IDOCK:   -4.24 KCAL/MOL
REMARK 922        TOTAL FREE ENERGY PREDICTED BY IDOCK:   -3.96 KCAL/MOL
REMARK 923 INTER-LIGAND FREE ENERGY PREDICTED BY IDOCK:   -4.48 KCAL/MOL
REMARK 924 INTRA-LIGAND FREE ENERGY PREDICTED BY IDOCK:    0.52 KCAL/MOL
REMARK 927      BINDING AFFINITY PREDICTED BY RF-SCORE:    0.00 PKD
ROOT
HETATM    1  O   UNL     1     -12.554  14.069  63.230  1.00  0.00    -0.801 OA 
HETATM    2  C   UNL     1     -12.188  12.803  63.542  1.00  0.00    -0.525 C  
HETATM    3  C   UNL     1     -10.795  12.677  64.147  1.00  0.00    -0.396 C  
HETATM    4  O   UNL     1     -12.934  11.854  63.342  1.00  0.00    -0.730 OA 
HETATM    5  S   UNL     1     -10.412  14.185  65.150  1.00  0.00    -0.419 SA 
HETATM    6  H   UNL     1      -9.141  14.068  65.702  1.00  0.00     0.000 H  
ENDROOT
BRANCH   3   7
HETATM    7  C   UNL     1     -10.636  11.395  64.985  1.00  0.00    -0.299 C  
HETATM    8  C   UNL     1     -11.194  11.601  66.389  1.00  0.00    -0.287 C  
HETATM    9  S   UNL     1      -8.916  10.715  65.043  1.00  0.00    -0.197 SA 
HETATM   10  O   UNL     1     -10.630  10.828  67.346  1.00  0.00    -0.211 OA 
HETATM   11  O   UNL     1     -12.150  12.329  66.630  1.00  0.00    -0.612 OA 
HETATM   12  H   UNL     1      -8.773   9.558  65.799  1.00  0.00     0.000 H  
ENDBRANCH   3   7
TORSDOF 1
ENDMDL
MODEL        6
REMARK 921   NORMALIZED FREE ENERGY PREDICTED BY IDOCK:   -4.24 KCAL/MOL
REMARK 922        TOTAL FREE ENERGY PREDICTED BY IDOCK:   -3.95 KCAL/MOL
REMARK 923 INTER-LIGAND FREE ENERGY PREDICTED BY IDOCK:   -4.32 KCAL/MOL
REMARK 924 INTRA-LIGAND FREE ENERGY PREDICTED BY IDOCK:    0.37 KCAL/MOL
REMARK 927      BINDING AFFINITY PREDICTED BY RF-SCORE:    0.00 PKD
ROOT
HETATM    1  O   UNL     1     -10.190  11.242  65.127  1.00  0.00    -0.260 OA 
HETATM    2  C   UNL     1     -10.458  12.538  64.842  1.00  0.00    -0.303 C  
HETATM    3  C   UNL     1     -11.475  13.195  65.768  1.00  0.00    -0.325 C  
HETATM    4  O   UNL     1      -9.915  13.112  63.907  1.00  0.00    -0.270 OA 
HETATM    5  S   UNL     1     -11.323  12.478  67.468  1.00  0.00    -0.333 SA 
HETATM    6  H   UNL     1     -12.251  13.078  68.312  1.00  0.00     0.000 H  
ENDROOT
BRANCH   3   7
HETATM    7  C   UNL     1     -11.336  14.727  65.795  1.00  0.00    -0.336 C  
HETATM    8  C   UNL     1     -11.853  15.334  64.495  1.00  0.00    -0.295 C  
HETATM    9  S   UNL     1      -9.638  15.345  66.192  1.00  0.00    -0.353 SA 
HETATM   10  O   UNL     1     -11.290  16.518  64.155  1.00  0.00    -1.060 OA 
HETATM   11  O   UNL     1     -12.779  14.854  63.852  1.00  0.00    -0.789 OA 
HETATM   12  H   UNL     1      -9.513  16.729  66.216  1.00  0.00     0.000 H  
ENDBRANCH   3   7
TORSDOF 1
ENDMDL
MODEL        7
REMARK 921   NORMALIZED FREE ENERGY PREDICTED BY IDOCK:   -4.24 KCAL/MOL
REMARK 922        TOTAL FREE ENERGY PREDICTED BY IDOCK:   -3.95 KCAL/MOL
REMARK 923 INTER-LIGAND FREE ENERGY PREDICTED BY IDOCK:   -4.31 KCAL/MOL
REMARK 924 INTRA-LIGAND FREE ENERGY PREDICTED BY IDOCK:    0.36 KCAL/MOL
REMARK 927      BINDING AFFINITY PREDICTED BY RF-SCORE:    0.00 PKD
ROOT
HETATM    1  O   UNL     1     -12.628  15.050  64.040  1.00  0.00    -0.817 OA 
HETATM    2  C   UNL     1     -12.107  13.814  64.231  1.00  0.00    -0.440 C  
HETATM    3  C   UNL     1     -10.631  13.799  64.610  1.00  0.00    -0.425 C  
HETATM    4  O   UNL     1     -12.788  12.806  64.099  1.00  0.00    -0.683 OA 
HETATM    5  S   UNL     1     -10.231  15.301  65.617  1.00  0.00    -0.397 SA 
HETATM    6  H   UNL     1      -8.885  15.287  65.963  1.00  0.00     0.000 H  
ENDROOT
BRANCH   3   7
HETATM    7  C   UNL     1     -10.231  12.511  65.350  1.00  0.00    -0.283 C  
HETATM    8  C   UNL     1     -10.060  11.359  64.365  1.00  0.00    -0.291 C  
HETATM    9  S   UNL     1     -11.351  12.037  66.744  1.00  0.00    -0.334 SA 
HETATM   10  O   UNL     1     -10.280  10.128  64.883  1.00  0.00    -0.300 OA 
HETATM   11  O   UNL     1      -9.654  11.512  63.219  1.00  0.00    -0.338 OA 
HETATM   12  H   UNL     1     -10.989  10.872  67.411  1.00  0.00     0.000 H  
ENDBRANCH   3   7
TORSDOF 1
ENDMDL
MODEL        8
REMARK 921   NORMALIZED FREE ENERGY PREDICTED BY IDOCK:   -4.19 KCAL/MOL
REMARK 922        TOTAL FREE ENERGY PREDICTED BY IDOCK:   -3.90 KCAL/MOL
REMARK 923 INTER-LIGAND FREE ENERGY PREDICTED BY IDOCK:   -4.26 KCAL/MOL
REMARK 924 INTRA-LIGAND FREE ENERGY PREDICTED BY IDOCK:    0.36 KCAL/MOL
REMARK 927      BINDING AFFINITY PREDICTED BY RF-SCORE:    0.00 PKD
ROOT
HETATM    1  O   UNL     1     -13.207  12.102  64.228  1.00  0.00    -0.768 OA 
HETATM    2  C   UNL     1     -12.746  13.028  65.102  1.00  0.00    -0.397 C  
HETATM    3  C   UNL     1     -11.558  12.573  65.942  1.00  0.00    -0.405 C  
HETATM    4  O   UNL     1     -13.262  14.135  65.192  1.00  0.00    -0.743 OA 
HETATM    5  S   UNL     1     -10.509  11.408  64.957  1.00  0.00    -0.308 SA 
HETATM    6  H   UNL     1      -9.426  10.994  65.724  1.00  0.00     0.000 H  
ENDROOT
BRANCH   3   7
HETATM    7  C   UNL     1     -10.730  13.756  66.472  1.00  0.00    -0.284 C  
HETATM    8  C   UNL     1     -11.428  14.409  67.661  1.00  0.00    -0.346 C  
HETATM    9  S   UNL     1     -10.269  15.014  65.196  1.00  0.00    -0.322 SA 
HETATM   10  O   UNL     1     -11.144  15.720  67.840  1.00  0.00    -0.325 OA 
HETATM   11  O   UNL     1     -12.113  13.783  68.462  1.00  0.00    -0.363 OA 
HETATM   12  H   UNL     1      -9.520  16.083  65.676  1.00  0.00     0.000 H  
ENDBRANCH   3   7
TORSDOF 1
ENDMDL
MODEL        9
REMARK 921   NORMALIZED FREE ENERGY PREDICTED BY IDOCK:   -4.14 KCAL/MOL
REMARK 922        TOTAL FREE ENERGY PREDICTED BY IDOCK:   -3.84 KCAL/MOL
REMARK 923 INTER-LIGAND FREE ENERGY PREDICTED BY IDOCK:   -4.20 KCAL/MOL
REMARK 924 INTRA-LIGAND FREE ENERGY PREDICTED BY IDOCK:    0.36 KCAL/MOL
REMARK 927      BINDING AFFINITY PREDICTED BY RF-SCORE:    0.00 PKD
ROOT
HETATM    1  O   UNL     1     -10.995  15.592  68.259  1.00  0.00    -0.286 OA 
HETATM    2  C   UNL     1     -11.400  14.860  67.195  1.00  0.00    -0.343 C  
HETATM    3  C   UNL     1     -10.677  15.179  65.892  1.00  0.00    -0.334 C  
HETATM    4  O   UNL     1     -12.281  14.016  67.297  1.00  0.00    -0.405 OA 
HETATM    5  S   UNL     1      -8.929  15.673  66.254  1.00  0.00    -0.323 SA 
HETATM    6  H   UNL     1      -8.270  15.964  65.065  1.00  0.00     0.000 H  
ENDROOT
BRANCH   3   7
HETATM    7  C   UNL     1     -10.730  14.011  64.892  1.00  0.00    -0.418 C  
HETATM    8  C   UNL     1     -12.088  13.960  64.200  1.00  0.00    -0.425 C  
HETATM    9  S   UNL     1     -10.279  12.362  65.602  1.00  0.00    -0.264 SA 
HETATM   10  O   UNL     1     -12.465  12.731  63.774  1.00  0.00    -0.615 OA 
HETATM   11  O   UNL     1     -12.750  14.959  63.949  1.00  0.00    -0.789 OA 
HETATM   12  H   UNL     1     -10.327  11.307  64.699  1.00  0.00     0.000 H  
ENDBRANCH   3   7
TORSDOF 1
ENDMDL
MODEL       10
REMARK 921   NORMALIZED FREE ENERGY PREDICTED BY IDOCK:   -4.09 KCAL/MOL
REMARK 922        TOTAL FREE ENERGY PREDICTED BY IDOCK:   -3.79 KCAL/MOL
REMARK 923 INTER-LIGAND FREE ENERGY PREDICTED BY IDOCK:   -4.15 KCAL/MOL
REMARK 924 INTRA-LIGAND FREE ENERGY PREDICTED BY IDOCK:    0.36 KCAL/MOL
REMARK 927      BINDING AFFINITY PREDICTED BY RF-SCORE:    0.00 PKD
ROOT
HETATM    1  O   UNL     1     -10.633  12.392  68.716  1.00  0.00    -0.227 OA 
HETATM    2  C   UNL     1     -11.211  12.326  67.493  1.00  0.00    -0.297 C  
HETATM    3  C   UNL     1     -10.803  13.440  66.536  1.00  0.00    -0.282 C  
HETATM    4  O   UNL     1     -11.998  11.433  67.206  1.00  0.00    -0.580 OA 
HETATM    5  S   UNL     1      -9.052  13.938  66.871  1.00  0.00    -0.224 SA 
HETATM    6  H   UNL     1      -8.680  14.954  65.998  1.00  0.00     0.000 H  
ENDROOT
BRANCH   3   7
HETATM    7  C   UNL     1     -10.998  13.044  65.062  1.00  0.00    -0.298 C  
HETATM    8  C   UNL     1     -12.478  13.064  64.694  1.00  0.00    -0.400 C  
HETATM    9  S   UNL     1     -10.211  11.441  64.579  1.00  0.00    -0.323 SA 
HETATM   10  O   UNL     1     -12.826  12.228  63.687  1.00  0.00    -0.753 OA 
HETATM   11  O   UNL     1     -13.281  13.846  65.188  1.00  0.00    -0.768 OA 
HETATM   12  H   UNL     1     -10.387  11.084  63.247  1.00  0.00     0.000 H  
ENDBRANCH   3   7
TORSDOF 1
ENDMDL
MODEL       11
REMARK 921   NORMALIZED FREE ENERGY PREDICTED BY IDOCK:   -4.06 KCAL/MOL
REMARK 922        TOTAL FREE ENERGY PREDICTED BY IDOCK:   -3.76 KCAL/MOL
REMARK 923 INTER-LIGAND FREE ENERGY PREDICTED BY IDOCK:   -4.12 KCAL/MOL
REMARK 924 INTRA-LIGAND FREE ENERGY PREDICTED BY IDOCK:    0.36 KCAL/MOL
REMARK 927      BINDING AFFINITY PREDICTED BY RF-SCORE:    0.00 PKD
ROOT
HETATM    1  O   UNL     1      -9.805  11.714  67.572  1.00  0.00    -0.185 OA 
HETATM    2  C   UNL     1     -10.437  12.268  66.511  1.00  0.00    -0.227 C  
HETATM    3  C   UNL     1     -11.785  12.901  66.834  1.00  0.00    -0.382 C  
HETATM    4  O   UNL     1      -9.944  12.247  65.390  1.00  0.00    -0.262 OA 
HETATM    5  S   UNL     1     -11.751  13.598  68.548  1.00  0.00    -0.375 SA 
HETATM    6  H   UNL     1     -12.981  14.175  68.842  1.00  0.00     0.000 H  
ENDROOT
BRANCH   3   7
HETATM    7  C   UNL     1     -12.190  13.971  65.805  1.00  0.00    -0.453 C  
HETATM    8  C   UNL     1     -12.631  13.318  64.499  1.00  0.00    -0.251 C  
HETATM    9  S   UNL     1     -10.915  15.277  65.502  1.00  0.00    -0.353 SA 
HETATM   10  O   UNL     1     -12.457  14.080  63.393  1.00  0.00    -0.826 OA 
HETATM   11  O   UNL     1     -13.197  12.232  64.450  1.00  0.00    -0.806 OA 
HETATM   12  H   UNL     1     -11.282  16.243  64.572  1.00  0.00     0.000 H  
ENDBRANCH   3   7
TORSDOF 1
ENDMDL
MODEL       12
REMARK 921   NORMALIZED FREE ENERGY PREDICTED BY IDOCK:   -4.04 KCAL/MOL
REMARK 922        TOTAL FREE ENERGY PREDICTED BY IDOCK:   -3.74 KCAL/MOL
REMARK 923 INTER-LIGAND FREE ENERGY PREDICTED BY IDOCK:   -4.56 KCAL/MOL
REMARK 924 INTRA-LIGAND FREE ENERGY PREDICTED BY IDOCK:    0.82 KCAL/MOL
REMARK 927      BINDING AFFINITY PREDICTED BY RF-SCORE:    0.00 PKD
ROOT
HETATM    1  O   UNL     1     -11.800  11.626  66.913  1.00  0.00    -0.577 OA 
HETATM    2  C   UNL     1     -11.725  12.973  67.035  1.00  0.00    -0.383 C  
HETATM    3  C   UNL     1     -10.671  13.632  66.153  1.00  0.00    -0.286 C  
HETATM    4  O   UNL     1     -12.455  13.588  67.801  1.00  0.00    -0.104 OA 
HETATM    5  S   UNL     1     -10.500  12.685  64.572  1.00  0.00    -0.363 SA 
HETATM    6  H   UNL     1      -9.538  13.286  63.768  1.00  0.00     0.000 H  
ENDROOT
BRANCH   3   7
HETATM    7  C   UNL     1     -10.978  15.115  65.884  1.00  0.00    -0.339 C  
HETATM    8  C   UNL     1     -11.659  15.283  64.529  1.00  0.00    -0.312 C  
HETATM    9  S   UNL     1      -9.527  16.251  66.047  1.00  0.00    -0.304 SA 
HETATM   10  O   UNL     1     -11.464  16.485  63.938  1.00  0.00    -1.145 OA 
HETATM   11  O   UNL     1     -12.413  14.445  64.050  1.00  0.00    -0.748 OA 
HETATM   12  H   UNL     1      -9.806  17.590  65.803  1.00  0.00     0.000 H  
ENDBRANCH   3   7
TORSDOF 1
ENDMDL
MODEL       13
REMARK 921   NORMALIZED FREE ENERGY PREDICTED BY IDOCK:   -4.04 KCAL/MOL
REMARK 922        TOTAL FREE ENERGY PREDICTED BY IDOCK:   -3.74 KCAL/MOL
REMARK 923 INTER-LIGAND FREE ENERGY PREDICTED BY IDOCK:   -4.12 KCAL/MOL
REMARK 924 INTRA-LIGAND FREE ENERGY PREDICTED BY IDOCK:    0.38 KCAL/MOL
REMARK 927      BINDING AFFINITY PREDICTED BY RF-SCORE:    0.00 PKD
ROOT
HETATM    1  O   UNL     1     -11.567  16.347  63.840  1.00  0.00    -1.100 OA 
HETATM    2  C   UNL     1     -11.035  16.547  65.069  1.00  0.00    -0.210 C  
HETATM    3  C   UNL     1     -10.944  15.294  65.932  1.00  0.00    -0.325 C  
HETATM    4  O   UNL     1     -10.666  17.656  65.434  1.00  0.00    -0.618 OA 
HETATM    5  S   UNL     1     -10.643  13.817  64.857  1.00  0.00    -0.427 SA 
HETATM    6  H   UNL     1     -10.560  12.675  65.645  1.00  0.00     0.000 H  
ENDROOT
BRANCH   3   7
HETATM    7  C   UNL     1      -9.869  15.415  67.027  1.00  0.00    -0.232 C  
HETATM    8  C   UNL     1     -10.415  16.175  68.231  1.00  0.00    -0.276 C  
HETATM    9  S   UNL     1      -8.261  16.131  66.458  1.00  0.00    -0.300 SA 
HETATM   10  O   UNL     1      -9.483  16.829  68.963  1.00  0.00    -0.258 OA 
HETATM   11  O   UNL     1     -11.587  16.121  68.583  1.00  0.00    -0.376 OA 
HETATM   12  H   UNL     1      -7.290  16.240  67.447  1.00  0.00     0.000 H  
ENDBRANCH   3   7
TORSDOF 1
ENDMDL
MODEL       14
REMARK 921   NORMALIZED FREE ENERGY PREDICTED BY IDOCK:   -4.04 KCAL/MOL
REMARK 922        TOTAL FREE ENERGY PREDICTED BY IDOCK:   -3.74 KCAL/MOL
REMARK 923 INTER-LIGAND FREE ENERGY PREDICTED BY IDOCK:   -4.13 KCAL/MOL
REMARK 924 INTRA-LIGAND FREE ENERGY PREDICTED BY IDOCK:    0.39 KCAL/MOL
REMARK 927      BINDING AFFINITY PREDICTED BY RF-SCORE:    0.00 PKD
ROOT
HETATM    1  O   UNL     1     -10.957  12.915  68.253  1.00  0.00    -0.235 OA 
HETATM    2  C   UNL     1     -11.171  13.790  67.242  1.00  0.00    -0.311 C  
HETATM    3  C   UNL     1     -10.153  13.714  66.110  1.00  0.00    -0.306 C  
HETATM    4  O   UNL     1     -12.113  14.572  67.262  1.00  0.00    -0.392 OA 
HETATM    5  S   UNL     1      -9.569  11.968  65.914  1.00  0.00    -0.193 SA 
HETATM    6  H   UNL     1      -8.641  11.899  64.882  1.00  0.00     0.000 H  
ENDROOT
BRANCH   3   7
HETATM    7  C   UNL     1     -10.710  14.267  64.787  1.00  0.00    -0.416 C  
HETATM    8  C   UNL     1     -10.851  15.784  64.857  1.00  0.00    -0.413 C  
HETATM    9  S   UNL     1     -12.281  13.476  64.215  1.00  0.00    -0.370 SA 
HETATM   10  O   UNL     1     -11.810  16.305  64.057  1.00  0.00    -0.958 OA 
HETATM   11  O   UNL     1     -10.094  16.498  65.504  1.00  0.00    -0.535 OA 
HETATM   12  H   UNL     1     -12.783  13.975  63.019  1.00  0.00     0.000 H  
ENDBRANCH   3   7
TORSDOF 1
ENDMDL
MODEL       15
REMARK 921   NORMALIZED FREE ENERGY PREDICTED BY IDOCK:   -4.03 KCAL/MOL
REMARK 922        TOTAL FREE ENERGY PREDICTED BY IDOCK:   -3.73 KCAL/MOL
REMARK 923 INTER-LIGAND FREE ENERGY PREDICTED BY IDOCK:   -4.10 KCAL/MOL
REMARK 924 INTRA-LIGAND FREE ENERGY PREDICTED BY IDOCK:    0.37 KCAL/MOL
REMARK 927      BINDING AFFINITY PREDICTED BY RF-SCORE:    0.00 PKD
ROOT
HETATM    1  O   UNL     1     -11.583  14.848  67.870  1.00  0.00    -0.329 OA 
HETATM    2  C   UNL     1     -11.674  14.037  66.789  1.00  0.00    -0.407 C  
HETATM    3  C   UNL     1     -10.972  14.559  65.542  1.00  0.00    -0.335 C  
HETATM    4  O   UNL     1     -12.282  12.975  66.837  1.00  0.00    -0.352 OA 
HETATM    5  S   UNL     1      -9.475  15.532  66.031  1.00  0.00    -0.346 SA 
HETATM    6  H   UNL     1      -8.835  16.008  64.892  1.00  0.00     0.000 H  
ENDROOT
BRANCH   3   7
HETATM    7  C   UNL     1     -10.608  13.431  64.560  1.00  0.00    -0.425 C  
HETATM    8  C   UNL     1     -11.826  13.023  63.738  1.00  0.00    -0.502 C  
HETATM    9  S   UNL     1      -9.802  11.958  65.337  1.00  0.00    -0.208 SA 
HETATM   10  O   UNL     1     -11.812  11.743  63.296  1.00  0.00    -0.401 OA 
HETATM   11  O   UNL     1     -12.705  13.809  63.407  1.00  0.00    -0.795 OA 
HETATM   12  H   UNL     1      -9.473  10.940  64.451  1.00  0.00     0.000 H  
ENDBRANCH   3   7
TORSDOF 1
ENDMDL
MODEL       16
REMARK 921   NORMALIZED FREE ENERGY PREDICTED BY IDOCK:   -4.02 KCAL/MOL
REMARK 922        TOTAL FREE ENERGY PREDICTED BY IDOCK:   -3.72 KCAL/MOL
REMARK 923 INTER-LIGAND FREE ENERGY PREDICTED BY IDOCK:   -4.24 KCAL/MOL
REMARK 924 INTRA-LIGAND FREE ENERGY PREDICTED BY IDOCK:    0.52 KCAL/MOL
REMARK 927      BINDING AFFINITY PREDICTED BY RF-SCORE:    0.00 PKD
ROOT
HETATM    1  O   UNL     1     -10.997  10.429  67.235  1.00  0.00    -0.288 OA 
HETATM    2  C   UNL     1     -11.347  11.737  67.218  1.00  0.00    -0.315 C  
HETATM    3  C   UNL     1     -10.579  12.587  66.212  1.00  0.00    -0.248 C  
HETATM    4  O   UNL     1     -12.212  12.177  67.964  1.00  0.00    -0.419 OA 
HETATM    5  S   UNL     1     -10.162  11.566  64.725  1.00  0.00    -0.298 SA 
HETATM    6  H   UNL     1      -9.462  12.341  63.808  1.00  0.00     0.000 H  
ENDROOT
BRANCH   3   7
HETATM    7  C   UNL     1     -11.347  13.860  65.817  1.00  0.00    -0.307 C  
HETATM    8  C   UNL     1     -12.374  13.551  64.733  1.00  0.00    -0.392 C  
HETATM    9  S   UNL     1     -10.279  15.292  65.335  1.00  0.00    -0.378 SA 
HETATM   10  O   UNL     1     -12.682  14.592  63.924  1.00  0.00    -0.788 OA 
HETATM   11  O   UNL     1     -12.962  12.479  64.653  1.00  0.00    -0.803 OA 
HETATM   12  H   UNL     1     -10.972  16.442  64.978  1.00  0.00     0.000 H  
ENDBRANCH   3   7
TORSDOF 1
ENDMDL
MODEL       17
REMARK 921   NORMALIZED FREE ENERGY PREDICTED BY IDOCK:   -3.89 KCAL/MOL
REMARK 922        TOTAL FREE ENERGY PREDICTED BY IDOCK:   -3.59 KCAL/MOL
REMARK 923 INTER-LIGAND FREE ENERGY PREDICTED BY IDOCK:   -4.13 KCAL/MOL
REMARK 924 INTRA-LIGAND FREE ENERGY PREDICTED BY IDOCK:    0.54 KCAL/MOL
REMARK 927      BINDING AFFINITY PREDICTED BY RF-SCORE:    0.00 PKD
ROOT
HETATM    1  O   UNL     1     -13.055  12.241  63.783  1.00  0.00    -0.780 OA 
HETATM    2  C   UNL     1     -12.773  12.928  64.915  1.00  0.00    -0.403 C  
HETATM    3  C   UNL     1     -11.660  12.324  65.763  1.00  0.00    -0.388 C  
HETATM    4  O   UNL     1     -13.381  13.948  65.213  1.00  0.00    -0.732 OA 
HETATM    5  S   UNL     1     -10.414  11.506  64.665  1.00  0.00    -0.321 SA 
HETATM    6  H   UNL     1      -9.399  10.955  65.439  1.00  0.00     0.000 H  
ENDROOT
BRANCH   3   7
HETATM    7  C   UNL     1     -10.994  13.365  66.681  1.00  0.00    -0.287 C  
HETATM    8  C   UNL     1     -10.069  14.273  65.877  1.00  0.00    -0.326 C  
HETATM    9  S   UNL     1     -10.124  12.659  68.152  1.00  0.00    -0.233 SA 
HETATM   10  O   UNL     1      -9.041  14.806  66.580  1.00  0.00    -0.265 OA 
HETATM   11  O   UNL     1     -10.285  14.590  64.714  1.00  0.00    -0.390 OA 
HETATM   12  H   UNL     1      -9.523  13.599  68.981  1.00  0.00     0.000 H  
ENDBRANCH   3   7
TORSDOF 1
ENDMDL
MODEL       18
REMARK 921   NORMALIZED FREE ENERGY PREDICTED BY IDOCK:   -3.89 KCAL/MOL
REMARK 922        TOTAL FREE ENERGY PREDICTED BY IDOCK:   -3.58 KCAL/MOL
REMARK 923 INTER-LIGAND FREE ENERGY PREDICTED BY IDOCK:   -4.10 KCAL/MOL
REMARK 924 INTRA-LIGAND FREE ENERGY PREDICTED BY IDOCK:    0.52 KCAL/MOL
REMARK 927      BINDING AFFINITY PREDICTED BY RF-SCORE:    0.00 PKD
ROOT
HETATM    1  O   UNL     1     -12.651  14.658  63.917  1.00  0.00    -0.834 OA 
HETATM    2  C   UNL     1     -12.326  13.536  64.601  1.00  0.00    -0.372 C  
HETATM    3  C   UNL     1     -10.888  13.494  65.105  1.00  0.00    -0.330 C  
HETATM    4  O   UNL     1     -13.139  12.639  64.783  1.00  0.00    -0.852 OA 
HETATM    5  S   UNL     1     -10.324  15.207  65.522  1.00  0.00    -0.400 SA 
HETATM    6  H   UNL     1      -9.012  15.168  65.981  1.00  0.00     0.000 H  
ENDROOT
BRANCH   3   7
HETATM    7  C   UNL     1     -10.716  12.544  66.303  1.00  0.00    -0.260 C  
HETATM    8  C   UNL     1     -11.135  13.234  67.597  1.00  0.00    -0.269 C  
HETATM    9  S   UNL     1      -9.034  11.791  66.462  1.00  0.00    -0.184 SA 
HETATM   10  O   UNL     1     -10.524  12.771  68.714  1.00  0.00    -0.228 OA 
HETATM   11  O   UNL     1     -12.028  14.071  67.652  1.00  0.00    -0.368 OA 
HETATM   12  H   UNL     1      -8.880  10.933  67.545  1.00  0.00     0.000 H  
ENDBRANCH   3   7
TORSDOF 1
ENDMDL
MODEL       19
REMARK 921   NORMALIZED FREE ENERGY PREDICTED BY IDOCK:   -3.87 KCAL/MOL
REMARK 922        TOTAL FREE ENERGY PREDICTED BY IDOCK:   -3.56 KCAL/MOL
REMARK 923 INTER-LIGAND FREE ENERGY PREDICTED BY IDOCK:   -3.94 KCAL/MOL
REMARK 924 INTRA-LIGAND FREE ENERGY PREDICTED BY IDOCK:    0.39 KCAL/MOL
REMARK 927      BINDING AFFINITY PREDICTED BY RF-SCORE:    0.00 PKD
ROOT
HETATM    1  O   UNL     1     -10.729  10.642  67.042  1.00  0.00    -0.257 OA 
HETATM    2  C   UNL     1     -11.178  11.713  66.347  1.00  0.00    -0.287 C  
HETATM    3  C   UNL     1     -10.267  12.158  65.208  1.00  0.00    -0.274 C  
HETATM    4  O   UNL     1     -12.233  12.265  66.633  1.00  0.00    -0.574 OA 
HETATM    5  S   UNL     1      -9.416  10.684  64.480  1.00  0.00    -0.290 SA 
HETATM    6  H   UNL     1      -8.586  11.090  63.442  1.00  0.00     0.000 H  
ENDROOT
BRANCH   3   7
HETATM    7  C   UNL     1     -11.025  12.952  64.130  1.00  0.00    -0.408 C  
HETATM    8  C   UNL     1     -11.405  14.334  64.652  1.00  0.00    -0.373 C  
HETATM    9  S   UNL     1     -12.492  12.082  63.413  1.00  0.00    -0.349 SA 
HETATM   10  O   UNL     1     -12.506  14.877  64.080  1.00  0.00    -0.807 OA 
HETATM   11  O   UNL     1     -10.719  14.961  65.451  1.00  0.00    -0.325 OA 
HETATM   12  H   UNL     1     -13.176  12.800  62.440  1.00  0.00     0.000 H  
ENDBRANCH   3   7
TORSDOF 1
ENDMDL
MODEL       20
REMARK 921   NORMALIZED FREE ENERGY PREDICTED BY IDOCK:   -3.86 KCAL/MOL
REMARK 922        TOTAL FREE ENERGY PREDICTED BY IDOCK:   -3.55 KCAL/MOL
REMARK 923 INTER-LIGAND FREE ENERGY PREDICTED BY IDOCK:   -3.91 KCAL/MOL
REMARK 924 INTRA-LIGAND FREE ENERGY PREDICTED BY IDOCK:    0.36 KCAL/MOL
REMARK 927      BINDING AFFINITY PREDICTED BY RF-SCORE:    0.00 PKD
ROOT
HETATM    1  O   UNL     1      -9.038  10.437  63.684  1.00  0.00    -0.207 OA 
HETATM    2  C   UNL     1      -9.955  11.398  63.943  1.00  0.00    -0.315 C  
HETATM    3  C   UNL     1     -10.855  11.112  65.139  1.00  0.00    -0.159 C  
HETATM    4  O   UNL     1     -10.037  12.406  63.252  1.00  0.00    -0.398 OA 
HETATM    5  S   UNL     1      -9.911  10.158  66.414  1.00  0.00    -0.243 SA 
HETATM    6  H   UNL     1     -10.732   9.898  67.505  1.00  0.00     0.000 H  
ENDROOT
BRANCH   3   7
HETATM    7  C   UNL     1     -11.458  12.396  65.737  1.00  0.00    -0.370 C  
HETATM    8  C   UNL     1     -12.635  12.877  64.896  1.00  0.00    -0.458 C  
HETATM    9  S   UNL     1     -10.243  13.760  66.028  1.00  0.00    -0.315 SA 
HETATM   10  O   UNL     1     -12.867  14.210  64.949  1.00  0.00    -0.687 OA 
HETATM   11  O   UNL     1     -13.386  12.117  64.296  1.00  0.00    -0.761 OA 
HETATM   12  H   UNL     1     -10.787  14.919  66.568  1.00  0.00     0.000 H  
ENDBRANCH   3   7
TORSDOF 1
ENDMDL
MODEL       21
REMARK 921   NORMALIZED FREE ENERGY PREDICTED BY IDOCK:   -3.85 KCAL/MOL
REMARK 922        TOTAL FREE ENERGY PREDICTED BY IDOCK:   -3.54 KCAL/MOL
REMARK 923 INTER-LIGAND FREE ENERGY PREDICTED BY IDOCK:   -4.06 KCAL/MOL
REMARK 924 INTRA-LIGAND FREE ENERGY PREDICTED BY IDOCK:    0.52 KCAL/MOL
REMARK 927      BINDING AFFINITY PREDICTED BY RF-SCORE:    0.00 PKD
ROOT
HETATM    1  O   UNL     1     -13.088  12.500  64.644  1.00  0.00    -0.845 OA 
HETATM    2  C   UNL     1     -12.695  13.744  65.006  1.00  0.00    -0.336 C  
HETATM    3  C   UNL     1     -12.236  13.868  66.454  1.00  0.00    -0.449 C  
HETATM    4  O   UNL     1     -12.719  14.678  64.215  1.00  0.00    -0.679 OA 
HETATM    5  S   UNL     1     -11.432  12.289  66.991  1.00  0.00    -0.354 SA 
HETATM    6  H   UNL     1     -11.014  12.403  68.311  1.00  0.00     0.000 H  
ENDROOT
BRANCH   3   7
HETATM    7  C   UNL     1     -11.299  15.070  66.669  1.00  0.00    -0.289 C  
HETATM    8  C   UNL     1      -9.895  14.751  66.166  1.00  0.00    -0.312 C  
HETATM    9  S   UNL     1     -11.258  15.722  68.400  1.00  0.00    -0.370 SA 
HETATM   10  O   UNL     1      -8.900  15.432  66.783  1.00  0.00    -0.227 OA 
HETATM   11  O   UNL     1      -9.675  14.017  65.210  1.00  0.00    -0.196 OA 
HETATM   12  H   UNL     1     -10.412  16.807  68.593  1.00  0.00     0.000 H  
ENDBRANCH   3   7
TORSDOF 1
ENDMDL
MODEL       22
REMARK 921   NORMALIZED FREE ENERGY PREDICTED BY IDOCK:   -3.84 KCAL/MOL
REMARK 922        TOTAL FREE ENERGY PREDICTED BY IDOCK:   -3.53 KCAL/MOL
REMARK 923 INTER-LIGAND FREE ENERGY PREDICTED BY IDOCK:   -3.93 KCAL/MOL
REMARK 924 INTRA-LIGAND FREE ENERGY PREDICTED BY IDOCK:    0.41 KCAL/MOL
REMARK 927      BINDING AFFINITY PREDICTED BY RF-SCORE:    0.00 PKD
ROOT
HETATM    1  O   UNL     1      -9.636  18.621  68.500  1.00  0.00    -0.328 OA 
HETATM    2  C   UNL     1     -10.083  17.616  67.711  1.00  0.00    -0.338 C  
HETATM    3  C   UNL     1      -9.403  17.526  66.350  1.00  0.00    -0.246 C  
HETATM    4  O   UNL     1     -10.968  16.856  68.083  1.00  0.00    -0.365 OA 
HETATM    5  S   UNL     1      -7.640  18.071  66.498  1.00  0.00    -0.263 SA 
HETATM    6  H   UNL     1      -7.020  17.989  65.257  1.00  0.00     0.000 H  
ENDROOT
BRANCH   3   7
HETATM    7  C   UNL     1      -9.500  16.116  65.740  1.00  0.00    -0.219 C  
HETATM    8  C   UNL     1     -10.827  15.940  65.009  1.00  0.00    -0.426 C  
HETATM    9  S   UNL     1      -9.205  14.733  66.932  1.00  0.00    -0.257 SA 
HETATM   10  O   UNL     1     -11.276  14.664  64.943  1.00  0.00    -0.360 OA 
HETATM   11  O   UNL     1     -11.401  16.855  64.432  1.00  0.00    -1.133 OA 
HETATM   12  H   UNL     1      -9.293  13.460  66.381  1.00  0.00     0.000 H  
ENDBRANCH   3   7
TORSDOF 1
ENDMDL
MODEL       23
REMARK 921   NORMALIZED FREE ENERGY PREDICTED BY IDOCK:   -3.81 KCAL/MOL
REMARK 922        TOTAL FREE ENERGY PREDICTED BY IDOCK:   -3.50 KCAL/MOL
REMARK 923 INTER-LIGAND FREE ENERGY PREDICTED BY IDOCK:   -3.86 KCAL/MOL
REMARK 924 INTRA-LIGAND FREE ENERGY PREDICTED BY IDOCK:    0.36 KCAL/MOL
REMARK 927      BINDING AFFINITY PREDICTED BY RF-SCORE:    0.00 PKD
ROOT
HETATM    1  O   UNL     1     -13.097  14.244  64.845  1.00  0.00    -0.645 OA 
HETATM    2  C   UNL     1     -12.411  13.696  65.875  1.00  0.00    -0.471 C  
HETATM    3  C   UNL     1     -11.706  12.386  65.543  1.00  0.00    -0.407 C  
HETATM    4  O   UNL     1     -12.377  14.229  66.977  1.00  0.00    -0.386 OA 
HETATM    5  S   UNL     1     -11.156  12.406  63.775  1.00  0.00    -0.480 SA 
HETATM    6  H   UNL     1     -10.513  11.211  63.473  1.00  0.00     0.000 H  
ENDROOT
BRANCH   3   7
HETATM    7  C   UNL     1     -10.527  12.101  66.490  1.00  0.00    -0.225 C  
HETATM    8  C   UNL     1     -11.029  11.551  67.820  1.00  0.00    -0.236 C  
HETATM    9  S   UNL     1      -9.377  13.527  66.748  1.00  0.00    -0.241 SA 
HETATM   10  O   UNL     1     -10.225  11.798  68.881  1.00  0.00    -0.188 OA 
HETATM   11  O   UNL     1     -12.028  10.848  67.921  1.00  0.00    -0.585 OA 
HETATM   12  H   UNL     1      -8.312  13.269  67.604  1.00  0.00     0.000 H  
ENDBRANCH   3   7
TORSDOF 1
ENDMDL
MODEL       24
REMARK 921   NORMALIZED FREE ENERGY PREDICTED BY IDOCK:   -3.74 KCAL/MOL
REMARK 922        TOTAL FREE ENERGY PREDICTED BY IDOCK:   -3.42 KCAL/MOL
REMARK 923 INTER-LIGAND FREE ENERGY PREDICTED BY IDOCK:   -3.85 KCAL/MOL
REMARK 924 INTRA-LIGAND FREE ENERGY PREDICTED BY IDOCK:    0.43 KCAL/MOL
REMARK 927      BINDING AFFINITY PREDICTED BY RF-SCORE:    0.00 PKD
ROOT
HETATM    1  O   UNL     1      -9.624  16.791  65.466  1.00  0.00    -0.515 OA 
HETATM    2  C   UNL     1     -10.485  15.768  65.253  1.00  0.00    -0.401 C  
HETATM    3  C   UNL     1      -9.917  14.387  65.557  1.00  0.00    -0.329 C  
HETATM    4  O   UNL     1     -11.622  15.965  64.844  1.00  0.00    -0.189 OA 
HETATM    5  S   UNL     1      -8.713  14.503  66.958  1.00  0.00    -0.217 SA 
HETATM    6  H   UNL     1      -8.196  13.242  67.235  1.00  0.00     0.000 H  
ENDROOT
BRANCH   3   7
HETATM    7  C   UNL     1     -11.020  13.355  65.853  1.00  0.00    -0.274 C  
HETATM    8  C   UNL     1     -11.816  13.044  64.590  1.00  0.00    -0.372 C  
HETATM    9  S   UNL     1     -12.141  13.799  67.257  1.00  0.00    -0.294 SA 
HETATM   10  O   UNL     1     -13.091  12.644  64.804  1.00  0.00    -0.852 OA 
HETATM   11  O   UNL     1     -11.322  13.050  63.468  1.00  0.00    -0.406 OA 
HETATM   12  H   UNL     1     -13.136  12.866  67.524  1.00  0.00     0.000 H  
ENDBRANCH   3   7
TORSDOF 1
ENDMDL
MODEL       25
REMARK 921   NORMALIZED FREE ENERGY PREDICTED BY IDOCK:   -3.71 KCAL/MOL
REMARK 922        TOTAL FREE ENERGY PREDICTED BY IDOCK:   -3.40 KCAL/MOL
REMARK 923 INTER-LIGAND FREE ENERGY PREDICTED BY IDOCK:   -3.75 KCAL/MOL
REMARK 924 INTRA-LIGAND FREE ENERGY PREDICTED BY IDOCK:    0.36 KCAL/MOL
REMARK 927      BINDING AFFINITY PREDICTED BY RF-SCORE:    0.00 PKD
ROOT
HETATM    1  O   UNL     1     -12.705  14.063  63.508  1.00  0.00    -0.805 OA 
HETATM    2  C   UNL     1     -12.147  13.326  64.498  1.00  0.00    -0.408 C  
HETATM    3  C   UNL     1     -10.847  13.893  65.056  1.00  0.00    -0.382 C  
HETATM    4  O   UNL     1     -12.664  12.289  64.892  1.00  0.00    -0.575 OA 
HETATM    5  S   UNL     1     -10.895  15.743  64.991  1.00  0.00    -0.375 SA 
HETATM    6  H   UNL     1      -9.709  16.259  65.500  1.00  0.00     0.000 H  
ENDROOT
BRANCH   3   7
HETATM    7  C   UNL     1     -10.556  13.393  66.482  1.00  0.00    -0.287 C  
HETATM    8  C   UNL     1     -10.039  11.959  66.451  1.00  0.00    -0.214 C  
HETATM    9  S   UNL     1     -11.964  13.571  67.668  1.00  0.00    -0.297 SA 
HETATM   10  O   UNL     1     -10.290  11.238  67.569  1.00  0.00    -0.185 OA 
HETATM   11  O   UNL     1      -9.358  11.511  65.536  1.00  0.00    -0.223 OA 
HETATM   12  H   UNL     1     -11.701  13.119  68.956  1.00  0.00     0.000 H  
ENDBRANCH   3   7
TORSDOF 1
ENDMDL
MODEL       26
REMARK 921   NORMALIZED FREE ENERGY PREDICTED BY IDOCK:   -3.66 KCAL/MOL
REMARK 922        TOTAL FREE ENERGY PREDICTED BY IDOCK:   -3.34 KCAL/MOL
REMARK 923 INTER-LIGAND FREE ENERGY PREDICTED BY IDOCK:   -3.85 KCAL/MOL
REMARK 924 INTRA-LIGAND FREE ENERGY PREDICTED BY IDOCK:    0.51 KCAL/MOL
REMARK 927      BINDING AFFINITY PREDICTED BY RF-SCORE:    0.00 PKD
ROOT
HETATM    1  O   UNL     1     -10.012  10.392  63.833  1.00  0.00    -0.315 OA 
HETATM    2  C   UNL     1      -9.734  11.423  64.665  1.00  0.00    -0.240 C  
HETATM    3  C   UNL     1     -10.456  12.723  64.328  1.00  0.00    -0.399 C  
HETATM    4  O   UNL     1      -8.959  11.297  65.604  1.00  0.00    -0.207 OA 
HETATM    5  S   UNL     1     -12.118  12.343  63.605  1.00  0.00    -0.582 SA 
HETATM    6  H   UNL     1     -12.775  13.528  63.298  1.00  0.00     0.000 H  
ENDROOT
BRANCH   3   7
HETATM    7  C   UNL     1     -10.578  13.656  65.545  1.00  0.00    -0.296 C  
HETATM    8  C   UNL     1     -11.725  13.212  66.447  1.00  0.00    -0.379 C  
HETATM    9  S   UNL     1     -10.711  15.455  65.134  1.00  0.00    -0.443 SA 
HETATM   10  O   UNL     1     -12.292  14.200  67.178  1.00  0.00    -0.370 OA 
HETATM   11  O   UNL     1     -12.052  12.039  66.589  1.00  0.00    -0.615 OA 
HETATM   12  H   UNL     1     -10.821  16.297  66.233  1.00  0.00     0.000 H  
ENDBRANCH   3   7
TORSDOF 1
ENDMDL
MODEL       27
REMARK 921   NORMALIZED FREE ENERGY PREDICTED BY IDOCK:   -3.62 KCAL/MOL
REMARK 922        TOTAL FREE ENERGY PREDICTED BY IDOCK:   -3.29 KCAL/MOL
REMARK 923 INTER-LIGAND FREE ENERGY PREDICTED BY IDOCK:   -3.83 KCAL/MOL
REMARK 924 INTRA-LIGAND FREE ENERGY PREDICTED BY IDOCK:    0.53 KCAL/MOL
REMARK 927      BINDING AFFINITY PREDICTED BY RF-SCORE:    0.00 PKD
ROOT
HETATM    1  O   UNL     1     -11.394  16.728  64.290  1.00  0.00    -1.170 OA 
HETATM    2  C   UNL     1     -10.929  15.553  64.777  1.00  0.00    -0.399 C  
HETATM    3  C   UNL     1      -9.735  15.683  65.716  1.00  0.00    -0.345 C  
HETATM    4  O   UNL     1     -11.443  14.485  64.470  1.00  0.00    -0.378 OA 
HETATM    5  S   UNL     1      -9.860  17.266  66.667  1.00  0.00    -0.307 SA 
HETATM    6  H   UNL     1      -8.771  17.384  67.523  1.00  0.00     0.000 H  
ENDROOT
BRANCH   3   7
HETATM    7  C   UNL     1      -9.600  14.475  66.660  1.00  0.00    -0.276 C  
HETATM    8  C   UNL     1     -10.638  14.548  67.774  1.00  0.00    -0.250 C  
HETATM    9  S   UNL     1      -7.902  14.212  67.345  1.00  0.00    -0.144 SA 
HETATM   10  O   UNL     1     -10.284  13.928  68.925  1.00  0.00    -0.213 OA 
HETATM   11  O   UNL     1     -11.752  15.035  67.622  1.00  0.00    -0.342 OA 
HETATM   12  H   UNL     1      -7.780  13.121  68.197  1.00  0.00     0.000 H  
ENDBRANCH   3   7
TORSDOF 1
ENDMDL
MODEL       28
REMARK 921   NORMALIZED FREE ENERGY PREDICTED BY IDOCK:   -3.61 KCAL/MOL
REMARK 922        TOTAL FREE ENERGY PREDICTED BY IDOCK:   -3.29 KCAL/MOL
REMARK 923 INTER-LIGAND FREE ENERGY PREDICTED BY IDOCK:   -3.77 KCAL/MOL
REMARK 924 INTRA-LIGAND FREE ENERGY PREDICTED BY IDOCK:    0.48 KCAL/MOL
REMARK 927      BINDING AFFINITY PREDICTED BY RF-SCORE:    0.00 PKD
ROOT
HETATM    1  O   UNL     1     -11.231  16.878  64.258  1.00  0.00    -1.204 OA 
HETATM    2  C   UNL     1     -10.736  16.144  65.282  1.00  0.00    -0.368 C  
HETATM    3  C   UNL     1      -9.808  16.907  66.219  1.00  0.00    -0.302 C  
HETATM    4  O   UNL     1     -11.024  14.962  65.419  1.00  0.00    -0.325 OA 
HETATM    5  S   UNL     1     -10.348  18.675  66.327  1.00  0.00    -0.428 SA 
HETATM    6  H   UNL     1      -9.501  19.371  67.182  1.00  0.00     0.000 H  
ENDROOT
BRANCH   3   7
HETATM    7  C   UNL     1      -9.728  16.263  67.615  1.00  0.00    -0.234 C  
HETATM    8  C   UNL     1      -8.616  15.221  67.660  1.00  0.00    -0.169 C  
HETATM    9  S   UNL     1     -11.324  15.566  68.239  1.00  0.00    -0.353 SA 
HETATM   10  O   UNL     1      -8.802  14.228  68.561  1.00  0.00    -0.179 OA 
HETATM   11  O   UNL     1      -7.580  15.317  67.013  1.00  0.00    -0.205 OA 
HETATM   12  H   UNL     1     -11.251  14.984  69.499  1.00  0.00     0.000 H  
ENDBRANCH   3   7
TORSDOF 1
ENDMDL
MODEL       29
REMARK 921   NORMALIZED FREE ENERGY PREDICTED BY IDOCK:   -3.61 KCAL/MOL
REMARK 922        TOTAL FREE ENERGY PREDICTED BY IDOCK:   -3.29 KCAL/MOL
REMARK 923 INTER-LIGAND FREE ENERGY PREDICTED BY IDOCK:   -3.64 KCAL/MOL
REMARK 924 INTRA-LIGAND FREE ENERGY PREDICTED BY IDOCK:    0.36 KCAL/MOL
REMARK 927      BINDING AFFINITY PREDICTED BY RF-SCORE:    0.00 PKD
ROOT
HETATM    1  O   UNL     1     -11.983  13.206  69.822  1.00  0.00    -0.313 OA 
HETATM    2  C   UNL     1     -11.977  13.013  68.481  1.00  0.00    -0.261 C  
HETATM    3  C   UNL     1     -11.926  14.293  67.656  1.00  0.00    -0.365 C  
HETATM    4  O   UNL     1     -12.015  11.889  67.997  1.00  0.00    -0.527 OA 
HETATM    5  S   UNL     1     -10.947  15.578  68.561  1.00  0.00    -0.306 SA 
HETATM    6  H   UNL     1     -10.901  16.746  67.807  1.00  0.00     0.000 H  
ENDROOT
BRANCH   3   7
HETATM    7  C   UNL     1     -11.362  14.056  66.244  1.00  0.00    -0.333 C  
HETATM    8  C   UNL     1     -12.422  13.433  65.342  1.00  0.00    -0.494 C  
HETATM    9  S   UNL     1      -9.787  13.087  66.190  1.00  0.00    -0.251 SA 
HETATM   10  O   UNL     1     -11.937  12.675  64.330  1.00  0.00    -0.355 OA 
HETATM   11  O   UNL     1     -13.619  13.674  65.449  1.00  0.00    -0.440 OA 
HETATM   12  H   UNL     1      -9.278  12.872  64.915  1.00  0.00     0.000 H  
ENDBRANCH   3   7
TORSDOF 1
ENDMDL
MODEL       30
REMARK 921   NORMALIZED FREE ENERGY PREDICTED BY IDOCK:   -3.61 KCAL/MOL
REMARK 922        TOTAL FREE ENERGY PREDICTED BY IDOCK:   -3.28 KCAL/MOL
REMARK 923 INTER-LIGAND FREE ENERGY PREDICTED BY IDOCK:   -3.80 KCAL/MOL
REMARK 924 INTRA-LIGAND FREE ENERGY PREDICTED BY IDOCK:    0.51 KCAL/MOL
REMARK 927      BINDING AFFINITY PREDICTED BY RF-SCORE:    0.00 PKD
ROOT
HETATM    1  O   UNL     1     -12.871  12.160  63.398  1.00  0.00    -0.765 OA 
HETATM    2  C   UNL     1     -11.676  12.102  64.032  1.00  0.00    -0.430 C  
HETATM    3  C   UNL     1     -11.329  13.344  64.845  1.00  0.00    -0.328 C  
HETATM    4  O   UNL     1     -10.949  11.121  63.940  1.00  0.00    -0.374 OA 
HETATM    5  S   UNL     1     -12.876  14.090  65.535  1.00  0.00    -0.272 SA 
HETATM    6  H   UNL     1     -12.559  15.222  66.276  1.00  0.00     0.000 H  
ENDROOT
BRANCH   3   7
HETATM    7  C   UNL     1     -10.309  13.047  65.959  1.00  0.00    -0.285 C  
HETATM    8  C   UNL     1     -10.992  12.368  67.142  1.00  0.00    -0.262 C  
HETATM    9  S   UNL     1      -9.314  14.506  66.509  1.00  0.00    -0.266 SA 
HETATM   10  O   UNL     1     -10.394  12.572  68.339  1.00  0.00    -0.223 OA 
HETATM   11  O   UNL     1     -11.946  11.608  67.020  1.00  0.00    -0.593 OA 
HETATM   12  H   UNL     1      -8.394  14.237  67.515  1.00  0.00     0.000 H  
ENDBRANCH   3   7
TORSDOF 1
ENDMDL
MODEL       31
REMARK 921   NORMALIZED FREE ENERGY PREDICTED BY IDOCK:   -3.57 KCAL/MOL
REMARK 922        TOTAL FREE ENERGY PREDICTED BY IDOCK:   -3.25 KCAL/MOL
REMARK 923 INTER-LIGAND FREE ENERGY PREDICTED BY IDOCK:   -3.77 KCAL/MOL
REMARK 924 INTRA-LIGAND FREE ENERGY PREDICTED BY IDOCK:    0.52 KCAL/MOL
REMARK 927      BINDING AFFINITY PREDICTED BY RF-SCORE:    0.00 PKD
ROOT
HETATM    1  O   UNL     1      -9.542  14.211  68.102  1.00  0.00    -0.205 OA 
HETATM    2  C   UNL     1      -9.460  14.187  66.751  1.00  0.00    -0.279 C  
HETATM    3  C   UNL     1     -10.089  12.962  66.098  1.00  0.00    -0.276 C  
HETATM    4  O   UNL     1      -8.915  15.089  66.127  1.00  0.00    -0.261 OA 
HETATM    5  S   UNL     1     -11.545  12.403  67.096  1.00  0.00    -0.353 SA 
HETATM    6  H   UNL     1     -12.118  11.286  66.501  1.00  0.00     0.000 H  
ENDROOT
BRANCH   3   7
HETATM    7  C   UNL     1     -10.483  13.218  64.633  1.00  0.00    -0.402 C  
HETATM    8  C   UNL     1     -11.836  13.919  64.558  1.00  0.00    -0.426 C  
HETATM    9  S   UNL     1     -10.445  11.721  63.547  1.00  0.00    -0.465 SA 
HETATM   10  O   UNL     1     -12.534  13.689  63.421  1.00  0.00    -0.784 OA 
HETATM   11  O   UNL     1     -12.227  14.714  65.404  1.00  0.00    -0.318 OA 
HETATM   12  H   UNL     1     -10.801  11.953  62.223  1.00  0.00     0.000 H  
ENDBRANCH   3   7
TORSDOF 1
ENDMDL
MODEL       32
REMARK 921   NORMALIZED FREE ENERGY PREDICTED BY IDOCK:   -3.55 KCAL/MOL
REMARK 922        TOTAL FREE ENERGY PREDICTED BY IDOCK:   -3.22 KCAL/MOL
REMARK 923 INTER-LIGAND FREE ENERGY PREDICTED BY IDOCK:   -3.58 KCAL/MOL
REMARK 924 INTRA-LIGAND FREE ENERGY PREDICTED BY IDOCK:    0.36 KCAL/MOL
REMARK 927      BINDING AFFINITY PREDICTED BY RF-SCORE:    0.00 PKD
ROOT
HETATM    1  O   UNL     1      -6.831  19.803  69.745  1.00  0.00    -0.338 OA 
HETATM    2  C   UNL     1      -7.662  19.323  68.789  1.00  0.00    -0.362 C  
HETATM    3  C   UNL     1      -7.840  20.240  67.584  1.00  0.00    -0.285 C  
HETATM    4  O   UNL     1      -8.217  18.239  68.910  1.00  0.00    -0.266 OA 
HETATM    5  S   UNL     1      -6.271  21.172  67.274  1.00  0.00    -0.355 SA 
HETATM    6  H   UNL     1      -6.433  22.007  66.175  1.00  0.00     0.000 H  
ENDROOT
BRANCH   3   7
HETATM    7  C   UNL     1      -8.290  19.472  66.328  1.00  0.00    -0.345 C  
HETATM    8  C   UNL     1      -9.783  19.171  66.391  1.00  0.00    -0.364 C  
HETATM    9  S   UNL     1      -7.314  17.943  65.963  1.00  0.00    -0.225 SA 
HETATM   10  O   UNL     1     -10.173  18.072  65.704  1.00  0.00    -0.584 OA 
HETATM   11  O   UNL     1     -10.595  19.914  66.930  1.00  0.00    -0.454 OA 
HETATM   12  H   UNL     1      -7.721  17.251  64.829  1.00  0.00     0.000 H  
ENDBRANCH   3   7
TORSDOF 1
ENDMDL
MODEL       33
REMARK 921   NORMALIZED FREE ENERGY PREDICTED BY IDOCK:   -3.52 KCAL/MOL
REMARK 922        TOTAL FREE ENERGY PREDICTED BY IDOCK:   -3.19 KCAL/MOL
REMARK 923 INTER-LIGAND FREE ENERGY PREDICTED BY IDOCK:   -3.56 KCAL/MOL
REMARK 924 INTRA-LIGAND FREE ENERGY PREDICTED BY IDOCK:    0.36 KCAL/MOL
REMARK 927      BINDING AFFINITY PREDICTED BY RF-SCORE:    0.00 PKD
ROOT
HETATM    1  O   UNL     1      -9.652  15.316  65.999  1.00  0.00    -0.293 OA 
HETATM    2  C   UNL     1      -9.476  16.635  66.249  1.00  0.00    -0.293 C  
HETATM    3  C   UNL     1     -10.480  17.235  67.227  1.00  0.00    -0.319 C  
HETATM    4  O   UNL     1      -8.577  17.273  65.716  1.00  0.00    -0.532 OA 
HETATM    5  S   UNL     1     -10.969  15.961  68.478  1.00  0.00    -0.343 SA 
HETATM    6  H   UNL     1     -11.884  16.508  69.369  1.00  0.00     0.000 H  
ENDROOT
BRANCH   3   7
HETATM    7  C   UNL     1      -9.943  18.506  67.908  1.00  0.00    -0.346 C  
HETATM    8  C   UNL     1     -10.072  19.707  66.977  1.00  0.00    -0.412 C  
HETATM    9  S   UNL     1      -8.224  18.361  68.578  1.00  0.00    -0.300 SA 
HETATM   10  O   UNL     1      -9.168  20.693  67.189  1.00  0.00    -0.365 OA 
HETATM   11  O   UNL     1     -10.981  19.832  66.166  1.00  0.00    -0.353 OA 
HETATM   12  H   UNL     1      -7.740  19.510  69.193  1.00  0.00     0.000 H  
ENDBRANCH   3   7
TORSDOF 1
ENDMDL
MODEL       34
REMARK 921   NORMALIZED FREE ENERGY PREDICTED BY IDOCK:   -3.51 KCAL/MOL
REMARK 922        TOTAL FREE ENERGY PREDICTED BY IDOCK:   -3.18 KCAL/MOL
REMARK 923 INTER-LIGAND FREE ENERGY PREDICTED BY IDOCK:   -3.61 KCAL/MOL
REMARK 924 INTRA-LIGAND FREE ENERGY PREDICTED BY IDOCK:    0.43 KCAL/MOL
REMARK 927      BINDING AFFINITY PREDICTED BY RF-SCORE:    0.00 PKD
ROOT
HETATM    1  O   UNL     1      -6.504  16.566  66.371  1.00  0.00    -0.218 OA 
HETATM    2  C   UNL     1      -7.493  17.460  66.134  1.00  0.00    -0.296 C  
HETATM    3  C   UNL     1      -8.809  17.153  66.839  1.00  0.00    -0.235 C  
HETATM    4  O   UNL     1      -7.320  18.427  65.403  1.00  0.00    -0.521 OA 
HETATM    5  S   UNL     1      -8.467  16.335  68.465  1.00  0.00    -0.217 SA 
HETATM    6  H   UNL     1      -9.667  16.056  69.108  1.00  0.00     0.000 H  
ENDROOT
BRANCH   3   7
HETATM    7  C   UNL     1      -9.681  18.407  67.020  1.00  0.00    -0.310 C  
HETATM    8  C   UNL     1     -10.530  18.652  65.776  1.00  0.00    -0.256 C  
HETATM    9  S   UNL     1      -8.756  19.933  67.508  1.00  0.00    -0.345 SA 
HETATM   10  O   UNL     1     -10.872  19.945  65.564  1.00  0.00    -0.426 OA 
HETATM   11  O   UNL     1     -10.963  17.748  65.071  1.00  0.00    -0.784 OA 
HETATM   12  H   UNL     1      -9.544  21.066  67.670  1.00  0.00     0.000 H  
ENDBRANCH   3   7
TORSDOF 1
ENDMDL
MODEL       35
REMARK 921   NORMALIZED FREE ENERGY PREDICTED BY IDOCK:   -3.49 KCAL/MOL
REMARK 922        TOTAL FREE ENERGY PREDICTED BY IDOCK:   -3.16 KCAL/MOL
REMARK 923 INTER-LIGAND FREE ENERGY PREDICTED BY IDOCK:   -3.68 KCAL/MOL
REMARK 924 INTRA-LIGAND FREE ENERGY PREDICTED BY IDOCK:    0.52 KCAL/MOL
REMARK 927      BINDING AFFINITY PREDICTED BY RF-SCORE:    0.00 PKD
ROOT
HETATM    1  O   UNL     1     -11.350  12.343  63.874  1.00  0.00    -0.362 OA 
HETATM    2  C   UNL     1     -12.063  12.799  64.931  1.00  0.00    -0.438 C  
HETATM    3  C   UNL     1     -11.408  12.565  66.287  1.00  0.00    -0.338 C  
HETATM    4  O   UNL     1     -13.147  13.349  64.782  1.00  0.00    -0.694 OA 
HETATM    5  S   UNL     1      -9.567  12.657  66.113  1.00  0.00    -0.179 SA 
HETATM    6  H   UNL     1      -8.970  12.443  67.350  1.00  0.00     0.000 H  
ENDROOT
BRANCH   3   7
HETATM    7  C   UNL     1     -11.915  13.547  67.358  1.00  0.00    -0.357 C  
HETATM    8  C   UNL     1     -11.265  14.915  67.182  1.00  0.00    -0.343 C  
HETATM    9  S   UNL     1     -11.748  12.948  69.101  1.00  0.00    -0.321 SA 
HETATM   10  O   UNL     1     -11.163  15.648  68.315  1.00  0.00    -0.320 OA 
HETATM   11  O   UNL     1     -10.949  15.371  66.090  1.00  0.00    -0.323 OA 
HETATM   12  H   UNL     1     -12.207  13.834  70.068  1.00  0.00     0.000 H  
ENDBRANCH   3   7
TORSDOF 1
ENDMDL
MODEL       36
REMARK 921   NORMALIZED FREE ENERGY PREDICTED BY IDOCK:   -3.49 KCAL/MOL
REMARK 922        TOTAL FREE ENERGY PREDICTED BY IDOCK:   -3.15 KCAL/MOL
REMARK 923 INTER-LIGAND FREE ENERGY PREDICTED BY IDOCK:   -3.53 KCAL/MOL
REMARK 924 INTRA-LIGAND FREE ENERGY PREDICTED BY IDOCK:    0.37 KCAL/MOL
REMARK 927      BINDING AFFINITY PREDICTED BY RF-SCORE:    0.00 PKD
ROOT
HETATM    1  O   UNL     1     -10.939   5.362  71.855  1.00  0.00    -0.223 OA 
HETATM    2  C   UNL     1     -11.525   6.542  71.540  1.00  0.00    -0.302 C  
HETATM    3  C   UNL     1     -11.403   7.618  72.613  1.00  0.00    -0.370 C  
HETATM    4  O   UNL     1     -12.102   6.704  70.473  1.00  0.00    -0.390 OA 
HETATM    5  S   UNL     1      -9.796   7.422  73.512  1.00  0.00    -0.318 SA 
HETATM    6  H   UNL     1      -9.686   8.403  74.490  1.00  0.00     0.000 H  
ENDROOT
BRANCH   3   7
HETATM    7  C   UNL     1     -11.549   9.037  72.036  1.00  0.00    -0.343 C  
HETATM    8  C   UNL     1     -13.021   9.387  71.843  1.00  0.00    -0.417 C  
HETATM    9  S   UNL     1     -10.580   9.350  70.492  1.00  0.00    -0.296 SA 
HETATM   10  O   UNL     1     -13.268  10.291  70.866  1.00  0.00    -0.395 OA 
HETATM   11  O   UNL     1     -13.910   8.972  72.576  1.00  0.00    -0.473 OA 
HETATM   12  H   UNL     1     -10.712  10.632  69.972  1.00  0.00     0.000 H  
ENDBRANCH   3   7
TORSDOF 1
ENDMDL
MODEL       37
REMARK 921   NORMALIZED FREE ENERGY PREDICTED BY IDOCK:   -3.48 KCAL/MOL
REMARK 922        TOTAL FREE ENERGY PREDICTED BY IDOCK:   -3.15 KCAL/MOL
REMARK 923 INTER-LIGAND FREE ENERGY PREDICTED BY IDOCK:   -3.51 KCAL/MOL
REMARK 924 INTRA-LIGAND FREE ENERGY PREDICTED BY IDOCK:    0.36 KCAL/MOL
REMARK 927      BINDING AFFINITY PREDICTED BY RF-SCORE:    0.00 PKD
ROOT
HETATM    1  O   UNL     1      -8.813  14.620  68.670  1.00  0.00    -0.177 OA 
HETATM    2  C   UNL     1      -9.558  14.075  67.679  1.00  0.00    -0.221 C  
HETATM    3  C   UNL     1     -11.063  14.254  67.846  1.00  0.00    -0.278 C  
HETATM    4  O   UNL     1      -9.041  13.489  66.737  1.00  0.00    -0.243 OA 
HETATM    5  S   UNL     1     -11.409  15.865  68.690  1.00  0.00    -0.382 SA 
HETATM    6  H   UNL     1     -12.781  16.027  68.842  1.00  0.00     0.000 H  
ENDROOT
BRANCH   3   7
HETATM    7  C   UNL     1     -11.815  14.154  66.508  1.00  0.00    -0.419 C  
HETATM    8  C   UNL     1     -11.912  12.700  66.055  1.00  0.00    -0.417 C  
HETATM    9  S   UNL     1     -11.146  15.230  65.159  1.00  0.00    -0.400 SA 
HETATM   10  O   UNL     1     -12.008  12.525  64.716  1.00  0.00    -0.368 OA 
HETATM   11  O   UNL     1     -12.003  11.760  66.836  1.00  0.00    -0.605 OA 
HETATM   12  H   UNL     1     -11.826  15.139  63.951  1.00  0.00     0.000 H  
ENDBRANCH   3   7
TORSDOF 1
ENDMDL
MODEL       38
REMARK 921   NORMALIZED FREE ENERGY PREDICTED BY IDOCK:   -3.47 KCAL/MOL
REMARK 922        TOTAL FREE ENERGY PREDICTED BY IDOCK:   -3.13 KCAL/MOL
REMARK 923 INTER-LIGAND FREE ENERGY PREDICTED BY IDOCK:   -3.51 KCAL/MOL
REMARK 924 INTRA-LIGAND FREE ENERGY PREDICTED BY IDOCK:    0.38 KCAL/MOL
REMARK 927      BINDING AFFINITY PREDICTED BY RF-SCORE:    0.00 PKD
ROOT
HETATM    1  O   UNL     1      -9.932  20.813  67.476  1.00  0.00    -0.408 OA 
HETATM    2  C   UNL     1     -10.064  19.474  67.328  1.00  0.00    -0.405 C  
HETATM    3  C   UNL     1      -9.082  18.843  66.348  1.00  0.00    -0.311 C  
HETATM    4  O   UNL     1     -10.915  18.843  67.943  1.00  0.00    -0.286 OA 
HETATM    5  S   UNL     1      -7.478  19.767  66.392  1.00  0.00    -0.298 SA 
HETATM    6  H   UNL     1      -6.583  19.192  65.498  1.00  0.00     0.000 H  
ENDROOT
BRANCH   3   7
HETATM    7  C   UNL     1      -8.869  17.344  66.617  1.00  0.00    -0.254 C  
HETATM    8  C   UNL     1     -10.001  16.524  66.008  1.00  0.00    -0.337 C  
HETATM    9  S   UNL     1      -8.608  16.904  68.395  1.00  0.00    -0.247 SA 
HETATM   10  O   UNL     1     -10.248  15.345  66.626  1.00  0.00    -0.263 OA 
HETATM   11  O   UNL     1     -10.582  16.844  64.978  1.00  0.00    -0.700 OA 
HETATM   12  H   UNL     1      -8.415  15.550  68.638  1.00  0.00     0.000 H  
ENDBRANCH   3   7
TORSDOF 1
ENDMDL
MODEL       39
REMARK 921   NORMALIZED FREE ENERGY PREDICTED BY IDOCK:   -3.45 KCAL/MOL
REMARK 922        TOTAL FREE ENERGY PREDICTED BY IDOCK:   -3.12 KCAL/MOL
REMARK 923 INTER-LIGAND FREE ENERGY PREDICTED BY IDOCK:   -3.71 KCAL/MOL
REMARK 924 INTRA-LIGAND FREE ENERGY PREDICTED BY IDOCK:    0.59 KCAL/MOL
REMARK 927      BINDING AFFINITY PREDICTED BY RF-SCORE:    0.00 PKD
ROOT
HETATM    1  O   UNL     1     -10.439  14.721  64.405  1.00  0.00    -0.101 OA 
HETATM    2  C   UNL     1     -10.785  15.820  65.116  1.00  0.00    -0.435 C  
HETATM    3  C   UNL     1     -10.542  15.709  66.616  1.00  0.00    -0.307 C  
HETATM    4  O   UNL     1     -11.257  16.811  64.572  1.00  0.00    -0.997 OA 
HETATM    5  S   UNL     1      -9.054  14.652  66.929  1.00  0.00    -0.260 SA 
HETATM    6  H   UNL     1      -8.833  14.551  68.298  1.00  0.00     0.000 H  
ENDROOT
BRANCH   3   7
HETATM    7  C   UNL     1     -10.397  17.086  67.288  1.00  0.00    -0.311 C  
HETATM    8  C   UNL     1      -9.060  17.722  66.924  1.00  0.00    -0.258 C  
HETATM    9  S   UNL     1     -10.660  17.086  69.120  1.00  0.00    -0.234 SA 
HETATM   10  O   UNL     1      -8.573  18.590  67.842  1.00  0.00    -0.276 OA 
HETATM   11  O   UNL     1      -8.509  17.551  65.843  1.00  0.00    -0.533 OA 
HETATM   12  H   UNL     1     -10.530  18.330  69.726  1.00  0.00     0.000 H  
ENDBRANCH   3   7
TORSDOF 1
ENDMDL
MODEL       40
REMARK 921   NORMALIZED FREE ENERGY PREDICTED BY IDOCK:   -3.45 KCAL/MOL
REMARK 922        TOTAL FREE ENERGY PREDICTED BY IDOCK:   -3.11 KCAL/MOL
REMARK 923 INTER-LIGAND FREE ENERGY PREDICTED BY IDOCK:   -3.49 KCAL/MOL
REMARK 924 INTRA-LIGAND FREE ENERGY PREDICTED BY IDOCK:    0.37 KCAL/MOL
REMARK 927      BINDING AFFINITY PREDICTED BY RF-SCORE:    0.00 PKD
ROOT
HETATM    1  O   UNL     1     -12.501  12.936  65.448  1.00  0.00    -0.480 OA 
HETATM    2  C   UNL     1     -11.499  13.846  65.445  1.00  0.00    -0.312 C  
HETATM    3  C   UNL     1     -11.500  14.796  66.637  1.00  0.00    -0.335 C  
HETATM    4  O   UNL     1     -10.671  13.884  64.543  1.00  0.00    -0.412 OA 
HETATM    5  S   UNL     1     -12.151  13.918  68.132  1.00  0.00    -0.176 SA 
HETATM    6  H   UNL     1     -12.152  14.784  69.219  1.00  0.00     0.000 H  
ENDROOT
BRANCH   3   7
HETATM    7  C   UNL     1     -10.110  15.398  66.906  1.00  0.00    -0.257 C  
HETATM    8  C   UNL     1      -9.760  16.433  65.842  1.00  0.00    -0.294 C  
HETATM    9  S   UNL     1      -8.752  14.157  67.103  1.00  0.00    -0.211 SA 
HETATM   10  O   UNL     1      -8.435  16.598  65.621  1.00  0.00    -0.345 OA 
HETATM   11  O   UNL     1     -10.597  17.143  65.297  1.00  0.00    -0.662 OA 
HETATM   12  H   UNL     1      -7.496  14.702  67.345  1.00  0.00     0.000 H  
ENDBRANCH   3   7
TORSDOF 1
ENDMDL
MODEL       41
REMARK 921   NORMALIZED FREE ENERGY PREDICTED BY IDOCK:   -3.43 KCAL/MOL
REMARK 922        TOTAL FREE ENERGY PREDICTED BY IDOCK:   -3.09 KCAL/MOL
REMARK 923 INTER-LIGAND FREE ENERGY PREDICTED BY IDOCK:   -3.45 KCAL/MOL
REMARK 924 INTRA-LIGAND FREE ENERGY PREDICTED BY IDOCK:    0.36 KCAL/MOL
REMARK 927      BINDING AFFINITY PREDICTED BY RF-SCORE:    0.00 PKD
ROOT
HETATM    1  O   UNL     1      -8.778   8.655  72.975  1.00  0.00    -0.380 OA 
HETATM    2  C   UNL     1     -10.048   8.281  72.689  1.00  0.00    -0.295 C  
HETATM    3  C   UNL     1     -10.684   9.032  71.526  1.00  0.00    -0.351 C  
HETATM    4  O   UNL     1     -10.618   7.409  73.333  1.00  0.00    -0.362 OA 
HETATM    5  S   UNL     1      -9.386   9.465  70.279  1.00  0.00    -0.264 SA 
HETATM    6  H   UNL     1      -9.966  10.150  69.218  1.00  0.00     0.000 H  
ENDROOT
BRANCH   3   7
HETATM    7  C   UNL     1     -11.835   8.241  70.879  1.00  0.00    -0.216 C  
HETATM    8  C   UNL     1     -13.104   8.364  71.716  1.00  0.00    -0.351 C  
HETATM    9  S   UNL     1     -11.448   6.471  70.509  1.00  0.00    -0.388 SA 
HETATM   10  O   UNL     1     -13.962   7.322  71.606  1.00  0.00    -0.395 OA 
HETATM   11  O   UNL     1     -13.389   9.366  72.361  1.00  0.00    -0.452 OA 
HETATM   12  H   UNL     1     -12.487   5.757  69.925  1.00  0.00     0.000 H  
ENDBRANCH   3   7
TORSDOF 1
ENDMDL
MODEL       42
REMARK 921   NORMALIZED FREE ENERGY PREDICTED BY IDOCK:   -3.40 KCAL/MOL
REMARK 922        TOTAL FREE ENERGY PREDICTED BY IDOCK:   -3.06 KCAL/MOL
REMARK 923 INTER-LIGAND FREE ENERGY PREDICTED BY IDOCK:   -4.39 KCAL/MOL
REMARK 924 INTRA-LIGAND FREE ENERGY PREDICTED BY IDOCK:    1.33 KCAL/MOL
REMARK 927      BINDING AFFINITY PREDICTED BY RF-SCORE:    0.00 PKD
ROOT
HETATM    1  O   UNL     1     -11.619  16.491  63.805  1.00  0.00    -1.109 OA 
HETATM    2  C   UNL     1     -10.981  16.078  64.926  1.00  0.00    -0.384 C  
HETATM    3  C   UNL     1     -11.494  14.762  65.499  1.00  0.00    -0.329 C  
HETATM    4  O   UNL     1     -10.071  16.730  65.420  1.00  0.00    -0.587 OA 
HETATM    5  S   UNL     1     -12.068  13.664  64.124  1.00  0.00    -0.396 SA 
HETATM    6  H   UNL     1     -12.535  12.464  64.648  1.00  0.00     0.000 H  
ENDROOT
BRANCH   3   7
HETATM    7  C   UNL     1     -10.442  14.056  66.373  1.00  0.00    -0.284 C  
HETATM    8  C   UNL     1     -11.090  12.958  67.209  1.00  0.00    -0.274 C  
HETATM    9  S   UNL     1      -9.424  15.186  67.427  1.00  0.00    -0.206 SA 
HETATM   10  O   UNL     1     -10.455  12.676  68.371  1.00  0.00    -0.228 OA 
HETATM   11  O   UNL     1     -12.050  12.301  66.825  1.00  0.00    -0.593 OA 
HETATM   12  H   UNL     1      -8.474  14.548  68.216  1.00  0.00     0.000 H  
ENDBRANCH   3   7
TORSDOF 1
ENDMDL
MODEL       43
REMARK 921   NORMALIZED FREE ENERGY PREDICTED BY IDOCK:   -3.36 KCAL/MOL
REMARK 922        TOTAL FREE ENERGY PREDICTED BY IDOCK:   -3.02 KCAL/MOL
REMARK 923 INTER-LIGAND FREE ENERGY PREDICTED BY IDOCK:   -3.57 KCAL/MOL
REMARK 924 INTRA-LIGAND FREE ENERGY PREDICTED BY IDOCK:    0.55 KCAL/MOL
REMARK 927      BINDING AFFINITY PREDICTED BY RF-SCORE:    0.00 PKD
ROOT
HETATM    1  O   UNL     1      -8.828  15.656  69.289  1.00  0.00    -0.236 OA 
HETATM    2  C   UNL     1      -8.752  15.499  67.947  1.00  0.00    -0.163 C  
HETATM    3  C   UNL     1     -10.051  15.051  67.286  1.00  0.00    -0.235 C  
HETATM    4  O   UNL     1      -7.711  15.703  67.336  1.00  0.00    -0.152 OA 
HETATM    5  S   UNL     1     -11.493  15.758  68.205  1.00  0.00    -0.292 SA 
HETATM    6  H   UNL     1     -12.677  15.349  67.602  1.00  0.00     0.000 H  
ENDROOT
BRANCH   3   7
HETATM    7  C   UNL     1     -10.105  15.421  65.793  1.00  0.00    -0.363 C  
HETATM    8  C   UNL     1     -10.610  16.849  65.615  1.00  0.00    -0.221 C  
HETATM    9  S   UNL     1     -11.056  14.239  64.735  1.00  0.00    -0.381 SA 
HETATM   10  O   UNL     1     -11.231  17.091  64.436  1.00  0.00    -1.167 OA 
HETATM   11  O   UNL     1     -10.387  17.745  66.420  1.00  0.00    -0.356 OA 
HETATM   12  H   UNL     1     -11.105  14.575  63.387  1.00  0.00     0.000 H  
ENDBRANCH   3   7
TORSDOF 1
ENDMDL
MODEL       44
REMARK 921   NORMALIZED FREE ENERGY PREDICTED BY IDOCK:   -3.35 KCAL/MOL
REMARK 922        TOTAL FREE ENERGY PREDICTED BY IDOCK:   -3.01 KCAL/MOL
REMARK 923 INTER-LIGAND FREE ENERGY PREDICTED BY IDOCK:   -3.56 KCAL/MOL
REMARK 924 INTRA-LIGAND FREE ENERGY PREDICTED BY IDOCK:    0.56 KCAL/MOL
REMARK 927      BINDING AFFINITY PREDICTED BY RF-SCORE:    0.00 PKD
ROOT
HETATM    1  O   UNL     1     -11.661  15.399  68.096  1.00  0.00    -0.351 OA 
HETATM    2  C   UNL     1     -11.909  14.183  67.553  1.00  0.00    -0.401 C  
HETATM    3  C   UNL     1     -11.939  14.162  66.030  1.00  0.00    -0.413 C  
HETATM    4  O   UNL     1     -12.093  13.196  68.254  1.00  0.00    -0.317 OA 
HETATM    5  S   UNL     1     -10.745  15.412  65.366  1.00  0.00    -0.425 SA 
HETATM    6  H   UNL     1     -10.773  15.393  63.976  1.00  0.00     0.000 H  
ENDROOT
BRANCH   3   7
HETATM    7  C   UNL     1     -11.653  12.762  65.459  1.00  0.00    -0.362 C  
HETATM    8  C   UNL     1     -10.172  12.423  65.588  1.00  0.00    -0.262 C  
HETATM    9  S   UNL     1     -12.252  12.493  63.729  1.00  0.00    -0.544 SA 
HETATM   10  O   UNL     1      -9.704  11.550  64.665  1.00  0.00    -0.238 OA 
HETATM   11  O   UNL     1      -9.472  12.819  66.513  1.00  0.00    -0.250 OA 
HETATM   12  H   UNL     1     -11.994  11.228  63.214  1.00  0.00     0.000 H  
ENDBRANCH   3   7
TORSDOF 1
ENDMDL
MODEL       45
REMARK 921   NORMALIZED FREE ENERGY PREDICTED BY IDOCK:   -3.34 KCAL/MOL
REMARK 922        TOTAL FREE ENERGY PREDICTED BY IDOCK:   -3.00 KCAL/MOL
REMARK 923 INTER-LIGAND FREE ENERGY PREDICTED BY IDOCK:   -3.36 KCAL/MOL
REMARK 924 INTRA-LIGAND FREE ENERGY PREDICTED BY IDOCK:    0.36 KCAL/MOL
REMARK 927      BINDING AFFINITY PREDICTED BY RF-SCORE:    0.00 PKD
ROOT
HETATM    1  O   UNL     1      -8.507  11.977  66.543  1.00  0.00    -0.160 OA 
HETATM    2  C   UNL     1      -9.647  12.646  66.251  1.00  0.00    -0.244 C  
HETATM    3  C   UNL     1     -10.927  11.852  66.486  1.00  0.00    -0.292 C  
HETATM    4  O   UNL     1      -9.624  13.796  65.832  1.00  0.00    -0.233 OA 
HETATM    5  S   UNL     1     -10.692  10.701  67.916  1.00  0.00    -0.271 SA 
HETATM    6  H   UNL     1     -11.860   9.977  68.129  1.00  0.00     0.000 H  
ENDROOT
BRANCH   3   7
HETATM    7  C   UNL     1     -12.149  12.763  66.698  1.00  0.00    -0.246 C  
HETATM    8  C   UNL     1     -12.635  13.326  65.367  1.00  0.00    -0.468 C  
HETATM    9  S   UNL     1     -11.906  14.109  67.944  1.00  0.00    -0.355 SA 
HETATM   10  O   UNL     1     -13.273  14.517  65.450  1.00  0.00    -0.494 OA 
HETATM   11  O   UNL     1     -12.554  12.712  64.310  1.00  0.00    -0.593 OA 
HETATM   12  H   UNL     1     -13.010  14.932  68.135  1.00  0.00     0.000 H  
ENDBRANCH   3   7
TORSDOF 1
ENDMDL
MODEL       46
REMARK 921   NORMALIZED FREE ENERGY PREDICTED BY IDOCK:   -3.32 KCAL/MOL
REMARK 922        TOTAL FREE ENERGY PREDICTED BY IDOCK:   -2.98 KCAL/MOL
REMARK 923 INTER-LIGAND FREE ENERGY PREDICTED BY IDOCK:   -3.49 KCAL/MOL
REMARK 924 INTRA-LIGAND FREE ENERGY PREDICTED BY IDOCK:    0.51 KCAL/MOL
REMARK 927      BINDING AFFINITY PREDICTED BY RF-SCORE:    0.00 PKD
ROOT
HETATM    1  O   UNL     1     -10.830  19.685  66.138  1.00  0.00    -0.424 OA 
HETATM    2  C   UNL     1     -10.166  18.510  66.242  1.00  0.00    -0.418 C  
HETATM    3  C   UNL     1      -9.174  18.441  67.397  1.00  0.00    -0.271 C  
HETATM    4  O   UNL     1     -10.362  17.592  65.456  1.00  0.00    -0.620 OA 
HETATM    5  S   UNL     1      -9.801  19.450  68.817  1.00  0.00    -0.457 SA 
HETATM    6  H   UNL     1      -8.896  19.388  69.870  1.00  0.00     0.000 H  
ENDROOT
BRANCH   3   7
HETATM    7  C   UNL     1      -8.879  16.994  67.830  1.00  0.00    -0.223 C  
HETATM    8  C   UNL     1      -9.987  16.471  68.738  1.00  0.00    -0.255 C  
HETATM    9  S   UNL     1      -7.213  16.736  68.592  1.00  0.00    -0.219 SA 
HETATM   10  O   UNL     1      -9.603  15.509  69.610  1.00  0.00    -0.274 OA 
HETATM   11  O   UNL     1     -11.159  16.809  68.628  1.00  0.00    -0.326 OA 
HETATM   12  H   UNL     1      -6.947  15.429  68.982  1.00  0.00     0.000 H  
ENDBRANCH   3   7
TORSDOF 1
ENDMDL
MODEL       47
REMARK 921   NORMALIZED FREE ENERGY PREDICTED BY IDOCK:   -3.32 KCAL/MOL
REMARK 922        TOTAL FREE ENERGY PREDICTED BY IDOCK:   -2.97 KCAL/MOL
REMARK 923 INTER-LIGAND FREE ENERGY PREDICTED BY IDOCK:   -3.48 KCAL/MOL
REMARK 924 INTRA-LIGAND FREE ENERGY PREDICTED BY IDOCK:    0.51 KCAL/MOL
REMARK 927      BINDING AFFINITY PREDICTED BY RF-SCORE:    0.00 PKD
ROOT
HETATM    1  O   UNL     1     -12.667  12.653  64.843  1.00  0.00    -0.648 OA 
HETATM    2  C   UNL     1     -11.816  12.551  65.890  1.00  0.00    -0.430 C  
HETATM    3  C   UNL     1     -10.638  13.518  65.848  1.00  0.00    -0.284 C  
HETATM    4  O   UNL     1     -11.998  11.736  66.786  1.00  0.00    -0.584 OA 
HETATM    5  S   UNL     1     -11.159  15.098  65.037  1.00  0.00    -0.419 SA 
HETATM    6  H   UNL     1     -10.085  15.980  64.999  1.00  0.00     0.000 H  
ENDROOT
BRANCH   3   7
HETATM    7  C   UNL     1     -10.045  13.777  67.244  1.00  0.00    -0.239 C  
HETATM    8  C   UNL     1     -10.898  14.783  68.009  1.00  0.00    -0.260 C  
HETATM    9  S   UNL     1      -8.262  14.272  67.249  1.00  0.00    -0.166 SA 
HETATM   10  O   UNL     1     -10.230  15.506  68.940  1.00  0.00    -0.195 OA 
HETATM   11  O   UNL     1     -12.113  14.869  67.878  1.00  0.00    -0.257 OA 
HETATM   12  H   UNL     1      -7.726  14.506  68.510  1.00  0.00     0.000 H  
ENDBRANCH   3   7
TORSDOF 1
ENDMDL
MODEL       48
REMARK 921   NORMALIZED FREE ENERGY PREDICTED BY IDOCK:   -3.31 KCAL/MOL
REMARK 922        TOTAL FREE ENERGY PREDICTED BY IDOCK:   -2.97 KCAL/MOL
REMARK 923 INTER-LIGAND FREE ENERGY PREDICTED BY IDOCK:   -3.41 KCAL/MOL
REMARK 924 INTRA-LIGAND FREE ENERGY PREDICTED BY IDOCK:    0.44 KCAL/MOL
REMARK 927      BINDING AFFINITY PREDICTED BY RF-SCORE:    0.00 PKD
ROOT
HETATM    1  O   UNL     1      -9.706  11.519  64.392  1.00  0.00    -0.234 OA 
HETATM    2  C   UNL     1      -9.937  12.574  65.209  1.00  0.00    -0.207 C  
HETATM    3  C   UNL     1     -10.930  13.593  64.663  1.00  0.00    -0.396 C  
HETATM    4  O   UNL     1      -9.377  12.678  66.293  1.00  0.00    -0.228 OA 
HETATM    5  S   UNL     1     -12.205  12.732  63.634  1.00  0.00    -0.502 SA 
HETATM    6  H   UNL     1     -13.110  13.662  63.137  1.00  0.00     0.000 H  
ENDROOT
BRANCH   3   7
HETATM    7  C   UNL     1     -11.585  14.426  65.780  1.00  0.00    -0.353 C  
HETATM    8  C   UNL     1     -10.725  15.639  66.117  1.00  0.00    -0.303 C  
HETATM    9  S   UNL     1     -12.022  13.472  67.304  1.00  0.00    -0.337 SA 
HETATM   10  O   UNL     1     -10.857  16.097  67.384  1.00  0.00    -0.322 OA 
HETATM   11  O   UNL     1     -10.043  16.229  65.288  1.00  0.00    -0.528 OA 
HETATM   12  H   UNL     1     -12.613  14.224  68.311  1.00  0.00     0.000 H  
ENDBRANCH   3   7
TORSDOF 1
ENDMDL
MODEL       49
REMARK 921   NORMALIZED FREE ENERGY PREDICTED BY IDOCK:   -3.30 KCAL/MOL
REMARK 922        TOTAL FREE ENERGY PREDICTED BY IDOCK:   -2.96 KCAL/MOL
REMARK 923 INTER-LIGAND FREE ENERGY PREDICTED BY IDOCK:   -3.32 KCAL/MOL
REMARK 924 INTRA-LIGAND FREE ENERGY PREDICTED BY IDOCK:    0.36 KCAL/MOL
REMARK 927      BINDING AFFINITY PREDICTED BY RF-SCORE:    0.00 PKD
ROOT
HETATM    1  O   UNL     1     -12.340  10.572  71.475  1.00  0.00    -0.371 OA 
HETATM    2  C   UNL     1     -11.653   9.422  71.671  1.00  0.00    -0.396 C  
HETATM    3  C   UNL     1     -12.467   8.295  72.295  1.00  0.00    -0.335 C  
HETATM    4  O   UNL     1     -10.471   9.323  71.366  1.00  0.00    -0.319 OA 
HETATM    5  S   UNL     1     -14.227   8.413  71.732  1.00  0.00    -0.452 SA 
HETATM    6  H   UNL     1     -14.969   7.384  72.301  1.00  0.00     0.000 H  
ENDROOT
BRANCH   3   7
HETATM    7  C   UNL     1     -11.876   6.908  71.987  1.00  0.00    -0.310 C  
HETATM    8  C   UNL     1     -10.650   6.644  72.855  1.00  0.00    -0.245 C  
HETATM    9  S   UNL     1     -11.509   6.600  70.200  1.00  0.00    -0.371 SA 
HETATM   10  O   UNL     1      -9.744   5.792  72.319  1.00  0.00    -0.154 OA 
HETATM   11  O   UNL     1     -10.528   7.080  73.994  1.00  0.00    -0.366 OA 
HETATM   12  H   UNL     1     -10.975   5.347  69.923  1.00  0.00     0.000 H  
ENDBRANCH   3   7
TORSDOF 1
ENDMDL
MODEL       50
REMARK 921   NORMALIZED FREE ENERGY PREDICTED BY IDOCK:   -3.30 KCAL/MOL
REMARK 922        TOTAL FREE ENERGY PREDICTED BY IDOCK:   -2.96 KCAL/MOL
REMARK 923 INTER-LIGAND FREE ENERGY PREDICTED BY IDOCK:   -3.45 KCAL/MOL
REMARK 924 INTRA-LIGAND FREE ENERGY PREDICTED BY IDOCK:    0.49 KCAL/MOL
REMARK 927      BINDING AFFINITY PREDICTED BY RF-SCORE:    0.00 PKD
ROOT
HETATM    1  O   UNL     1     -12.410  12.647  66.283  1.00  0.00    -0.550 OA 
HETATM    2  C   UNL     1     -12.001  13.665  67.076  1.00  0.00    -0.406 C  
HETATM    3  C   UNL     1     -11.919  13.321  68.559  1.00  0.00    -0.304 C  
HETATM    4  O   UNL     1     -11.728  14.766  66.614  1.00  0.00    -0.358 OA 
HETATM    5  S   UNL     1     -11.442  11.544  68.761  1.00  0.00    -0.318 SA 
HETATM    6  H   UNL     1     -11.368  11.231  70.113  1.00  0.00     0.000 H  
ENDROOT
BRANCH   3   7
HETATM    7  C   UNL     1     -10.953  14.246  69.320  1.00  0.00    -0.241 C  
HETATM    8  C   UNL     1     -11.692  15.471  69.851  1.00  0.00    -0.352 C  
HETATM    9  S   UNL     1      -9.441  14.737  68.375  1.00  0.00    -0.218 SA 
HETATM   10  O   UNL     1     -10.925  16.575  70.009  1.00  0.00    -0.350 OA 
HETATM   11  O   UNL     1     -12.863  15.444  70.210  1.00  0.00    -0.350 OA 
HETATM   12  H   UNL     1      -8.569  15.573  69.063  1.00  0.00     0.000 H  
ENDBRANCH   3   7
TORSDOF 1
ENDMDL
MODEL       51
REMARK 921   NORMALIZED FREE ENERGY PREDICTED BY IDOCK:   -3.28 KCAL/MOL
REMARK 922        TOTAL FREE ENERGY PREDICTED BY IDOCK:   -2.93 KCAL/MOL
REMARK 923 INTER-LIGAND FREE ENERGY PREDICTED BY IDOCK:   -3.29 KCAL/MOL
REMARK 924 INTRA-LIGAND FREE ENERGY PREDICTED BY IDOCK:    0.36 KCAL/MOL
REMARK 927      BINDING AFFINITY PREDICTED BY RF-SCORE:    0.00 PKD
ROOT
HETATM    1  O   UNL     1     -12.046  14.400  67.544  1.00  0.00    -0.377 OA 
HETATM    2  C   UNL     1     -11.116  15.264  67.075  1.00  0.00    -0.305 C  
HETATM    3  C   UNL     1     -10.933  16.520  67.918  1.00  0.00    -0.288 C  
HETATM    4  O   UNL     1     -10.487  15.031  66.050  1.00  0.00    -0.288 OA 
HETATM    5  S   UNL     1     -11.226  16.122  69.702  1.00  0.00    -0.315 SA 
HETATM    6  H   UNL     1     -11.060  17.268  70.470  1.00  0.00     0.000 H  
ENDROOT
BRANCH   3   7
HETATM    7  C   UNL     1      -9.553  17.167  67.711  1.00  0.00    -0.256 C  
HETATM    8  C   UNL     1      -9.497  17.894  66.371  1.00  0.00    -0.267 C  
HETATM    9  S   UNL     1      -8.119  16.015  67.905  1.00  0.00    -0.144 SA 
HETATM   10  O   UNL     1      -8.262  17.993  65.826  1.00  0.00    -0.519 OA 
HETATM   11  O   UNL     1     -10.469  18.443  65.866  1.00  0.00    -0.531 OA 
HETATM   12  H   UNL     1      -6.872  16.599  67.718  1.00  0.00     0.000 H  
ENDBRANCH   3   7
TORSDOF 1
ENDMDL
MODEL       52
REMARK 921   NORMALIZED FREE ENERGY PREDICTED BY IDOCK:   -3.27 KCAL/MOL
REMARK 922        TOTAL FREE ENERGY PREDICTED BY IDOCK:   -2.93 KCAL/MOL
REMARK 923 INTER-LIGAND FREE ENERGY PREDICTED BY IDOCK:   -3.41 KCAL/MOL
REMARK 924 INTRA-LIGAND FREE ENERGY PREDICTED BY IDOCK:    0.48 KCAL/MOL
REMARK 927      BINDING AFFINITY PREDICTED BY RF-SCORE:    0.00 PKD
ROOT
HETATM    1  O   UNL     1     -10.314  16.752  65.029  1.00  0.00    -0.631 OA 
HETATM    2  C   UNL     1     -10.607  15.500  65.453  1.00  0.00    -0.408 C  
HETATM    3  C   UNL     1      -9.657  14.950  66.511  1.00  0.00    -0.276 C  
HETATM    4  O   UNL     1     -11.562  14.880  65.004  1.00  0.00    -0.363 OA 
HETATM    5  S   UNL     1      -9.049  16.332  67.582  1.00  0.00    -0.194 SA 
HETATM    6  H   UNL     1      -8.184  15.830  68.546  1.00  0.00     0.000 H  
ENDROOT
BRANCH   3   7
HETATM    7  C   UNL     1     -10.303  13.836  67.353  1.00  0.00    -0.252 C  
HETATM    8  C   UNL     1     -10.562  12.600  66.497  1.00  0.00    -0.253 C  
HETATM    9  S   UNL     1     -11.827  14.343  68.273  1.00  0.00    -0.299 SA 
HETATM   10  O   UNL     1     -11.588  11.822  66.915  1.00  0.00    -0.491 OA 
HETATM   11  O   UNL     1      -9.842  12.268  65.563  1.00  0.00    -0.243 OA 
HETATM   12  H   UNL     1     -12.410  13.336  69.033  1.00  0.00     0.000 H  
ENDBRANCH   3   7
TORSDOF 1
ENDMDL
MODEL       53
REMARK 921   NORMALIZED FREE ENERGY PREDICTED BY IDOCK:   -3.26 KCAL/MOL
REMARK 922        TOTAL FREE ENERGY PREDICTED BY IDOCK:   -2.92 KCAL/MOL
REMARK 923 INTER-LIGAND FREE ENERGY PREDICTED BY IDOCK:   -3.43 KCAL/MOL
REMARK 924 INTRA-LIGAND FREE ENERGY PREDICTED BY IDOCK:    0.51 KCAL/MOL
REMARK 927      BINDING AFFINITY PREDICTED BY RF-SCORE:    0.00 PKD
ROOT
HETATM    1  O   UNL     1      -6.760  20.399  68.738  1.00  0.00    -0.276 OA 
HETATM    2  C   UNL     1      -7.148  19.102  68.707  1.00  0.00    -0.331 C  
HETATM    3  C   UNL     1      -8.631  18.890  68.427  1.00  0.00    -0.346 C  
HETATM    4  O   UNL     1      -6.352  18.191  68.895  1.00  0.00    -0.207 OA 
HETATM    5  S   UNL     1      -9.250  20.225  67.303  1.00  0.00    -0.395 SA 
HETATM    6  H   UNL     1     -10.603  20.031  67.048  1.00  0.00     0.000 H  
ENDROOT
BRANCH   3   7
HETATM    7  C   UNL     1      -8.923  17.495  67.849  1.00  0.00    -0.251 C  
HETATM    8  C   UNL     1      -8.637  17.465  66.351  1.00  0.00    -0.247 C  
HETATM    9  S   UNL     1     -10.614  16.840  68.219  1.00  0.00    -0.366 SA 
HETATM   10  O   UNL     1      -9.357  16.558  65.650  1.00  0.00    -0.490 OA 
HETATM   11  O   UNL     1      -7.754  18.131  65.824  1.00  0.00    -0.523 OA 
HETATM   12  H   UNL     1     -10.877  15.580  67.696  1.00  0.00     0.000 H  
ENDBRANCH   3   7
TORSDOF 1
ENDMDL
MODEL       54
REMARK 921   NORMALIZED FREE ENERGY PREDICTED BY IDOCK:   -3.24 KCAL/MOL
REMARK 922        TOTAL FREE ENERGY PREDICTED BY IDOCK:   -2.89 KCAL/MOL
REMARK 923 INTER-LIGAND FREE ENERGY PREDICTED BY IDOCK:   -3.41 KCAL/MOL
REMARK 924 INTRA-LIGAND FREE ENERGY PREDICTED BY IDOCK:    0.51 KCAL/MOL
REMARK 927      BINDING AFFINITY PREDICTED BY RF-SCORE:    0.00 PKD
ROOT
HETATM    1  O   UNL     1      -8.842  16.944  65.733  1.00  0.00    -0.522 OA 
HETATM    2  C   UNL     1      -9.961  16.188  65.648  1.00  0.00    -0.297 C  
HETATM    3  C   UNL     1      -9.820  14.780  66.214  1.00  0.00    -0.296 C  
HETATM    4  O   UNL     1     -10.991  16.623  65.149  1.00  0.00    -0.475 OA 
HETATM    5  S   UNL     1      -8.641  14.797  67.641  1.00  0.00    -0.185 SA 
HETATM    6  H   UNL     1      -8.513  13.513  68.157  1.00  0.00     0.000 H  
ENDROOT
BRANCH   3   7
HETATM    7  C   UNL     1     -11.176  14.174  66.620  1.00  0.00    -0.325 C  
HETATM    8  C   UNL     1     -11.598  14.681  67.994  1.00  0.00    -0.340 C  
HETATM    9  S   UNL     1     -11.258  12.328  66.534  1.00  0.00    -0.342 SA 
HETATM   10  O   UNL     1     -12.406  13.844  68.687  1.00  0.00    -0.278 OA 
HETATM   11  O   UNL     1     -11.323  15.800  68.411  1.00  0.00    -0.344 OA 
HETATM   12  H   UNL     1     -12.482  11.782  66.900  1.00  0.00     0.000 H  
ENDBRANCH   3   7
TORSDOF 1
ENDMDL
MODEL       55
REMARK 921   NORMALIZED FREE ENERGY PREDICTED BY IDOCK:   -3.20 KCAL/MOL
REMARK 922        TOTAL FREE ENERGY PREDICTED BY IDOCK:   -2.85 KCAL/MOL
REMARK 923 INTER-LIGAND FREE ENERGY PREDICTED BY IDOCK:   -3.21 KCAL/MOL
REMARK 924 INTRA-LIGAND FREE ENERGY PREDICTED BY IDOCK:    0.36 KCAL/MOL
REMARK 927      BINDING AFFINITY PREDICTED BY RF-SCORE:    0.00 PKD
ROOT
HETATM    1  O   UNL     1     -11.267  15.120  64.594  1.00  0.00    -0.384 OA 
HETATM    2  C   UNL     1     -11.488  14.537  65.796  1.00  0.00    -0.342 C  
HETATM    3  C   UNL     1     -10.239  14.342  66.647  1.00  0.00    -0.277 C  
HETATM    4  O   UNL     1     -12.612  14.200  66.146  1.00  0.00    -0.465 OA 
HETATM    5  S   UNL     1      -9.044  15.719  66.324  1.00  0.00    -0.348 SA 
HETATM    6  H   UNL     1      -7.905  15.541  67.100  1.00  0.00     0.000 H  
ENDROOT
BRANCH   3   7
HETATM    7  C   UNL     1     -10.565  14.228  68.146  1.00  0.00    -0.245 C  
HETATM    8  C   UNL     1     -11.159  12.859  68.462  1.00  0.00    -0.267 C  
HETATM    9  S   UNL     1     -11.626  15.587  68.815  1.00  0.00    -0.376 SA 
HETATM   10  O   UNL     1     -11.983  12.829  69.535  1.00  0.00    -0.309 OA 
HETATM   11  O   UNL     1     -10.843  11.837  67.864  1.00  0.00    -0.194 OA 
HETATM   12  H   UNL     1     -11.921  15.484  70.169  1.00  0.00     0.000 H  
ENDBRANCH   3   7
TORSDOF 1
ENDMDL
MODEL       56
REMARK 921   NORMALIZED FREE ENERGY PREDICTED BY IDOCK:   -3.18 KCAL/MOL
REMARK 922        TOTAL FREE ENERGY PREDICTED BY IDOCK:   -2.83 KCAL/MOL
REMARK 923 INTER-LIGAND FREE ENERGY PREDICTED BY IDOCK:   -3.34 KCAL/MOL
REMARK 924 INTRA-LIGAND FREE ENERGY PREDICTED BY IDOCK:    0.51 KCAL/MOL
REMARK 927      BINDING AFFINITY PREDICTED BY RF-SCORE:    0.00 PKD
ROOT
HETATM    1  O   UNL     1      -8.933  14.571  67.358  1.00  0.00    -0.182 OA 
HETATM    2  C   UNL     1      -9.860  15.532  67.585  1.00  0.00    -0.213 C  
HETATM    3  C   UNL     1      -9.306  16.951  67.627  1.00  0.00    -0.233 C  
HETATM    4  O   UNL     1     -11.042  15.255  67.744  1.00  0.00    -0.300 OA 
HETATM    5  S   UNL     1      -7.873  17.095  66.465  1.00  0.00    -0.316 SA 
HETATM    6  H   UNL     1      -7.368  18.390  66.503  1.00  0.00     0.000 H  
ENDROOT
BRANCH   3   7
HETATM    7  C   UNL     1     -10.382  18.007  67.318  1.00  0.00    -0.378 C  
HETATM    8  C   UNL     1     -10.635  18.090  65.816  1.00  0.00    -0.169 C  
HETATM    9  S   UNL     1     -10.053  19.681  68.034  1.00  0.00    -0.457 SA 
HETATM   10  O   UNL     1     -11.079  19.292  65.379  1.00  0.00    -0.384 OA 
HETATM   11  O   UNL     1     -10.548  17.125  65.067  1.00  0.00    -0.704 OA 
HETATM   12  H   UNL     1     -11.025  20.635  67.755  1.00  0.00     0.000 H  
ENDBRANCH   3   7
TORSDOF 1
ENDMDL
MODEL       57
REMARK 921   NORMALIZED FREE ENERGY PREDICTED BY IDOCK:   -3.16 KCAL/MOL
REMARK 922        TOTAL FREE ENERGY PREDICTED BY IDOCK:   -2.81 KCAL/MOL
REMARK 923 INTER-LIGAND FREE ENERGY PREDICTED BY IDOCK:   -3.35 KCAL/MOL
REMARK 924 INTRA-LIGAND FREE ENERGY PREDICTED BY IDOCK:    0.54 KCAL/MOL
REMARK 927      BINDING AFFINITY PREDICTED BY RF-SCORE:    0.00 PKD
ROOT
HETATM    1  O   UNL     1      -7.114  16.591  68.812  1.00  0.00    -0.165 OA 
HETATM    2  C   UNL     1      -8.387  16.975  68.555  1.00  0.00    -0.260 C  
HETATM    3  C   UNL     1      -8.525  18.024  67.458  1.00  0.00    -0.237 C  
HETATM    4  O   UNL     1      -9.334  16.503  69.171  1.00  0.00    -0.261 OA 
HETATM    5  S   UNL     1      -7.201  17.776  66.189  1.00  0.00    -0.297 SA 
HETATM    6  H   UNL     1      -7.326  18.733  65.189  1.00  0.00     0.000 H  
ENDROOT
BRANCH   3   7
HETATM    7  C   UNL     1      -9.922  18.017  66.814  1.00  0.00    -0.346 C  
HETATM    8  C   UNL     1     -10.072  16.825  65.874  1.00  0.00    -0.304 C  
HETATM    9  S   UNL     1     -10.398  19.594  65.974  1.00  0.00    -0.495 SA 
HETATM   10  O   UNL     1     -10.953  17.004  64.862  1.00  0.00    -0.678 OA 
HETATM   11  O   UNL     1      -9.523  15.747  66.066  1.00  0.00    -0.311 OA 
HETATM   12  H   UNL     1     -11.660  19.587  65.392  1.00  0.00     0.000 H  
ENDBRANCH   3   7
TORSDOF 1
ENDMDL
MODEL       58
REMARK 921   NORMALIZED FREE ENERGY PREDICTED BY IDOCK:   -3.16 KCAL/MOL
REMARK 922        TOTAL FREE ENERGY PREDICTED BY IDOCK:   -2.80 KCAL/MOL
REMARK 923 INTER-LIGAND FREE ENERGY PREDICTED BY IDOCK:   -3.17 KCAL/MOL
REMARK 924 INTRA-LIGAND FREE ENERGY PREDICTED BY IDOCK:    0.36 KCAL/MOL
REMARK 927      BINDING AFFINITY PREDICTED BY RF-SCORE:    0.00 PKD
ROOT
HETATM    1  O   UNL     1      -8.187  15.976  68.321  1.00  0.00    -0.152 OA 
HETATM    2  C   UNL     1      -9.136  15.088  67.942  1.00  0.00    -0.180 C  
HETATM    3  C   UNL     1     -10.489  15.707  67.611  1.00  0.00    -0.283 C  
HETATM    4  O   UNL     1      -8.901  13.888  67.882  1.00  0.00    -0.166 OA 
HETATM    5  S   UNL     1     -10.242  17.391  66.883  1.00  0.00    -0.318 SA 
HETATM    6  H   UNL     1     -11.476  17.955  66.581  1.00  0.00     0.000 H  
ENDROOT
BRANCH   3   7
HETATM    7  C   UNL     1     -11.327  14.815  66.678  1.00  0.00    -0.347 C  
HETATM    8  C   UNL     1     -11.879  13.614  67.440  1.00  0.00    -0.393 C  
HETATM    9  S   UNL     1     -10.464  14.284  65.130  1.00  0.00    -0.428 SA 
HETATM   10  O   UNL     1     -12.114  12.517  66.682  1.00  0.00    -0.562 OA 
HETATM   11  O   UNL     1     -12.190  13.657  68.624  1.00  0.00    -0.339 OA 
HETATM   12  H   UNL     1     -11.221  13.479  64.288  1.00  0.00     0.000 H  
ENDBRANCH   3   7
TORSDOF 1
ENDMDL
MODEL       59
REMARK 921   NORMALIZED FREE ENERGY PREDICTED BY IDOCK:   -3.12 KCAL/MOL
REMARK 922        TOTAL FREE ENERGY PREDICTED BY IDOCK:   -2.76 KCAL/MOL
REMARK 923 INTER-LIGAND FREE ENERGY PREDICTED BY IDOCK:   -3.15 KCAL/MOL
REMARK 924 INTRA-LIGAND FREE ENERGY PREDICTED BY IDOCK:    0.38 KCAL/MOL
REMARK 927      BINDING AFFINITY PREDICTED BY RF-SCORE:    0.00 PKD
ROOT
HETATM    1  O   UNL     1      -9.695  12.760  65.992  1.00  0.00    -0.259 OA 
HETATM    2  C   UNL     1      -9.511  14.005  66.492  1.00  0.00    -0.279 C  
HETATM    3  C   UNL     1     -10.121  15.122  65.655  1.00  0.00    -0.363 C  
HETATM    4  O   UNL     1      -8.896  14.190  67.535  1.00  0.00    -0.180 OA 
HETATM    5  S   UNL     1     -11.663  14.513  64.831  1.00  0.00    -0.419 SA 
HETATM    6  H   UNL     1     -12.219  15.533  64.067  1.00  0.00     0.000 H  
ENDROOT
BRANCH   3   7
HETATM    7  C   UNL     1     -10.395  16.390  66.483  1.00  0.00    -0.303 C  
HETATM    8  C   UNL     1      -9.123  17.218  66.632  1.00  0.00    -0.265 C  
HETATM    9  S   UNL     1     -11.191  16.086  68.125  1.00  0.00    -0.287 SA 
HETATM   10  O   UNL     1      -9.070  17.987  67.745  1.00  0.00    -0.256 OA 
HETATM   11  O   UNL     1      -8.254  17.273  65.770  1.00  0.00    -0.533 OA 
HETATM   12  H   UNL     1     -11.438  17.231  68.873  1.00  0.00     0.000 H  
ENDBRANCH   3   7
TORSDOF 1
ENDMDL
MODEL       60
REMARK 921   NORMALIZED FREE ENERGY PREDICTED BY IDOCK:   -3.10 KCAL/MOL
REMARK 922        TOTAL FREE ENERGY PREDICTED BY IDOCK:   -2.75 KCAL/MOL
REMARK 923 INTER-LIGAND FREE ENERGY PREDICTED BY IDOCK:   -3.27 KCAL/MOL
REMARK 924 INTRA-LIGAND FREE ENERGY PREDICTED BY IDOCK:    0.52 KCAL/MOL
REMARK 927      BINDING AFFINITY PREDICTED BY RF-SCORE:    0.00 PKD
ROOT
HETATM    1  O   UNL     1      -9.146  16.472  68.377  1.00  0.00    -0.208 OA 
HETATM    2  C   UNL     1     -10.362  16.000  68.012  1.00  0.00    -0.266 C  
HETATM    3  C   UNL     1     -10.329  14.942  66.915  1.00  0.00    -0.264 C  
HETATM    4  O   UNL     1     -11.390  16.410  68.535  1.00  0.00    -0.371 OA 
HETATM    5  S   UNL     1      -8.787  13.931  67.071  1.00  0.00    -0.190 SA 
HETATM    6  H   UNL     1      -8.758  12.966  66.070  1.00  0.00     0.000 H  
ENDROOT
BRANCH   3   7
HETATM    7  C   UNL     1     -11.584  14.051  66.926  1.00  0.00    -0.386 C  
HETATM    8  C   UNL     1     -11.438  12.935  67.955  1.00  0.00    -0.318 C  
HETATM    9  S   UNL     1     -12.071  13.377  65.273  1.00  0.00    -0.442 SA 
HETATM   10  O   UNL     1     -12.143  11.811  67.681  1.00  0.00    -0.598 OA 
HETATM   11  O   UNL     1     -10.820  13.066  69.004  1.00  0.00    -0.231 OA 
HETATM   12  H   UNL     1     -13.203  12.572  65.283  1.00  0.00     0.000 H  
ENDBRANCH   3   7
TORSDOF 1
ENDMDL
MODEL       61
REMARK 921   NORMALIZED FREE ENERGY PREDICTED BY IDOCK:   -3.10 KCAL/MOL
REMARK 922        TOTAL FREE ENERGY PREDICTED BY IDOCK:   -2.75 KCAL/MOL
REMARK 923 INTER-LIGAND FREE ENERGY PREDICTED BY IDOCK:   -3.37 KCAL/MOL
REMARK 924 INTRA-LIGAND FREE ENERGY PREDICTED BY IDOCK:    0.62 KCAL/MOL
REMARK 927      BINDING AFFINITY PREDICTED BY RF-SCORE:    0.00 PKD
ROOT
HETATM    1  O   UNL     1     -10.289  16.622  65.250  1.00  0.00    -0.609 OA 
HETATM    2  C   UNL     1      -9.903  15.480  65.866  1.00  0.00    -0.353 C  
HETATM    3  C   UNL     1     -11.033  14.494  66.139  1.00  0.00    -0.322 C  
HETATM    4  O   UNL     1      -8.734  15.280  66.171  1.00  0.00    -0.245 OA 
HETATM    5  S   UNL     1     -12.304  14.615  64.799  1.00  0.00    -0.260 SA 
HETATM    6  H   UNL     1     -13.334  13.716  65.049  1.00  0.00     0.000 H  
ENDROOT
BRANCH   3   7
HETATM    7  C   UNL     1     -10.524  13.050  66.294  1.00  0.00    -0.276 C  
HETATM    8  C   UNL     1     -10.487  12.347  64.941  1.00  0.00    -0.298 C  
HETATM    9  S   UNL     1     -11.432  12.037  67.549  1.00  0.00    -0.327 SA 
HETATM   10  O   UNL     1     -10.624  11.001  64.994  1.00  0.00    -0.292 OA 
HETATM   11  O   UNL     1     -10.250  12.929  63.890  1.00  0.00    -0.383 OA 
HETATM   12  H   UNL     1     -10.971  10.734  67.688  1.00  0.00     0.000 H  
ENDBRANCH   3   7
TORSDOF 1
ENDMDL
MODEL       62
REMARK 921   NORMALIZED FREE ENERGY PREDICTED BY IDOCK:   -3.10 KCAL/MOL
REMARK 922        TOTAL FREE ENERGY PREDICTED BY IDOCK:   -2.75 KCAL/MOL
REMARK 923 INTER-LIGAND FREE ENERGY PREDICTED BY IDOCK:   -3.25 KCAL/MOL
REMARK 924 INTRA-LIGAND FREE ENERGY PREDICTED BY IDOCK:    0.51 KCAL/MOL
REMARK 927      BINDING AFFINITY PREDICTED BY RF-SCORE:    0.00 PKD
ROOT
HETATM    1  O   UNL     1     -12.925  10.357  72.051  1.00  0.00    -0.445 OA 
HETATM    2  C   UNL     1     -13.068   9.047  71.741  1.00  0.00    -0.381 C  
HETATM    3  C   UNL     1     -11.976   8.486  70.837  1.00  0.00    -0.181 C  
HETATM    4  O   UNL     1     -14.009   8.388  72.164  1.00  0.00    -0.377 OA 
HETATM    5  S   UNL     1     -10.372   9.336  71.196  1.00  0.00    -0.314 SA 
HETATM    6  H   UNL     1      -9.377   8.824  70.371  1.00  0.00     0.000 H  
ENDROOT
BRANCH   3   7
HETATM    7  C   UNL     1     -11.839   6.958  70.965  1.00  0.00    -0.364 C  
HETATM    8  C   UNL     1     -11.039   6.596  72.212  1.00  0.00    -0.258 C  
HETATM    9  S   UNL     1     -11.160   6.112  69.467  1.00  0.00    -0.404 SA 
HETATM   10  O   UNL     1     -10.376   5.418  72.142  1.00  0.00    -0.199 OA 
HETATM   11  O   UNL     1     -11.067   7.258  73.243  1.00  0.00    -0.331 OA 
HETATM   12  H   UNL     1     -11.036   4.732  69.584  1.00  0.00     0.000 H  
ENDBRANCH   3   7
TORSDOF 1
ENDMDL
MODEL       63
REMARK 921   NORMALIZED FREE ENERGY PREDICTED BY IDOCK:   -3.09 KCAL/MOL
REMARK 922        TOTAL FREE ENERGY PREDICTED BY IDOCK:   -2.74 KCAL/MOL
REMARK 923 INTER-LIGAND FREE ENERGY PREDICTED BY IDOCK:   -3.25 KCAL/MOL
REMARK 924 INTRA-LIGAND FREE ENERGY PREDICTED BY IDOCK:    0.51 KCAL/MOL
REMARK 927      BINDING AFFINITY PREDICTED BY RF-SCORE:    0.00 PKD
ROOT
HETATM    1  O   UNL     1      -8.488  18.025  68.341  1.00  0.00    -0.285 OA 
HETATM    2  C   UNL     1      -9.751  17.628  68.058  1.00  0.00    -0.301 C  
HETATM    3  C   UNL     1      -9.927  16.120  67.918  1.00  0.00    -0.239 C  
HETATM    4  O   UNL     1     -10.662  18.437  67.927  1.00  0.00    -0.392 OA 
HETATM    5  S   UNL     1      -8.757  15.248  69.057  1.00  0.00    -0.238 SA 
HETATM    6  H   UNL     1      -8.917  13.874  68.928  1.00  0.00     0.000 H  
ENDROOT
BRANCH   3   7
HETATM    7  C   UNL     1     -11.379  15.676  68.165  1.00  0.00    -0.340 C  
HETATM    8  C   UNL     1     -11.676  15.621  69.660  1.00  0.00    -0.361 C  
HETATM    9  S   UNL     1     -11.860  14.097  67.329  1.00  0.00    -0.420 SA 
HETATM   10  O   UNL     1     -12.642  14.742  70.017  1.00  0.00    -0.301 OA 
HETATM   11  O   UNL     1     -11.162  16.379  70.473  1.00  0.00    -0.369 OA 
HETATM   12  H   UNL     1     -13.172  13.696  67.553  1.00  0.00     0.000 H  
ENDBRANCH   3   7
TORSDOF 1
ENDMDL
MODEL       64
REMARK 921   NORMALIZED FREE ENERGY PREDICTED BY IDOCK:   -3.09 KCAL/MOL
REMARK 922        TOTAL FREE ENERGY PREDICTED BY IDOCK:   -2.73 KCAL/MOL
REMARK 923 INTER-LIGAND FREE ENERGY PREDICTED BY IDOCK:   -3.09 KCAL/MOL
REMARK 924 INTRA-LIGAND FREE ENERGY PREDICTED BY IDOCK:    0.36 KCAL/MOL
REMARK 927      BINDING AFFINITY PREDICTED BY RF-SCORE:    0.00 PKD
ROOT
HETATM    1  O   UNL     1      -9.889  19.685  68.950  1.00  0.00    -0.423 OA 
HETATM    2  C   UNL     1      -9.814  18.377  68.608  1.00  0.00    -0.376 C  
HETATM    3  C   UNL     1     -10.612  18.000  67.365  1.00  0.00    -0.365 C  
HETATM    4  O   UNL     1      -9.155  17.581  69.264  1.00  0.00    -0.003 OA 
HETATM    5  S   UNL     1     -10.626  19.421  66.179  1.00  0.00    -0.448 SA 
HETATM    6  H   UNL     1     -11.353  19.076  65.046  1.00  0.00     0.000 H  
ENDROOT
BRANCH   3   7
HETATM    7  C   UNL     1     -10.079  16.721  66.695  1.00  0.00    -0.300 C  
HETATM    8  C   UNL     1     -10.502  15.487  67.485  1.00  0.00    -0.282 C  
HETATM    9  S   UNL     1      -8.257  16.715  66.373  1.00  0.00    -0.330 SA 
HETATM   10  O   UNL     1      -9.674  14.422  67.367  1.00  0.00    -0.215 OA 
HETATM   11  O   UNL     1     -11.560  15.414  68.100  1.00  0.00    -0.347 OA 
HETATM   12  H   UNL     1      -7.776  15.560  65.769  1.00  0.00     0.000 H  
ENDBRANCH   3   7
TORSDOF 1
ENDMDL
MODEL       65
REMARK 921   NORMALIZED FREE ENERGY PREDICTED BY IDOCK:   -3.08 KCAL/MOL
REMARK 922        TOTAL FREE ENERGY PREDICTED BY IDOCK:   -2.73 KCAL/MOL
REMARK 923 INTER-LIGAND FREE ENERGY PREDICTED BY IDOCK:   -3.23 KCAL/MOL
REMARK 924 INTRA-LIGAND FREE ENERGY PREDICTED BY IDOCK:    0.51 KCAL/MOL
REMARK 927      BINDING AFFINITY PREDICTED BY RF-SCORE:    0.00 PKD
ROOT
HETATM    1  O   UNL     1     -10.625  12.216  64.376  1.00  0.00    -0.285 OA 
HETATM    2  C   UNL     1     -10.083  12.990  65.346  1.00  0.00    -0.252 C  
HETATM    3  C   UNL     1     -10.423  14.472  65.240  1.00  0.00    -0.390 C  
HETATM    4  O   UNL     1      -9.376  12.513  66.225  1.00  0.00    -0.232 OA 
HETATM    5  S   UNL     1     -12.121  14.672  64.530  1.00  0.00    -0.419 SA 
HETATM    6  H   UNL     1     -12.430  16.024  64.434  1.00  0.00     0.000 H  
ENDROOT
BRANCH   3   7
HETATM    7  C   UNL     1     -10.294  15.199  66.590  1.00  0.00    -0.274 C  
HETATM    8  C   UNL     1     -11.520  14.936  67.459  1.00  0.00    -0.348 C  
HETATM    9  S   UNL     1      -9.940  17.011  66.466  1.00  0.00    -0.323 SA 
HETATM   10  O   UNL     1     -11.803  15.910  68.355  1.00  0.00    -0.322 OA 
HETATM   11  O   UNL     1     -12.148  13.884  67.431  1.00  0.00    -0.392 OA 
HETATM   12  H   UNL     1      -9.824  17.667  67.685  1.00  0.00     0.000 H  
ENDBRANCH   3   7
TORSDOF 1
ENDMDL
MODEL       66
REMARK 921   NORMALIZED FREE ENERGY PREDICTED BY IDOCK:   -3.08 KCAL/MOL
REMARK 922        TOTAL FREE ENERGY PREDICTED BY IDOCK:   -2.72 KCAL/MOL
REMARK 923 INTER-LIGAND FREE ENERGY PREDICTED BY IDOCK:   -3.23 KCAL/MOL
REMARK 924 INTRA-LIGAND FREE ENERGY PREDICTED BY IDOCK:    0.51 KCAL/MOL
REMARK 927      BINDING AFFINITY PREDICTED BY RF-SCORE:    0.00 PKD
ROOT
HETATM    1  O   UNL     1     -14.144   7.823  71.420  1.00  0.00    -0.389 OA 
HETATM    2  C   UNL     1     -13.130   8.528  71.974  1.00  0.00    -0.371 C  
HETATM    3  C   UNL     1     -11.812   7.768  72.080  1.00  0.00    -0.324 C  
HETATM    4  O   UNL     1     -13.285   9.681  72.354  1.00  0.00    -0.422 OA 
HETATM    5  S   UNL     1     -11.653   6.594  70.658  1.00  0.00    -0.387 SA 
HETATM    6  H   UNL     1     -10.452   5.902  70.755  1.00  0.00     0.000 H  
ENDROOT
BRANCH   3   7
HETATM    7  C   UNL     1     -10.599   8.711  72.163  1.00  0.00    -0.341 C  
HETATM    8  C   UNL     1     -10.203   9.196  70.772  1.00  0.00    -0.260 C  
HETATM    9  S   UNL     1      -9.142   8.022  73.070  1.00  0.00    -0.276 SA 
HETATM   10  O   UNL     1      -8.897   9.523  70.633  1.00  0.00    -0.230 OA 
HETATM   11  O   UNL     1     -11.012   9.380  69.871  1.00  0.00    -0.234 OA 
HETATM   12  H   UNL     1      -8.046   8.874  73.144  1.00  0.00     0.000 H  
ENDBRANCH   3   7
TORSDOF 1
ENDMDL
MODEL       67
REMARK 921   NORMALIZED FREE ENERGY PREDICTED BY IDOCK:   -3.06 KCAL/MOL
REMARK 922        TOTAL FREE ENERGY PREDICTED BY IDOCK:   -2.71 KCAL/MOL
REMARK 923 INTER-LIGAND FREE ENERGY PREDICTED BY IDOCK:   -3.07 KCAL/MOL
REMARK 924 INTRA-LIGAND FREE ENERGY PREDICTED BY IDOCK:    0.36 KCAL/MOL
REMARK 927      BINDING AFFINITY PREDICTED BY RF-SCORE:    0.00 PKD
ROOT
HETATM    1  O   UNL     1      -7.075  18.361  68.264  1.00  0.00    -0.243 OA 
HETATM    2  C   UNL     1      -8.150  17.538  68.282  1.00  0.00    -0.268 C  
HETATM    3  C   UNL     1      -9.495  18.253  68.351  1.00  0.00    -0.323 C  
HETATM    4  O   UNL     1      -8.025  16.321  68.247  1.00  0.00    -0.156 OA 
HETATM    5  S   UNL     1      -9.390  19.865  67.447  1.00  0.00    -0.375 SA 
HETATM    6  H   UNL     1     -10.617  20.517  67.511  1.00  0.00     0.000 H  
ENDROOT
BRANCH   3   7
HETATM    7  C   UNL     1     -10.646  17.386  67.811  1.00  0.00    -0.371 C  
HETATM    8  C   UNL     1     -11.017  16.302  68.818  1.00  0.00    -0.343 C  
HETATM    9  S   UNL     1     -10.353  16.665  66.132  1.00  0.00    -0.309 SA 
HETATM   10  O   UNL     1     -11.557  15.184  68.279  1.00  0.00    -0.325 OA 
HETATM   11  O   UNL     1     -10.937  16.458  70.031  1.00  0.00    -0.354 OA 
HETATM   12  H   UNL     1     -11.393  15.882  65.645  1.00  0.00     0.000 H  
ENDBRANCH   3   7
TORSDOF 1
ENDMDL
MODEL       68
REMARK 921   NORMALIZED FREE ENERGY PREDICTED BY IDOCK:   -3.06 KCAL/MOL
REMARK 922        TOTAL FREE ENERGY PREDICTED BY IDOCK:   -2.70 KCAL/MOL
REMARK 923 INTER-LIGAND FREE ENERGY PREDICTED BY IDOCK:   -3.22 KCAL/MOL
REMARK 924 INTRA-LIGAND FREE ENERGY PREDICTED BY IDOCK:    0.51 KCAL/MOL
REMARK 927      BINDING AFFINITY PREDICTED BY RF-SCORE:    0.00 PKD
ROOT
HETATM    1  O   UNL     1      -9.657  13.185  68.429  1.00  0.00    -0.225 OA 
HETATM    2  C   UNL     1      -9.610  13.325  67.084  1.00  0.00    -0.240 C  
HETATM    3  C   UNL     1     -10.968  13.518  66.417  1.00  0.00    -0.293 C  
HETATM    4  O   UNL     1      -8.549  13.293  66.474  1.00  0.00    -0.011 OA 
HETATM    5  S   UNL     1     -12.094  14.447  67.556  1.00  0.00    -0.179 SA 
HETATM    6  H   UNL     1     -13.331  14.622  66.948  1.00  0.00     0.000 H  
ENDROOT
BRANCH   3   7
HETATM    7  C   UNL     1     -10.854  14.219  65.052  1.00  0.00    -0.403 C  
HETATM    8  C   UNL     1     -10.736  15.728  65.234  1.00  0.00    -0.428 C  
HETATM    9  S   UNL     1     -12.193  13.793  63.848  1.00  0.00    -0.244 SA 
HETATM   10  O   UNL     1     -11.196  16.465  64.195  1.00  0.00    -0.882 OA 
HETATM   11  O   UNL     1     -10.177  16.247  66.192  1.00  0.00    -0.311 OA 
HETATM   12  H   UNL     1     -12.090  14.426  62.615  1.00  0.00     0.000 H  
ENDBRANCH   3   7
TORSDOF 1
ENDMDL
MODEL       69
REMARK 921   NORMALIZED FREE ENERGY PREDICTED BY IDOCK:   -3.05 KCAL/MOL
REMARK 922        TOTAL FREE ENERGY PREDICTED BY IDOCK:   -2.69 KCAL/MOL
REMARK 923 INTER-LIGAND FREE ENERGY PREDICTED BY IDOCK:   -3.21 KCAL/MOL
REMARK 924 INTRA-LIGAND FREE ENERGY PREDICTED BY IDOCK:    0.52 KCAL/MOL
REMARK 927      BINDING AFFINITY PREDICTED BY RF-SCORE:    0.00 PKD
ROOT
HETATM    1  O   UNL     1     -11.965  11.005  68.331  1.00  0.00    -0.565 OA 
HETATM    2  C   UNL     1     -11.338  11.473  67.225  1.00  0.00    -0.290 C  
HETATM    3  C   UNL     1     -11.684  12.912  66.861  1.00  0.00    -0.382 C  
HETATM    4  O   UNL     1     -10.563  10.774  66.585  1.00  0.00    -0.245 OA 
HETATM    5  S   UNL     1     -12.012  13.884  68.402  1.00  0.00    -0.305 SA 
HETATM    6  H   UNL     1     -12.328  15.196  68.069  1.00  0.00     0.000 H  
ENDROOT
BRANCH   3   7
HETATM    7  C   UNL     1     -10.592  13.577  66.005  1.00  0.00    -0.285 C  
HETATM    8  C   UNL     1      -9.470  14.110  66.889  1.00  0.00    -0.267 C  
HETATM    9  S   UNL     1     -11.203  14.880  64.843  1.00  0.00    -0.403 SA 
HETATM   10  O   UNL     1      -8.789  15.162  66.376  1.00  0.00    -0.285 OA 
HETATM   11  O   UNL     1      -9.130  13.574  67.937  1.00  0.00    -0.186 OA 
HETATM   12  H   UNL     1     -10.216  15.480  64.070  1.00  0.00     0.000 H  
ENDBRANCH   3   7
TORSDOF 1
ENDMDL
MODEL       70
REMARK 921   NORMALIZED FREE ENERGY PREDICTED BY IDOCK:   -3.04 KCAL/MOL
REMARK 922        TOTAL FREE ENERGY PREDICTED BY IDOCK:   -2.68 KCAL/MOL
REMARK 923 INTER-LIGAND FREE ENERGY PREDICTED BY IDOCK:   -3.05 KCAL/MOL
REMARK 924 INTRA-LIGAND FREE ENERGY PREDICTED BY IDOCK:    0.37 KCAL/MOL
REMARK 927      BINDING AFFINITY PREDICTED BY RF-SCORE:    0.00 PKD
ROOT
HETATM    1  O   UNL     1      -9.916  11.126  63.909  1.00  0.00    -0.267 OA 
HETATM    2  C   UNL     1     -10.488  11.783  64.946  1.00  0.00    -0.287 C  
HETATM    3  C   UNL     1      -9.956  11.387  66.318  1.00  0.00    -0.224 C  
HETATM    4  O   UNL     1     -11.362  12.621  64.768  1.00  0.00    -0.295 OA 
HETATM    5  S   UNL     1      -8.165  10.938  66.187  1.00  0.00    -0.153 SA 
HETATM    6  H   UNL     1      -7.680  10.578  67.439  1.00  0.00     0.000 H  
ENDROOT
BRANCH   3   7
HETATM    7  C   UNL     1     -10.179  12.487  67.371  1.00  0.00    -0.213 C  
HETATM    8  C   UNL     1     -11.612  12.448  67.891  1.00  0.00    -0.356 C  
HETATM    9  S   UNL     1      -9.714  14.192  66.821  1.00  0.00    -0.286 SA 
HETATM   10  O   UNL     1     -12.088  13.634  68.340  1.00  0.00    -0.361 OA 
HETATM   11  O   UNL     1     -12.258  11.413  67.999  1.00  0.00    -0.607 OA 
HETATM   12  H   UNL     1      -9.915  15.185  67.772  1.00  0.00     0.000 H  
ENDBRANCH   3   7
TORSDOF 1
ENDMDL
MODEL       71
REMARK 921   NORMALIZED FREE ENERGY PREDICTED BY IDOCK:   -3.03 KCAL/MOL
REMARK 922        TOTAL FREE ENERGY PREDICTED BY IDOCK:   -2.67 KCAL/MOL
REMARK 923 INTER-LIGAND FREE ENERGY PREDICTED BY IDOCK:   -3.05 KCAL/MOL
REMARK 924 INTRA-LIGAND FREE ENERGY PREDICTED BY IDOCK:    0.37 KCAL/MOL
REMARK 927      BINDING AFFINITY PREDICTED BY RF-SCORE:    0.00 PKD
ROOT
HETATM    1  O   UNL     1     -12.405  12.184  66.063  1.00  0.00    -0.550 OA 
HETATM    2  C   UNL     1     -11.544  13.109  66.550  1.00  0.00    -0.356 C  
HETATM    3  C   UNL     1     -10.190  13.145  65.852  1.00  0.00    -0.291 C  
HETATM    4  O   UNL     1     -11.853  13.843  67.481  1.00  0.00    -0.356 OA 
HETATM    5  S   UNL     1     -10.398  12.707  64.065  1.00  0.00    -0.328 SA 
HETATM    6  H   UNL     1      -9.163  12.741  63.429  1.00  0.00     0.000 H  
ENDROOT
BRANCH   3   7
HETATM    7  C   UNL     1      -9.486  14.504  66.014  1.00  0.00    -0.229 C  
HETATM    8  C   UNL     1      -8.971  14.674  67.439  1.00  0.00    -0.195 C  
HETATM    9  S   UNL     1     -10.490  15.966  65.488  1.00  0.00    -0.403 SA 
HETATM   10  O   UNL     1      -8.870  15.957  67.860  1.00  0.00    -0.177 OA 
HETATM   11  O   UNL     1      -8.577  13.738  68.126  1.00  0.00    -0.160 OA 
HETATM   12  H   UNL     1      -9.853  17.193  65.634  1.00  0.00     0.000 H  
ENDBRANCH   3   7
TORSDOF 1
ENDMDL
MODEL       72
REMARK 921   NORMALIZED FREE ENERGY PREDICTED BY IDOCK:   -3.02 KCAL/MOL
REMARK 922        TOTAL FREE ENERGY PREDICTED BY IDOCK:   -2.66 KCAL/MOL
REMARK 923 INTER-LIGAND FREE ENERGY PREDICTED BY IDOCK:   -3.03 KCAL/MOL
REMARK 924 INTRA-LIGAND FREE ENERGY PREDICTED BY IDOCK:    0.37 KCAL/MOL
REMARK 927      BINDING AFFINITY PREDICTED BY RF-SCORE:    0.00 PKD
ROOT
HETATM    1  O   UNL     1     -11.591  11.652  66.774  1.00  0.00    -0.503 OA 
HETATM    2  C   UNL     1     -10.978  12.732  67.313  1.00  0.00    -0.262 C  
HETATM    3  C   UNL     1     -11.050  13.994  66.461  1.00  0.00    -0.314 C  
HETATM    4  O   UNL     1     -10.415  12.673  68.398  1.00  0.00    -0.228 OA 
HETATM    5  S   UNL     1     -12.646  14.021  65.522  1.00  0.00    -0.460 SA 
HETATM    6  H   UNL     1     -12.711  15.171  64.745  1.00  0.00     0.000 H  
ENDROOT
BRANCH   3   7
HETATM    7  C   UNL     1     -10.874  15.274  67.296  1.00  0.00    -0.318 C  
HETATM    8  C   UNL     1      -9.397  15.528  67.580  1.00  0.00    -0.203 C  
HETATM    9  S   UNL     1     -11.873  15.329  68.852  1.00  0.00    -0.285 SA 
HETATM   10  O   UNL     1      -9.146  16.223  68.714  1.00  0.00    -0.222 OA 
HETATM   11  O   UNL     1      -8.502  15.224  66.800  1.00  0.00    -0.237 OA 
HETATM   12  H   UNL     1     -11.713  16.485  69.606  1.00  0.00     0.000 H  
ENDBRANCH   3   7
TORSDOF 1
ENDMDL
MODEL       73
REMARK 921   NORMALIZED FREE ENERGY PREDICTED BY IDOCK:   -3.02 KCAL/MOL
REMARK 922        TOTAL FREE ENERGY PREDICTED BY IDOCK:   -2.66 KCAL/MOL
REMARK 923 INTER-LIGAND FREE ENERGY PREDICTED BY IDOCK:   -3.03 KCAL/MOL
REMARK 924 INTRA-LIGAND FREE ENERGY PREDICTED BY IDOCK:    0.37 KCAL/MOL
REMARK 927      BINDING AFFINITY PREDICTED BY RF-SCORE:    0.00 PKD
ROOT
HETATM    1  O   UNL     1     -12.364  10.974  70.280  1.00  0.00    -0.309 OA 
HETATM    2  C   UNL     1     -11.423  10.030  70.516  1.00  0.00    -0.330 C  
HETATM    3  C   UNL     1     -11.607   9.262  71.819  1.00  0.00    -0.388 C  
HETATM    4  O   UNL     1     -10.505   9.830  69.730  1.00  0.00    -0.215 OA 
HETATM    5  S   UNL     1     -13.412   9.097  72.195  1.00  0.00    -0.499 SA 
HETATM    6  H   UNL     1     -13.580   8.397  73.384  1.00  0.00     0.000 H  
ENDROOT
BRANCH   3   7
HETATM    7  C   UNL     1     -10.917   7.887  71.790  1.00  0.00    -0.243 C  
HETATM    8  C   UNL     1      -9.404   8.045  71.896  1.00  0.00    -0.167 C  
HETATM    9  S   UNL     1     -11.378   6.818  70.352  1.00  0.00    -0.365 SA 
HETATM   10  O   UNL     1      -8.685   7.049  71.326  1.00  0.00    -0.129 OA 
HETATM   11  O   UNL     1      -8.867   8.942  72.534  1.00  0.00    -0.381 OA 
HETATM   12  H   UNL     1     -10.754   5.576  70.326  1.00  0.00     0.000 H  
ENDBRANCH   3   7
TORSDOF 1
ENDMDL
MODEL       74
REMARK 921   NORMALIZED FREE ENERGY PREDICTED BY IDOCK:   -3.00 KCAL/MOL
REMARK 922        TOTAL FREE ENERGY PREDICTED BY IDOCK:   -2.64 KCAL/MOL
REMARK 923 INTER-LIGAND FREE ENERGY PREDICTED BY IDOCK:   -3.15 KCAL/MOL
REMARK 924 INTRA-LIGAND FREE ENERGY PREDICTED BY IDOCK:    0.52 KCAL/MOL
REMARK 927      BINDING AFFINITY PREDICTED BY RF-SCORE:    0.00 PKD
ROOT
HETATM    1  O   UNL     1      -8.926   7.137  71.858  1.00  0.00    -0.128 OA 
HETATM    2  C   UNL     1      -9.948   7.798  72.451  1.00  0.00    -0.214 C  
HETATM    3  C   UNL     1     -10.668   8.794  71.549  1.00  0.00    -0.301 C  
HETATM    4  O   UNL     1     -10.247   7.596  73.621  1.00  0.00    -0.320 OA 
HETATM    5  S   UNL     1     -10.658   8.174  69.805  1.00  0.00    -0.216 SA 
HETATM    6  H   UNL     1     -11.315   9.082  68.983  1.00  0.00     0.000 H  
ENDROOT
BRANCH   3   7
HETATM    7  C   UNL     1     -12.101   9.085  72.029  1.00  0.00    -0.370 C  
HETATM    8  C   UNL     1     -13.035   7.940  71.652  1.00  0.00    -0.334 C  
HETATM    9  S   UNL     1     -12.787  10.713  71.480  1.00  0.00    -0.468 SA 
HETATM   10  O   UNL     1     -14.332   8.292  71.487  1.00  0.00    -0.433 OA 
HETATM   11  O   UNL     1     -12.674   6.770  71.601  1.00  0.00    -0.366 OA 
HETATM   12  H   UNL     1     -14.081  10.976  71.913  1.00  0.00     0.000 H  
ENDBRANCH   3   7
TORSDOF 1
ENDMDL
MODEL       75
REMARK 921   NORMALIZED FREE ENERGY PREDICTED BY IDOCK:   -2.98 KCAL/MOL
REMARK 922        TOTAL FREE ENERGY PREDICTED BY IDOCK:   -2.62 KCAL/MOL
REMARK 923 INTER-LIGAND FREE ENERGY PREDICTED BY IDOCK:   -3.13 KCAL/MOL
REMARK 924 INTRA-LIGAND FREE ENERGY PREDICTED BY IDOCK:    0.51 KCAL/MOL
REMARK 927      BINDING AFFINITY PREDICTED BY RF-SCORE:    0.00 PKD
ROOT
HETATM    1  O   UNL     1     -12.719  14.397  70.199  1.00  0.00    -0.334 OA 
HETATM    2  C   UNL     1     -11.814  14.884  69.317  1.00  0.00    -0.318 C  
HETATM    3  C   UNL     1     -10.822  13.853  68.791  1.00  0.00    -0.263 C  
HETATM    4  O   UNL     1     -11.813  16.063  68.988  1.00  0.00    -0.362 OA 
HETATM    5  S   UNL     1     -11.642  12.197  68.685  1.00  0.00    -0.341 SA 
HETATM    6  H   UNL     1     -10.736  11.258  68.205  1.00  0.00     0.000 H  
ENDROOT
BRANCH   3   7
HETATM    7  C   UNL     1     -10.216  14.263  67.437  1.00  0.00    -0.247 C  
HETATM    8  C   UNL     1     -11.196  13.976  66.304  1.00  0.00    -0.320 C  
HETATM    9  S   UNL     1      -8.552  13.539  67.081  1.00  0.00    -0.162 SA 
HETATM   10  O   UNL     1     -10.623  13.743  65.100  1.00  0.00    -0.330 OA 
HETATM   11  O   UNL     1     -12.412  14.050  66.434  1.00  0.00    -0.452 OA 
HETATM   12  H   UNL     1      -8.005  13.909  65.858  1.00  0.00     0.000 H  
ENDBRANCH   3   7
TORSDOF 1
ENDMDL
MODEL       76
REMARK 921   NORMALIZED FREE ENERGY PREDICTED BY IDOCK:   -2.97 KCAL/MOL
REMARK 922        TOTAL FREE ENERGY PREDICTED BY IDOCK:   -2.61 KCAL/MOL
REMARK 923 INTER-LIGAND FREE ENERGY PREDICTED BY IDOCK:   -2.97 KCAL/MOL
REMARK 924 INTRA-LIGAND FREE ENERGY PREDICTED BY IDOCK:    0.36 KCAL/MOL
REMARK 927      BINDING AFFINITY PREDICTED BY RF-SCORE:    0.00 PKD
ROOT
HETATM    1  O   UNL     1     -12.916  10.372  71.883  1.00  0.00    -0.438 OA 
HETATM    2  C   UNL     1     -12.156   9.264  71.720  1.00  0.00    -0.387 C  
HETATM    3  C   UNL     1     -11.513   9.132  70.345  1.00  0.00    -0.194 C  
HETATM    4  O   UNL     1     -12.016   8.446  72.621  1.00  0.00    -0.396 OA 
HETATM    5  S   UNL     1     -11.117  10.813  69.679  1.00  0.00    -0.283 SA 
HETATM    6  H   UNL     1     -10.530  10.693  68.424  1.00  0.00     0.000 H  
ENDROOT
BRANCH   3   7
HETATM    7  C   UNL     1     -10.263   8.234  70.368  1.00  0.00    -0.201 C  
HETATM    8  C   UNL     1     -10.662   6.762  70.407  1.00  0.00    -0.241 C  
HETATM    9  S   UNL     1      -9.047   8.631  71.704  1.00  0.00    -0.254 SA 
HETATM   10  O   UNL     1      -9.757   5.941  70.989  1.00  0.00    -0.167 OA 
HETATM   11  O   UNL     1     -11.671   6.327  69.865  1.00  0.00    -0.408 OA 
HETATM   12  H   UNL     1      -7.919   7.820  71.725  1.00  0.00     0.000 H  
ENDBRANCH   3   7
TORSDOF 1
ENDMDL
MODEL       77
REMARK 921   NORMALIZED FREE ENERGY PREDICTED BY IDOCK:   -2.95 KCAL/MOL
REMARK 922        TOTAL FREE ENERGY PREDICTED BY IDOCK:   -2.59 KCAL/MOL
REMARK 923 INTER-LIGAND FREE ENERGY PREDICTED BY IDOCK:   -2.95 KCAL/MOL
REMARK 924 INTRA-LIGAND FREE ENERGY PREDICTED BY IDOCK:    0.36 KCAL/MOL
REMARK 927      BINDING AFFINITY PREDICTED BY RF-SCORE:    0.00 PKD
ROOT
HETATM    1  O   UNL     1     -10.406  12.421  63.662  1.00  0.00    -0.424 OA 
HETATM    2  C   UNL     1     -10.469  13.204  64.765  1.00  0.00    -0.372 C  
HETATM    3  C   UNL     1     -10.731  12.451  66.064  1.00  0.00    -0.261 C  
HETATM    4  O   UNL     1     -10.326  14.418  64.696  1.00  0.00    -0.397 OA 
HETATM    5  S   UNL     1      -9.952  10.774  65.979  1.00  0.00    -0.252 SA 
HETATM    6  H   UNL     1     -10.192  10.087  67.164  1.00  0.00     0.000 H  
ENDROOT
BRANCH   3   7
HETATM    7  C   UNL     1     -10.245  13.229  67.299  1.00  0.00    -0.240 C  
HETATM    8  C   UNL     1     -11.202  14.371  67.623  1.00  0.00    -0.313 C  
HETATM    9  S   UNL     1      -8.498  13.830  67.199  1.00  0.00    -0.133 SA 
HETATM   10  O   UNL     1     -10.639  15.424  68.262  1.00  0.00    -0.243 OA 
HETATM   11  O   UNL     1     -12.409  14.312  67.421  1.00  0.00    -0.311 OA 
HETATM   12  H   UNL     1      -8.059  14.533  68.314  1.00  0.00     0.000 H  
ENDBRANCH   3   7
TORSDOF 1
ENDMDL
MODEL       78
REMARK 921   NORMALIZED FREE ENERGY PREDICTED BY IDOCK:   -2.95 KCAL/MOL
REMARK 922        TOTAL FREE ENERGY PREDICTED BY IDOCK:   -2.59 KCAL/MOL
REMARK 923 INTER-LIGAND FREE ENERGY PREDICTED BY IDOCK:   -2.97 KCAL/MOL
REMARK 924 INTRA-LIGAND FREE ENERGY PREDICTED BY IDOCK:    0.39 KCAL/MOL
REMARK 927      BINDING AFFINITY PREDICTED BY RF-SCORE:    0.00 PKD
ROOT
HETATM    1  O   UNL     1     -10.953  16.701  68.373  1.00  0.00    -0.346 OA 
HETATM    2  C   UNL     1     -10.917  15.353  68.252  1.00  0.00    -0.288 C  
HETATM    3  C   UNL     1     -10.673  14.849  66.834  1.00  0.00    -0.308 C  
HETATM    4  O   UNL     1     -11.073  14.620  69.220  1.00  0.00    -0.249 OA 
HETATM    5  S   UNL     1      -9.581  16.039  65.930  1.00  0.00    -0.299 SA 
HETATM    6  H   UNL     1      -9.359  15.579  64.637  1.00  0.00     0.000 H  
ENDROOT
BRANCH   3   7
HETATM    7  C   UNL     1     -10.086  13.427  66.813  1.00  0.00    -0.260 C  
HETATM    8  C   UNL     1     -11.193  12.388  66.963  1.00  0.00    -0.303 C  
HETATM    9  S   UNL     1      -8.723  13.132  68.029  1.00  0.00    -0.197 SA 
HETATM   10  O   UNL     1     -10.804  11.217  67.520  1.00  0.00    -0.213 OA 
HETATM   11  O   UNL     1     -12.325  12.547  66.525  1.00  0.00    -0.507 OA 
HETATM   12  H   UNL     1      -8.193  11.847  68.009  1.00  0.00     0.000 H  
ENDBRANCH   3   7
TORSDOF 1
ENDMDL
MODEL       79
REMARK 921   NORMALIZED FREE ENERGY PREDICTED BY IDOCK:   -2.95 KCAL/MOL
REMARK 922        TOTAL FREE ENERGY PREDICTED BY IDOCK:   -2.58 KCAL/MOL
REMARK 923 INTER-LIGAND FREE ENERGY PREDICTED BY IDOCK:   -2.94 KCAL/MOL
REMARK 924 INTRA-LIGAND FREE ENERGY PREDICTED BY IDOCK:    0.36 KCAL/MOL
REMARK 927      BINDING AFFINITY PREDICTED BY RF-SCORE:    0.00 PKD
ROOT
HETATM    1  O   UNL     1     -12.641  14.752  70.069  1.00  0.00    -0.301 OA 
HETATM    2  C   UNL     1     -11.509  15.447  69.809  1.00  0.00    -0.324 C  
HETATM    3  C   UNL     1     -10.690  14.913  68.640  1.00  0.00    -0.250 C  
HETATM    4  O   UNL     1     -11.189  16.422  70.478  1.00  0.00    -0.369 OA 
HETATM    5  S   UNL     1     -11.822  14.189  67.366  1.00  0.00    -0.408 SA 
HETATM    6  H   UNL     1     -11.075  13.702  66.300  1.00  0.00     0.000 H  
ENDROOT
BRANCH   3   7
HETATM    7  C   UNL     1      -9.777  15.989  68.026  1.00  0.00    -0.217 C  
HETATM    8  C   UNL     1      -8.555  16.221  68.908  1.00  0.00    -0.260 C  
HETATM    9  S   UNL     1     -10.622  17.585  67.622  1.00  0.00    -0.318 SA 
HETATM   10  O   UNL     1      -8.013  17.458  68.817  1.00  0.00    -0.270 OA 
HETATM   11  O   UNL     1      -8.030  15.336  69.573  1.00  0.00    -0.222 OA 
HETATM   12  H   UNL     1      -9.797  18.556  67.068  1.00  0.00     0.000 H  
ENDBRANCH   3   7
TORSDOF 1
ENDMDL
MODEL       80
REMARK 921   NORMALIZED FREE ENERGY PREDICTED BY IDOCK:   -2.95 KCAL/MOL
REMARK 922        TOTAL FREE ENERGY PREDICTED BY IDOCK:   -2.58 KCAL/MOL
REMARK 923 INTER-LIGAND FREE ENERGY PREDICTED BY IDOCK:   -2.95 KCAL/MOL
REMARK 924 INTRA-LIGAND FREE ENERGY PREDICTED BY IDOCK:    0.36 KCAL/MOL
REMARK 927      BINDING AFFINITY PREDICTED BY RF-SCORE:    0.00 PKD
ROOT
HETATM    1  O   UNL     1      -8.280  14.163  67.061  1.00  0.00    -0.170 OA 
HETATM    2  C   UNL     1      -8.258  15.516  67.111  1.00  0.00    -0.215 C  
HETATM    3  C   UNL     1      -9.129  16.204  66.067  1.00  0.00    -0.318 C  
HETATM    4  O   UNL     1      -7.582  16.115  67.938  1.00  0.00    -0.128 OA 
HETATM    5  S   UNL     1     -10.622  15.166  65.719  1.00  0.00    -0.376 SA 
HETATM    6  H   UNL     1     -11.416  15.794  64.766  1.00  0.00     0.000 H  
ENDROOT
BRANCH   3   7
HETATM    7  C   UNL     1      -9.528  17.630  66.486  1.00  0.00    -0.283 C  
HETATM    8  C   UNL     1      -8.340  18.578  66.357  1.00  0.00    -0.259 C  
HETATM    9  S   UNL     1     -10.306  17.757  68.160  1.00  0.00    -0.389 SA 
HETATM   10  O   UNL     1      -8.369  19.645  67.190  1.00  0.00    -0.279 OA 
HETATM   11  O   UNL     1      -7.473  18.453  65.500  1.00  0.00    -0.528 OA 
HETATM   12  H   UNL     1     -10.666  19.045  68.538  1.00  0.00     0.000 H  
ENDBRANCH   3   7
TORSDOF 1
ENDMDL
MODEL       81
REMARK 921   NORMALIZED FREE ENERGY PREDICTED BY IDOCK:   -2.94 KCAL/MOL
REMARK 922        TOTAL FREE ENERGY PREDICTED BY IDOCK:   -2.58 KCAL/MOL
REMARK 923 INTER-LIGAND FREE ENERGY PREDICTED BY IDOCK:   -2.96 KCAL/MOL
REMARK 924 INTRA-LIGAND FREE ENERGY PREDICTED BY IDOCK:    0.39 KCAL/MOL
REMARK 927      BINDING AFFINITY PREDICTED BY RF-SCORE:    0.00 PKD
ROOT
HETATM    1  O   UNL     1     -11.710  10.493  67.964  1.00  0.00    -0.450 OA 
HETATM    2  C   UNL     1     -11.515  11.832  67.917  1.00  0.00    -0.317 C  
HETATM    3  C   UNL     1     -10.472  12.287  66.902  1.00  0.00    -0.217 C  
HETATM    4  O   UNL     1     -12.137  12.595  68.645  1.00  0.00    -0.269 OA 
HETATM    5  S   UNL     1     -10.490  11.152  65.440  1.00  0.00    -0.236 SA 
HETATM    6  H   UNL     1      -9.539  11.567  64.515  1.00  0.00     0.000 H  
ENDROOT
BRANCH   3   7
HETATM    7  C   UNL     1     -10.674  13.751  66.473  1.00  0.00    -0.284 C  
HETATM    8  C   UNL     1     -10.293  14.698  67.607  1.00  0.00    -0.233 C  
HETATM    9  S   UNL     1     -12.357  14.141  65.814  1.00  0.00    -0.439 SA 
HETATM   10  O   UNL     1     -10.933  15.891  67.592  1.00  0.00    -0.322 OA 
HETATM   11  O   UNL     1      -9.405  14.454  68.414  1.00  0.00    -0.196 OA 
HETATM   12  H   UNL     1     -12.539  15.464  65.427  1.00  0.00     0.000 H  
ENDBRANCH   3   7
TORSDOF 1
ENDMDL
MODEL       82
REMARK 921   NORMALIZED FREE ENERGY PREDICTED BY IDOCK:   -2.94 KCAL/MOL
REMARK 922        TOTAL FREE ENERGY PREDICTED BY IDOCK:   -2.58 KCAL/MOL
REMARK 923 INTER-LIGAND FREE ENERGY PREDICTED BY IDOCK:   -2.94 KCAL/MOL
REMARK 924 INTRA-LIGAND FREE ENERGY PREDICTED BY IDOCK:    0.36 KCAL/MOL
REMARK 927      BINDING AFFINITY PREDICTED BY RF-SCORE:    0.00 PKD
ROOT
HETATM    1  O   UNL     1      -9.417  14.926  65.089  1.00  0.00     0.014 OA 
HETATM    2  C   UNL     1      -9.932  14.465  66.253  1.00  0.00    -0.306 C  
HETATM    3  C   UNL     1     -11.455  14.457  66.315  1.00  0.00    -0.359 C  
HETATM    4  O   UNL     1      -9.210  14.092  67.170  1.00  0.00    -0.211 OA 
HETATM    5  S   UNL     1     -12.145  14.126  64.629  1.00  0.00    -0.456 SA 
HETATM    6  H   UNL     1     -13.534  14.119  64.685  1.00  0.00     0.000 H  
ENDROOT
BRANCH   3   7
HETATM    7  C   UNL     1     -11.993  13.448  67.344  1.00  0.00    -0.346 C  
HETATM    8  C   UNL     1     -11.780  13.965  68.763  1.00  0.00    -0.357 C  
HETATM    9  S   UNL     1     -11.343  11.726  67.156  1.00  0.00    -0.307 SA 
HETATM   10  O   UNL     1     -11.664  13.004  69.709  1.00  0.00    -0.300 OA 
HETATM   11  O   UNL     1     -11.812  15.154  69.055  1.00  0.00    -0.311 OA 
HETATM   12  H   UNL     1     -11.830  10.815  68.086  1.00  0.00     0.000 H  
ENDBRANCH   3   7
TORSDOF 1
ENDMDL
MODEL       83
REMARK 921   NORMALIZED FREE ENERGY PREDICTED BY IDOCK:   -2.93 KCAL/MOL
REMARK 922        TOTAL FREE ENERGY PREDICTED BY IDOCK:   -2.57 KCAL/MOL
REMARK 923 INTER-LIGAND FREE ENERGY PREDICTED BY IDOCK:   -3.08 KCAL/MOL
REMARK 924 INTRA-LIGAND FREE ENERGY PREDICTED BY IDOCK:    0.51 KCAL/MOL
REMARK 927      BINDING AFFINITY PREDICTED BY RF-SCORE:    0.00 PKD
ROOT
HETATM    1  O   UNL     1     -13.247  13.976  65.679  1.00  0.00    -0.634 OA 
HETATM    2  C   UNL     1     -11.911  14.070  65.481  1.00  0.00    -0.384 C  
HETATM    3  C   UNL     1     -11.071  13.945  66.747  1.00  0.00    -0.303 C  
HETATM    4  O   UNL     1     -11.441  14.246  64.364  1.00  0.00    -0.366 OA 
HETATM    5  S   UNL     1     -11.903  12.793  67.934  1.00  0.00    -0.287 SA 
HETATM    6  H   UNL     1     -11.137  12.679  69.088  1.00  0.00     0.000 H  
ENDROOT
BRANCH   3   7
HETATM    7  C   UNL     1      -9.631  13.493  66.450  1.00  0.00    -0.259 C  
HETATM    8  C   UNL     1      -9.571  11.981  66.264  1.00  0.00    -0.231 C  
HETATM    9  S   UNL     1      -8.370  14.066  67.677  1.00  0.00    -0.202 SA 
HETATM   10  O   UNL     1      -8.379  11.415  66.568  1.00  0.00    -0.168 OA 
HETATM   11  O   UNL     1     -10.488  11.328  65.779  1.00  0.00    -0.246 OA 
HETATM   12  H   UNL     1      -7.069  13.658  67.408  1.00  0.00     0.000 H  
ENDBRANCH   3   7
TORSDOF 1
ENDMDL
MODEL       84
REMARK 921   NORMALIZED FREE ENERGY PREDICTED BY IDOCK:   -2.93 KCAL/MOL
REMARK 922        TOTAL FREE ENERGY PREDICTED BY IDOCK:   -2.57 KCAL/MOL
REMARK 923 INTER-LIGAND FREE ENERGY PREDICTED BY IDOCK:   -3.08 KCAL/MOL
REMARK 924 INTRA-LIGAND FREE ENERGY PREDICTED BY IDOCK:    0.51 KCAL/MOL
REMARK 927      BINDING AFFINITY PREDICTED BY RF-SCORE:    0.00 PKD
ROOT
HETATM    1  O   UNL     1      -9.108  20.186  67.007  1.00  0.00    -0.339 OA 
HETATM    2  C   UNL     1     -10.065  19.250  66.802  1.00  0.00    -0.389 C  
HETATM    3  C   UNL     1      -9.540  17.899  66.330  1.00  0.00    -0.286 C  
HETATM    4  O   UNL     1     -11.250  19.496  66.985  1.00  0.00    -0.338 OA 
HETATM    5  S   UNL     1      -7.872  17.586  67.070  1.00  0.00    -0.226 SA 
HETATM    6  H   UNL     1      -7.394  16.353  66.639  1.00  0.00     0.000 H  
ENDROOT
BRANCH   3   7
HETATM    7  C   UNL     1     -10.514  16.751  66.648  1.00  0.00    -0.258 C  
HETATM    8  C   UNL     1     -10.418  16.359  68.119  1.00  0.00    -0.302 C  
HETATM    9  S   UNL     1     -10.354  15.270  65.551  1.00  0.00    -0.406 SA 
HETATM   10  O   UNL     1     -10.747  15.074  68.390  1.00  0.00    -0.235 OA 
HETATM   11  O   UNL     1     -10.165  17.160  69.011  1.00  0.00    -0.302 OA 
HETATM   12  H   UNL     1     -11.233  14.234  65.838  1.00  0.00     0.000 H  
ENDBRANCH   3   7
TORSDOF 1
ENDMDL
MODEL       85
REMARK 921   NORMALIZED FREE ENERGY PREDICTED BY IDOCK:   -2.93 KCAL/MOL
REMARK 922        TOTAL FREE ENERGY PREDICTED BY IDOCK:   -2.57 KCAL/MOL
REMARK 923 INTER-LIGAND FREE ENERGY PREDICTED BY IDOCK:   -3.11 KCAL/MOL
REMARK 924 INTRA-LIGAND FREE ENERGY PREDICTED BY IDOCK:    0.54 KCAL/MOL
REMARK 927      BINDING AFFINITY PREDICTED BY RF-SCORE:    0.00 PKD
ROOT
HETATM    1  O   UNL     1     -10.723  19.512  66.309  1.00  0.00    -0.453 OA 
HETATM    2  C   UNL     1     -10.151  18.493  66.993  1.00  0.00    -0.360 C  
HETATM    3  C   UNL     1      -8.695  18.224  66.632  1.00  0.00    -0.277 C  
HETATM    4  O   UNL     1     -10.777  17.851  67.827  1.00  0.00    -0.400 OA 
HETATM    5  S   UNL     1      -7.862  19.814  66.178  1.00  0.00    -0.327 SA 
HETATM    6  H   UNL     1      -6.534  19.569  65.849  1.00  0.00     0.000 H  
ENDROOT
BRANCH   3   7
HETATM    7  C   UNL     1      -7.937  17.501  67.759  1.00  0.00    -0.208 C  
HETATM    8  C   UNL     1      -7.420  18.503  68.786  1.00  0.00    -0.286 C  
HETATM    9  S   UNL     1      -6.586  16.374  67.187  1.00  0.00    -0.190 SA 
HETATM   10  O   UNL     1      -6.314  18.110  69.459  1.00  0.00    -0.254 OA 
HETATM   11  O   UNL     1      -8.009  19.541  69.065  1.00  0.00    -0.356 OA 
HETATM   12  H   UNL     1      -5.902  15.721  68.205  1.00  0.00     0.000 H  
ENDBRANCH   3   7
TORSDOF 1
ENDMDL
MODEL       86
REMARK 921   NORMALIZED FREE ENERGY PREDICTED BY IDOCK:   -2.92 KCAL/MOL
REMARK 922        TOTAL FREE ENERGY PREDICTED BY IDOCK:   -2.55 KCAL/MOL
REMARK 923 INTER-LIGAND FREE ENERGY PREDICTED BY IDOCK:   -2.91 KCAL/MOL
REMARK 924 INTRA-LIGAND FREE ENERGY PREDICTED BY IDOCK:    0.36 KCAL/MOL
REMARK 927      BINDING AFFINITY PREDICTED BY RF-SCORE:    0.00 PKD
ROOT
HETATM    1  O   UNL     1     -10.751  10.486  69.813  1.00  0.00    -0.258 OA 
HETATM    2  C   UNL     1     -11.284  11.394  68.962  1.00  0.00    -0.256 C  
HETATM    3  C   UNL     1     -10.292  12.420  68.425  1.00  0.00    -0.229 C  
HETATM    4  O   UNL     1     -12.472  11.374  68.667  1.00  0.00    -0.396 OA 
HETATM    5  S   UNL     1      -8.621  11.641  68.256  1.00  0.00    -0.162 SA 
HETATM    6  H   UNL     1      -7.718  12.577  67.766  1.00  0.00     0.000 H  
ENDROOT
BRANCH   3   7
HETATM    7  C   UNL     1     -10.755  13.039  67.094  1.00  0.00    -0.254 C  
HETATM    8  C   UNL     1     -11.891  14.029  67.331  1.00  0.00    -0.409 C  
HETATM    9  S   UNL     1     -11.200  11.813  65.782  1.00  0.00    -0.235 SA 
HETATM   10  O   UNL     1     -12.735  14.189  66.285  1.00  0.00    -0.401 OA 
HETATM   11  O   UNL     1     -11.985  14.711  68.344  1.00  0.00    -0.311 OA 
HETATM   12  H   UNL     1     -11.619  12.373  64.580  1.00  0.00     0.000 H  
ENDBRANCH   3   7
TORSDOF 1
ENDMDL
MODEL       87
REMARK 921   NORMALIZED FREE ENERGY PREDICTED BY IDOCK:   -2.91 KCAL/MOL
REMARK 922        TOTAL FREE ENERGY PREDICTED BY IDOCK:   -2.54 KCAL/MOL
REMARK 923 INTER-LIGAND FREE ENERGY PREDICTED BY IDOCK:   -2.93 KCAL/MOL
REMARK 924 INTRA-LIGAND FREE ENERGY PREDICTED BY IDOCK:    0.39 KCAL/MOL
REMARK 927      BINDING AFFINITY PREDICTED BY RF-SCORE:    0.00 PKD
ROOT
HETATM    1  O   UNL     1     -10.205   4.511  70.721  1.00  0.00    -0.194 OA 
HETATM    2  C   UNL     1     -10.719   5.754  70.877  1.00  0.00    -0.264 C  
HETATM    3  C   UNL     1     -11.417   5.989  72.211  1.00  0.00    -0.312 C  
HETATM    4  O   UNL     1     -10.619   6.603  70.000  1.00  0.00    -0.201 OA 
HETATM    5  S   UNL     1     -10.585   4.996  73.534  1.00  0.00    -0.283 SA 
HETATM    6  H   UNL     1     -11.222   5.211  74.750  1.00  0.00     0.000 H  
ENDROOT
BRANCH   3   7
HETATM    7  C   UNL     1     -11.474   7.480  72.587  1.00  0.00    -0.319 C  
HETATM    8  C   UNL     1     -12.647   8.163  71.891  1.00  0.00    -0.335 C  
HETATM    9  S   UNL     1      -9.899   8.410  72.310  1.00  0.00    -0.316 SA 
HETATM   10  O   UNL     1     -12.483   9.488  71.666  1.00  0.00    -0.340 OA 
HETATM   11  O   UNL     1     -13.703   7.594  71.643  1.00  0.00    -0.367 OA 
HETATM   12  H   UNL     1      -9.951   9.757  72.649  1.00  0.00     0.000 H  
ENDBRANCH   3   7
TORSDOF 1
ENDMDL
MODEL       88
REMARK 921   NORMALIZED FREE ENERGY PREDICTED BY IDOCK:   -2.88 KCAL/MOL
REMARK 922        TOTAL FREE ENERGY PREDICTED BY IDOCK:   -2.51 KCAL/MOL
REMARK 923 INTER-LIGAND FREE ENERGY PREDICTED BY IDOCK:   -2.87 KCAL/MOL
REMARK 924 INTRA-LIGAND FREE ENERGY PREDICTED BY IDOCK:    0.36 KCAL/MOL
REMARK 927      BINDING AFFINITY PREDICTED BY RF-SCORE:    0.00 PKD
ROOT
HETATM    1  O   UNL     1      -6.224  16.288  67.630  1.00  0.00    -0.122 OA 
HETATM    2  C   UNL     1      -7.390  16.966  67.515  1.00  0.00    -0.155 C  
HETATM    3  C   UNL     1      -7.586  18.072  68.545  1.00  0.00    -0.291 C  
HETATM    4  O   UNL     1      -8.207  16.690  66.646  1.00  0.00    -0.208 OA 
HETATM    5  S   UNL     1      -5.948  18.819  68.976  1.00  0.00    -0.233 SA 
HETATM    6  H   UNL     1      -6.127  19.827  69.916  1.00  0.00     0.000 H  
ENDROOT
BRANCH   3   7
HETATM    7  C   UNL     1      -8.579  19.146  68.067  1.00  0.00    -0.310 C  
HETATM    8  C   UNL     1     -10.015  18.662  68.241  1.00  0.00    -0.384 C  
HETATM    9  S   UNL     1      -8.286  19.764  66.348  1.00  0.00    -0.348 SA 
HETATM   10  O   UNL     1     -10.908  19.206  67.381  1.00  0.00    -0.483 OA 
HETATM   11  O   UNL     1     -10.367  17.919  69.150  1.00  0.00    -0.340 OA 
HETATM   12  H   UNL     1      -9.183  20.734  65.917  1.00  0.00     0.000 H  
ENDBRANCH   3   7
TORSDOF 1
ENDMDL
MODEL       89
REMARK 921   NORMALIZED FREE ENERGY PREDICTED BY IDOCK:   -2.88 KCAL/MOL
REMARK 922        TOTAL FREE ENERGY PREDICTED BY IDOCK:   -2.51 KCAL/MOL
REMARK 923 INTER-LIGAND FREE ENERGY PREDICTED BY IDOCK:   -2.90 KCAL/MOL
REMARK 924 INTRA-LIGAND FREE ENERGY PREDICTED BY IDOCK:    0.39 KCAL/MOL
REMARK 927      BINDING AFFINITY PREDICTED BY RF-SCORE:    0.00 PKD
ROOT
HETATM    1  O   UNL     1      -9.280  19.543  66.296  1.00  0.00    -0.353 OA 
HETATM    2  C   UNL     1      -9.685  18.273  66.534  1.00  0.00    -0.343 C  
HETATM    3  C   UNL     1      -8.728  17.198  66.032  1.00  0.00    -0.106 C  
HETATM    4  O   UNL     1     -10.741  18.034  67.105  1.00  0.00    -0.356 OA 
HETATM    5  S   UNL     1      -6.985  17.810  66.151  1.00  0.00    -0.304 SA 
HETATM    6  H   UNL     1      -6.113  16.830  65.693  1.00  0.00     0.000 H  
ENDROOT
BRANCH   3   7
HETATM    7  C   UNL     1      -8.902  15.865  66.780  1.00  0.00    -0.262 C  
HETATM    8  C   UNL     1     -10.049  15.059  66.179  1.00  0.00    -0.294 C  
HETATM    9  S   UNL     1      -9.087  16.023  68.614  1.00  0.00    -0.225 SA 
HETATM   10  O   UNL     1     -10.660  14.209  67.037  1.00  0.00    -0.273 OA 
HETATM   11  O   UNL     1     -10.338  15.090  64.989  1.00  0.00    -0.387 OA 
HETATM   12  H   UNL     1      -9.245  14.819  69.290  1.00  0.00     0.000 H  
ENDBRANCH   3   7
TORSDOF 1
ENDMDL
MODEL       90
REMARK 921   NORMALIZED FREE ENERGY PREDICTED BY IDOCK:   -2.87 KCAL/MOL
REMARK 922        TOTAL FREE ENERGY PREDICTED BY IDOCK:   -2.51 KCAL/MOL
REMARK 923 INTER-LIGAND FREE ENERGY PREDICTED BY IDOCK:   -3.03 KCAL/MOL
REMARK 924 INTRA-LIGAND FREE ENERGY PREDICTED BY IDOCK:    0.52 KCAL/MOL
REMARK 927      BINDING AFFINITY PREDICTED BY RF-SCORE:    0.00 PKD
ROOT
HETATM    1  O   UNL     1     -13.483   9.100  72.715  1.00  0.00    -0.424 OA 
HETATM    2  C   UNL     1     -12.752   9.389  71.612  1.00  0.00    -0.374 C  
HETATM    3  C   UNL     1     -11.265   9.079  71.737  1.00  0.00    -0.378 C  
HETATM    4  O   UNL     1     -13.269   9.865  70.609  1.00  0.00    -0.245 OA 
HETATM    5  S   UNL     1     -11.026   7.602  72.826  1.00  0.00    -0.401 SA 
HETATM    6  H   UNL     1      -9.669   7.320  72.939  1.00  0.00     0.000 H  
ENDROOT
BRANCH   3   7
HETATM    7  C   UNL     1     -10.594   8.875  70.367  1.00  0.00    -0.217 C  
HETATM    8  C   UNL     1     -10.825   7.454  69.864  1.00  0.00    -0.246 C  
HETATM    9  S   UNL     1      -8.800   9.322  70.308  1.00  0.00    -0.241 SA 
HETATM   10  O   UNL     1      -9.870   6.983  69.028  1.00  0.00    -0.151 OA 
HETATM   11  O   UNL     1     -11.842   6.814  70.106  1.00  0.00    -0.349 OA 
HETATM   12  H   UNL     1      -8.194   9.137  69.070  1.00  0.00     0.000 H  
ENDBRANCH   3   7
TORSDOF 1
ENDMDL
MODEL       91
REMARK 921   NORMALIZED FREE ENERGY PREDICTED BY IDOCK:   -2.87 KCAL/MOL
REMARK 922        TOTAL FREE ENERGY PREDICTED BY IDOCK:   -2.50 KCAL/MOL
REMARK 923 INTER-LIGAND FREE ENERGY PREDICTED BY IDOCK:   -3.08 KCAL/MOL
REMARK 924 INTRA-LIGAND FREE ENERGY PREDICTED BY IDOCK:    0.58 KCAL/MOL
REMARK 927      BINDING AFFINITY PREDICTED BY RF-SCORE:    0.00 PKD
ROOT
HETATM    1  O   UNL     1     -13.474   7.314  71.386  1.00  0.00    -0.388 OA 
HETATM    2  C   UNL     1     -12.159   7.121  71.127  1.00  0.00    -0.358 C  
HETATM    3  C   UNL     1     -11.389   8.389  70.777  1.00  0.00    -0.265 C  
HETATM    4  O   UNL     1     -11.654   6.007  71.174  1.00  0.00    -0.254 OA 
HETATM    5  S   UNL     1     -12.103   9.827  71.699  1.00  0.00    -0.354 SA 
HETATM    6  H   UNL     1     -11.401  10.983  71.380  1.00  0.00     0.000 H  
ENDROOT
BRANCH   3   7
HETATM    7  C   UNL     1      -9.880   8.250  71.046  1.00  0.00    -0.187 C  
HETATM    8  C   UNL     1      -9.598   8.276  72.544  1.00  0.00    -0.295 C  
HETATM    9  S   UNL     1      -8.816   9.465  70.144  1.00  0.00    -0.237 SA 
HETATM   10  O   UNL     1      -8.370   8.731  72.885  1.00  0.00    -0.414 OA 
HETATM   11  O   UNL     1     -10.373   7.827  73.380  1.00  0.00    -0.332 OA 
HETATM   12  H   UNL     1      -7.454   9.339  70.387  1.00  0.00     0.000 H  
ENDBRANCH   3   7
TORSDOF 1
ENDMDL
MODEL       92
REMARK 921   NORMALIZED FREE ENERGY PREDICTED BY IDOCK:   -2.87 KCAL/MOL
REMARK 922        TOTAL FREE ENERGY PREDICTED BY IDOCK:   -2.50 KCAL/MOL
REMARK 923 INTER-LIGAND FREE ENERGY PREDICTED BY IDOCK:   -2.89 KCAL/MOL
REMARK 924 INTRA-LIGAND FREE ENERGY PREDICTED BY IDOCK:    0.39 KCAL/MOL
REMARK 927      BINDING AFFINITY PREDICTED BY RF-SCORE:    0.00 PKD
ROOT
HETATM    1  O   UNL     1     -10.577  12.536  63.612  1.00  0.00    -0.429 OA 
HETATM    2  C   UNL     1     -10.575  12.380  64.957  1.00  0.00    -0.298 C  
HETATM    3  C   UNL     1     -10.430  10.938  65.429  1.00  0.00    -0.223 C  
HETATM    4  O   UNL     1     -10.686  13.338  65.712  1.00  0.00    -0.272 OA 
HETATM    5  S   UNL     1      -9.372   9.996  64.237  1.00  0.00    -0.263 SA 
HETATM    6  H   UNL     1      -9.240   8.681  64.668  1.00  0.00     0.000 H  
ENDROOT
BRANCH   3   7
HETATM    7  C   UNL     1      -9.875  10.845  66.861  1.00  0.00    -0.189 C  
HETATM    8  C   UNL     1     -10.924  11.294  67.873  1.00  0.00    -0.248 C  
HETATM    9  S   UNL     1      -8.269  11.725  67.129  1.00  0.00    -0.173 SA 
HETATM   10  O   UNL     1     -10.426  11.797  69.026  1.00  0.00    -0.188 OA 
HETATM   11  O   UNL     1     -12.127  11.122  67.712  1.00  0.00    -0.606 OA 
HETATM   12  H   UNL     1      -7.768  11.640  68.423  1.00  0.00     0.000 H  
ENDBRANCH   3   7
TORSDOF 1
ENDMDL
MODEL       93
REMARK 921   NORMALIZED FREE ENERGY PREDICTED BY IDOCK:   -2.85 KCAL/MOL
REMARK 922        TOTAL FREE ENERGY PREDICTED BY IDOCK:   -2.48 KCAL/MOL
REMARK 923 INTER-LIGAND FREE ENERGY PREDICTED BY IDOCK:   -2.84 KCAL/MOL
REMARK 924 INTRA-LIGAND FREE ENERGY PREDICTED BY IDOCK:    0.36 KCAL/MOL
REMARK 927      BINDING AFFINITY PREDICTED BY RF-SCORE:    0.00 PKD
ROOT
HETATM    1  O   UNL     1     -13.084   7.101  71.189  1.00  0.00    -0.361 OA 
HETATM    2  C   UNL     1     -11.953   7.487  71.826  1.00  0.00    -0.301 C  
HETATM    3  C   UNL     1     -10.748   6.586  71.584  1.00  0.00    -0.230 C  
HETATM    4  O   UNL     1     -11.928   8.484  72.537  1.00  0.00    -0.389 OA 
HETATM    5  S   UNL     1     -10.830   5.883  69.873  1.00  0.00    -0.366 SA 
HETATM    6  H   UNL     1      -9.731   5.061  69.653  1.00  0.00     0.000 H  
ENDROOT
BRANCH   3   7
HETATM    7  C   UNL     1      -9.415   7.317  71.822  1.00  0.00    -0.150 C  
HETATM    8  C   UNL     1      -9.174   7.517  73.315  1.00  0.00    -0.205 C  
HETATM    9  S   UNL     1      -9.225   8.907  70.895  1.00  0.00    -0.251 SA 
HETATM   10  O   UNL     1      -8.403   8.586  73.629  1.00  0.00    -0.373 OA 
HETATM   11  O   UNL     1      -9.553   6.724  74.168  1.00  0.00    -0.217 OA 
HETATM   12  H   UNL     1      -8.021   9.566  71.111  1.00  0.00     0.000 H  
ENDBRANCH   3   7
TORSDOF 1
ENDMDL
MODEL       94
REMARK 921   NORMALIZED FREE ENERGY PREDICTED BY IDOCK:   -2.84 KCAL/MOL
REMARK 922        TOTAL FREE ENERGY PREDICTED BY IDOCK:   -2.47 KCAL/MOL
REMARK 923 INTER-LIGAND FREE ENERGY PREDICTED BY IDOCK:   -3.03 KCAL/MOL
REMARK 924 INTRA-LIGAND FREE ENERGY PREDICTED BY IDOCK:    0.56 KCAL/MOL
REMARK 927      BINDING AFFINITY PREDICTED BY RF-SCORE:    0.00 PKD
ROOT
HETATM    1  O   UNL     1     -12.297  10.498  70.550  1.00  0.00    -0.300 OA 
HETATM    2  C   UNL     1     -11.259   9.711  70.922  1.00  0.00    -0.352 C  
HETATM    3  C   UNL     1     -11.578   8.728  72.042  1.00  0.00    -0.366 C  
HETATM    4  O   UNL     1     -10.162   9.805  70.387  1.00  0.00    -0.269 OA 
HETATM    5  S   UNL     1     -13.344   8.188  71.913  1.00  0.00    -0.299 SA 
HETATM    6  H   UNL     1     -13.634   7.291  72.935  1.00  0.00     0.000 H  
ENDROOT
BRANCH   3   7
HETATM    7  C   UNL     1     -10.625   7.520  72.049  1.00  0.00    -0.211 C  
HETATM    8  C   UNL     1     -11.125   6.439  71.096  1.00  0.00    -0.291 C  
HETATM    9  S   UNL     1     -10.269   6.822  73.724  1.00  0.00    -0.374 SA 
HETATM   10  O   UNL     1     -10.750   5.179  71.417  1.00  0.00    -0.185 OA 
HETATM   11  O   UNL     1     -11.730   6.686  70.060  1.00  0.00    -0.383 OA 
HETATM   12  H   UNL     1      -9.408   5.731  73.729  1.00  0.00     0.000 H  
ENDBRANCH   3   7
TORSDOF 1
ENDMDL
MODEL       95
REMARK 921   NORMALIZED FREE ENERGY PREDICTED BY IDOCK:   -2.83 KCAL/MOL
REMARK 922        TOTAL FREE ENERGY PREDICTED BY IDOCK:   -2.46 KCAL/MOL
REMARK 923 INTER-LIGAND FREE ENERGY PREDICTED BY IDOCK:   -2.84 KCAL/MOL
REMARK 924 INTRA-LIGAND FREE ENERGY PREDICTED BY IDOCK:    0.38 KCAL/MOL
REMARK 927      BINDING AFFINITY PREDICTED BY RF-SCORE:    0.00 PKD
ROOT
HETATM    1  O   UNL     1      -7.707  11.605  67.230  1.00  0.00    -0.137 OA 
HETATM    2  C   UNL     1      -8.867  12.224  66.908  1.00  0.00    -0.207 C  
HETATM    3  C   UNL     1      -9.943  11.302  66.347  1.00  0.00    -0.215 C  
HETATM    4  O   UNL     1      -9.014  13.429  67.063  1.00  0.00    -0.217 OA 
HETATM    5  S   UNL     1      -9.797   9.628  67.124  1.00  0.00    -0.198 SA 
HETATM    6  H   UNL     1     -10.779   8.788  66.611  1.00  0.00     0.000 H  
ENDROOT
BRANCH   3   7
HETATM    7  C   UNL     1     -11.359  11.878  66.527  1.00  0.00    -0.341 C  
HETATM    8  C   UNL     1     -11.668  12.891  65.430  1.00  0.00    -0.375 C  
HETATM    9  S   UNL     1     -11.701  12.583  68.203  1.00  0.00    -0.332 SA 
HETATM   10  O   UNL     1     -12.566  13.845  65.771  1.00  0.00    -0.491 OA 
HETATM   11  O   UNL     1     -11.227  12.800  64.290  1.00  0.00    -0.324 OA 
HETATM   12  H   UNL     1     -12.979  13.104  68.366  1.00  0.00     0.000 H  
ENDBRANCH   3   7
TORSDOF 1
ENDMDL
MODEL       96
REMARK 921   NORMALIZED FREE ENERGY PREDICTED BY IDOCK:   -2.83 KCAL/MOL
REMARK 922        TOTAL FREE ENERGY PREDICTED BY IDOCK:   -2.46 KCAL/MOL
REMARK 923 INTER-LIGAND FREE ENERGY PREDICTED BY IDOCK:   -2.97 KCAL/MOL
REMARK 924 INTRA-LIGAND FREE ENERGY PREDICTED BY IDOCK:    0.52 KCAL/MOL
REMARK 927      BINDING AFFINITY PREDICTED BY RF-SCORE:    0.00 PKD
ROOT
HETATM    1  O   UNL     1      -8.300   7.064  71.353  1.00  0.00    -0.113 OA 
HETATM    2  C   UNL     1      -8.939   8.212  71.679  1.00  0.00    -0.163 C  
HETATM    3  C   UNL     1      -9.997   8.656  70.676  1.00  0.00    -0.192 C  
HETATM    4  O   UNL     1      -8.667   8.828  72.702  1.00  0.00    -0.408 OA 
HETATM    5  S   UNL     1     -10.786   7.170  69.904  1.00  0.00    -0.244 SA 
HETATM    6  H   UNL     1     -11.751   7.575  68.989  1.00  0.00     0.000 H  
ENDROOT
BRANCH   3   7
HETATM    7  C   UNL     1     -11.052   9.580  71.310  1.00  0.00    -0.379 C  
HETATM    8  C   UNL     1     -12.049   8.770  72.131  1.00  0.00    -0.371 C  
HETATM    9  S   UNL     1     -11.920  10.698  70.119  1.00  0.00    -0.349 SA 
HETATM   10  O   UNL     1     -13.279   9.325  72.245  1.00  0.00    -0.417 OA 
HETATM   11  O   UNL     1     -11.747   7.747  72.733  1.00  0.00    -0.337 OA 
HETATM   12  H   UNL     1     -12.872  11.533  70.692  1.00  0.00     0.000 H  
ENDBRANCH   3   7
TORSDOF 1
ENDMDL
MODEL       97
REMARK 921   NORMALIZED FREE ENERGY PREDICTED BY IDOCK:   -2.82 KCAL/MOL
REMARK 922        TOTAL FREE ENERGY PREDICTED BY IDOCK:   -2.45 KCAL/MOL
REMARK 923 INTER-LIGAND FREE ENERGY PREDICTED BY IDOCK:   -2.99 KCAL/MOL
REMARK 924 INTRA-LIGAND FREE ENERGY PREDICTED BY IDOCK:    0.53 KCAL/MOL
REMARK 927      BINDING AFFINITY PREDICTED BY RF-SCORE:    0.00 PKD
ROOT
HETATM    1  O   UNL     1      -9.020  10.252  66.344  1.00  0.00    -0.145 OA 
HETATM    2  C   UNL     1      -9.434  11.450  66.820  1.00  0.00    -0.182 C  
HETATM    3  C   UNL     1      -9.549  12.546  65.768  1.00  0.00    -0.129 C  
HETATM    4  O   UNL     1      -9.687  11.614  68.007  1.00  0.00    -0.171 OA 
HETATM    5  S   UNL     1     -10.047  11.804  64.147  1.00  0.00    -0.319 SA 
HETATM    6  H   UNL     1     -10.152  12.804  63.187  1.00  0.00     0.000 H  
ENDROOT
BRANCH   3   7
HETATM    7  C   UNL     1     -10.519  13.663  66.191  1.00  0.00    -0.297 C  
HETATM    8  C   UNL     1     -11.965  13.200  66.043  1.00  0.00    -0.433 C  
HETATM    9  S   UNL     1     -10.248  15.287  65.347  1.00  0.00    -0.378 SA 
HETATM   10  O   UNL     1     -12.861  14.191  65.821  1.00  0.00    -0.502 OA 
HETATM   11  O   UNL     1     -12.318  12.040  66.212  1.00  0.00    -0.432 OA 
HETATM   12  H   UNL     1     -11.125  16.295  65.730  1.00  0.00     0.000 H  
ENDBRANCH   3   7
TORSDOF 1
ENDMDL
MODEL       98
REMARK 921   NORMALIZED FREE ENERGY PREDICTED BY IDOCK:   -2.82 KCAL/MOL
REMARK 922        TOTAL FREE ENERGY PREDICTED BY IDOCK:   -2.45 KCAL/MOL
REMARK 923 INTER-LIGAND FREE ENERGY PREDICTED BY IDOCK:   -2.83 KCAL/MOL
REMARK 924 INTRA-LIGAND FREE ENERGY PREDICTED BY IDOCK:    0.38 KCAL/MOL
REMARK 927      BINDING AFFINITY PREDICTED BY RF-SCORE:    0.00 PKD
ROOT
HETATM    1  O   UNL     1     -10.355   4.977  69.644  1.00  0.00    -0.260 OA 
HETATM    2  C   UNL     1     -10.788   6.142  70.181  1.00  0.00    -0.329 C  
HETATM    3  C   UNL     1      -9.708   6.958  70.881  1.00  0.00    -0.178 C  
HETATM    4  O   UNL     1     -11.960   6.488  70.099  1.00  0.00    -0.383 OA 
HETATM    5  S   UNL     1      -8.085   6.706  70.028  1.00  0.00    -0.123 SA 
HETATM    6  H   UNL     1      -7.101   7.451  70.667  1.00  0.00     0.000 H  
ENDROOT
BRANCH   3   7
HETATM    7  C   UNL     1     -10.067   8.452  70.965  1.00  0.00    -0.196 C  
HETATM    8  C   UNL     1     -11.182   8.679  71.982  1.00  0.00    -0.364 C  
HETATM    9  S   UNL     1     -10.471   9.245  69.343  1.00  0.00    -0.222 SA 
HETATM   10  O   UNL     1     -11.954   9.766  71.748  1.00  0.00    -0.392 OA 
HETATM   11  O   UNL     1     -11.315   7.999  72.992  1.00  0.00    -0.386 OA 
HETATM   12  H   UNL     1     -10.796  10.594  69.420  1.00  0.00     0.000 H  
ENDBRANCH   3   7
TORSDOF 1
ENDMDL
MODEL       99
REMARK 921   NORMALIZED FREE ENERGY PREDICTED BY IDOCK:   -2.82 KCAL/MOL
REMARK 922        TOTAL FREE ENERGY PREDICTED BY IDOCK:   -2.45 KCAL/MOL
REMARK 923 INTER-LIGAND FREE ENERGY PREDICTED BY IDOCK:   -3.78 KCAL/MOL
REMARK 924 INTRA-LIGAND FREE ENERGY PREDICTED BY IDOCK:    1.33 KCAL/MOL
REMARK 927      BINDING AFFINITY PREDICTED BY RF-SCORE:    0.00 PKD
ROOT
HETATM    1  O   UNL     1     -10.517  18.930  65.485  1.00  0.00    -0.550 OA 
HETATM    2  C   UNL     1     -10.632  17.589  65.342  1.00  0.00     0.003 C  
HETATM    3  C   UNL     1     -10.110  16.778  66.522  1.00  0.00    -0.315 C  
HETATM    4  O   UNL     1     -11.117  17.092  64.333  1.00  0.00    -1.144 OA 
HETATM    5  S   UNL     1     -10.383  17.718  68.093  1.00  0.00    -0.389 SA 
HETATM    6  H   UNL     1      -9.907  16.978  69.169  1.00  0.00     0.000 H  
ENDROOT
BRANCH   3   7
HETATM    7  C   UNL     1     -10.743  15.377  66.594  1.00  0.00    -0.309 C  
HETATM    8  C   UNL     1     -10.014  14.512  67.617  1.00  0.00    -0.224 C  
HETATM    9  S   UNL     1     -10.890  14.508  64.968  1.00  0.00    -0.430 SA 
HETATM   10  O   UNL     1     -10.067  13.181  67.380  1.00  0.00    -0.225 OA 
HETATM   11  O   UNL     1      -9.504  14.964  68.636  1.00  0.00    -0.195 OA 
HETATM   12  H   UNL     1     -11.462  13.243  65.034  1.00  0.00     0.000 H  
ENDBRANCH   3   7
TORSDOF 1
ENDMDL
MODEL      100
REMARK 921   NORMALIZED FREE ENERGY PREDICTED BY IDOCK:   -2.80 KCAL/MOL
REMARK 922        TOTAL FREE ENERGY PREDICTED BY IDOCK:   -2.43 KCAL/MOL
REMARK 923 INTER-LIGAND FREE ENERGY PREDICTED BY IDOCK:   -2.85 KCAL/MOL
REMARK 924 INTRA-LIGAND FREE ENERGY PREDICTED BY IDOCK:    0.42 KCAL/MOL
REMARK 927      BINDING AFFINITY PREDICTED BY RF-SCORE:    0.00 PKD
ROOT
HETATM    1  O   UNL     1     -12.887  13.128  66.101  1.00  0.00    -0.242 OA 
HETATM    2  C   UNL     1     -11.879  12.324  66.514  1.00  0.00    -0.306 C  
HETATM    3  C   UNL     1     -10.610  12.416  65.674  1.00  0.00    -0.265 C  
HETATM    4  O   UNL     1     -12.003  11.589  67.485  1.00  0.00    -0.629 OA 
HETATM    5  S   UNL     1     -10.415  14.139  65.027  1.00  0.00    -0.427 SA 
HETATM    6  H   UNL     1      -9.257  14.222  64.261  1.00  0.00     0.000 H  
ENDROOT
BRANCH   3   7
HETATM    7  C   UNL     1      -9.360  11.968  66.452  1.00  0.00    -0.228 C  
HETATM    8  C   UNL     1      -9.395  10.464  66.701  1.00  0.00    -0.158 C  
HETATM    9  S   UNL     1      -9.050  12.898  68.022  1.00  0.00    -0.215 SA 
HETATM   10  O   UNL     1      -8.722  10.052  67.801  1.00  0.00    -0.125 OA 
HETATM   11  O   UNL     1      -9.900   9.667  65.919  1.00  0.00    -0.258 OA 
HETATM   12  H   UNL     1      -7.921  12.493  68.724  1.00  0.00     0.000 H  
ENDBRANCH   3   7
TORSDOF 1
ENDMDL
MODEL      101
REMARK 921   NORMALIZED FREE ENERGY PREDICTED BY IDOCK:   -2.80 KCAL/MOL
REMARK 922        TOTAL FREE ENERGY PREDICTED BY IDOCK:   -2.43 KCAL/MOL
REMARK 923 INTER-LIGAND FREE ENERGY PREDICTED BY IDOCK:   -2.95 KCAL/MOL
REMARK 924 INTRA-LIGAND FREE ENERGY PREDICTED BY IDOCK:    0.52 KCAL/MOL
REMARK 927      BINDING AFFINITY PREDICTED BY RF-SCORE:    0.00 PKD
ROOT
HETATM    1  O   UNL     1     -10.767  11.033  64.427  1.00  0.00    -0.351 OA 
HETATM    2  C   UNL     1     -10.849  12.273  64.964  1.00  0.00    -0.298 C  
HETATM    3  C   UNL     1     -11.318  12.306  66.415  1.00  0.00    -0.354 C  
HETATM    4  O   UNL     1     -10.567  13.272  64.315  1.00  0.00    -0.414 OA 
HETATM    5  S   UNL     1     -10.724  10.790  67.296  1.00  0.00    -0.282 SA 
HETATM    6  H   UNL     1     -11.151  10.821  68.618  1.00  0.00     0.000 H  
ENDROOT
BRANCH   3   7
HETATM    7  C   UNL     1     -10.870  13.585  67.144  1.00  0.00    -0.284 C  
HETATM    8  C   UNL     1      -9.395  13.499  67.519  1.00  0.00    -0.220 C  
HETATM    9  S   UNL     1     -11.906  14.047  68.606  1.00  0.00    -0.356 SA 
HETATM   10  O   UNL     1      -9.038  14.228  68.603  1.00  0.00    -0.195 OA 
HETATM   11  O   UNL     1      -8.564  12.905  66.842  1.00  0.00    -0.195 OA 
HETATM   12  H   UNL     1     -11.501  15.202  69.264  1.00  0.00     0.000 H  
ENDBRANCH   3   7
TORSDOF 1
ENDMDL
MODEL      102
REMARK 921   NORMALIZED FREE ENERGY PREDICTED BY IDOCK:   -2.80 KCAL/MOL
REMARK 922        TOTAL FREE ENERGY PREDICTED BY IDOCK:   -2.42 KCAL/MOL
REMARK 923 INTER-LIGAND FREE ENERGY PREDICTED BY IDOCK:   -2.79 KCAL/MOL
REMARK 924 INTRA-LIGAND FREE ENERGY PREDICTED BY IDOCK:    0.37 KCAL/MOL
REMARK 927      BINDING AFFINITY PREDICTED BY RF-SCORE:    0.00 PKD
ROOT
HETATM    1  O   UNL     1     -10.747  11.238  66.218  1.00  0.00    -0.262 OA 
HETATM    2  C   UNL     1     -11.301  12.135  67.068  1.00  0.00    -0.337 C  
HETATM    3  C   UNL     1     -10.416  12.524  68.246  1.00  0.00    -0.234 C  
HETATM    4  O   UNL     1     -12.427  12.580  66.883  1.00  0.00    -0.280 OA 
HETATM    5  S   UNL     1      -8.639  12.491  67.727  1.00  0.00    -0.190 SA 
HETATM    6  H   UNL     1      -7.832  12.846  68.801  1.00  0.00     0.000 H  
ENDROOT
BRANCH   3   7
HETATM    7  C   UNL     1     -10.798  13.892  68.837  1.00  0.00    -0.255 C  
HETATM    8  C   UNL     1     -12.012  13.760  69.750  1.00  0.00    -0.344 C  
HETATM    9  S   UNL     1     -11.044  15.235  67.588  1.00  0.00    -0.320 SA 
HETATM   10  O   UNL     1     -12.769  14.878  69.858  1.00  0.00    -0.216 OA 
HETATM   11  O   UNL     1     -12.241  12.762  70.422  1.00  0.00    -0.350 OA 
HETATM   12  H   UNL     1     -11.389  16.471  68.123  1.00  0.00     0.000 H  
ENDBRANCH   3   7
TORSDOF 1
ENDMDL
MODEL      103
REMARK 921   NORMALIZED FREE ENERGY PREDICTED BY IDOCK:   -2.79 KCAL/MOL
REMARK 922        TOTAL FREE ENERGY PREDICTED BY IDOCK:   -2.42 KCAL/MOL
REMARK 923 INTER-LIGAND FREE ENERGY PREDICTED BY IDOCK:   -2.93 KCAL/MOL
REMARK 924 INTRA-LIGAND FREE ENERGY PREDICTED BY IDOCK:    0.51 KCAL/MOL
REMARK 927      BINDING AFFINITY PREDICTED BY RF-SCORE:    0.00 PKD
ROOT
HETATM    1  O   UNL     1     -10.518  13.177  65.071  1.00  0.00    -0.313 OA 
HETATM    2  C   UNL     1     -11.170  12.208  65.756  1.00  0.00    -0.339 C  
HETATM    3  C   UNL     1     -10.275  11.096  66.289  1.00  0.00    -0.239 C  
HETATM    4  O   UNL     1     -12.383  12.245  65.917  1.00  0.00    -0.618 OA 
HETATM    5  S   UNL     1      -8.614  11.788  66.725  1.00  0.00    -0.173 SA 
HETATM    6  H   UNL     1      -7.798  10.773  67.212  1.00  0.00     0.000 H  
ENDROOT
BRANCH   3   7
HETATM    7  C   UNL     1     -10.905  10.363  67.486  1.00  0.00    -0.301 C  
HETATM    8  C   UNL     1     -10.698  11.159  68.771  1.00  0.00    -0.199 C  
HETATM    9  S   UNL     1     -10.361   8.607  67.694  1.00  0.00    -0.249 SA 
HETATM   10  O   UNL     1     -10.670  10.417  69.903  1.00  0.00    -0.267 OA 
HETATM   11  O   UNL     1     -10.662  12.383  68.802  1.00  0.00    -0.230 OA 
HETATM   12  H   UNL     1     -10.930   7.945  68.776  1.00  0.00     0.000 H  
ENDBRANCH   3   7
TORSDOF 1
ENDMDL
MODEL      104
REMARK 921   NORMALIZED FREE ENERGY PREDICTED BY IDOCK:   -2.79 KCAL/MOL
REMARK 922        TOTAL FREE ENERGY PREDICTED BY IDOCK:   -2.42 KCAL/MOL
REMARK 923 INTER-LIGAND FREE ENERGY PREDICTED BY IDOCK:   -2.93 KCAL/MOL
REMARK 924 INTRA-LIGAND FREE ENERGY PREDICTED BY IDOCK:    0.51 KCAL/MOL
REMARK 927      BINDING AFFINITY PREDICTED BY RF-SCORE:    0.00 PKD
ROOT
HETATM    1  O   UNL     1     -12.033  14.262  67.622  1.00  0.00    -0.383 OA 
HETATM    2  C   UNL     1     -11.284  15.280  67.136  1.00  0.00    -0.291 C  
HETATM    3  C   UNL     1     -11.180  16.489  68.058  1.00  0.00    -0.202 C  
HETATM    4  O   UNL     1     -10.746  15.210  66.038  1.00  0.00    -0.310 OA 
HETATM    5  S   UNL     1     -11.219  15.931  69.823  1.00  0.00    -0.363 SA 
HETATM    6  H   UNL     1     -11.124  17.034  70.664  1.00  0.00     0.000 H  
ENDROOT
BRANCH   3   7
HETATM    7  C   UNL     1      -9.929  17.338  67.770  1.00  0.00    -0.301 C  
HETATM    8  C   UNL     1      -8.698  16.714  68.417  1.00  0.00    -0.225 C  
HETATM    9  S   UNL     1     -10.086  19.126  68.218  1.00  0.00    -0.425 SA 
HETATM   10  O   UNL     1      -7.714  17.589  68.733  1.00  0.00    -0.266 OA 
HETATM   11  O   UNL     1      -8.551  15.505  68.552  1.00  0.00    -0.162 OA 
HETATM   12  H   UNL     1      -8.956  19.892  67.957  1.00  0.00     0.000 H  
ENDBRANCH   3   7
TORSDOF 1
ENDMDL
MODEL      105
REMARK 921   NORMALIZED FREE ENERGY PREDICTED BY IDOCK:   -2.79 KCAL/MOL
REMARK 922        TOTAL FREE ENERGY PREDICTED BY IDOCK:   -2.42 KCAL/MOL
REMARK 923 INTER-LIGAND FREE ENERGY PREDICTED BY IDOCK:   -2.93 KCAL/MOL
REMARK 924 INTRA-LIGAND FREE ENERGY PREDICTED BY IDOCK:    0.51 KCAL/MOL
REMARK 927      BINDING AFFINITY PREDICTED BY RF-SCORE:    0.00 PKD
ROOT
HETATM    1  O   UNL     1      -8.135  10.966  68.124  1.00  0.00    -0.110 OA 
HETATM    2  C   UNL     1      -8.591  11.789  67.150  1.00  0.00    -0.168 C  
HETATM    3  C   UNL     1      -9.328  11.085  66.017  1.00  0.00    -0.201 C  
HETATM    4  O   UNL     1      -8.409  12.999  67.198  1.00  0.00    -0.184 OA 
HETATM    5  S   UNL     1     -10.224   9.607  66.680  1.00  0.00    -0.212 SA 
HETATM    6  H   UNL     1     -10.896   8.965  65.646  1.00  0.00     0.000 H  
ENDROOT
BRANCH   3   7
HETATM    7  C   UNL     1     -10.287  12.028  65.269  1.00  0.00    -0.275 C  
HETATM    8  C   UNL     1     -11.584  12.204  66.052  1.00  0.00    -0.358 C  
HETATM    9  S   UNL     1     -10.627  11.556  63.513  1.00  0.00    -0.418 SA 
HETATM   10  O   UNL     1     -12.669  12.499  65.299  1.00  0.00    -0.654 OA 
HETATM   11  O   UNL     1     -11.635  12.187  67.276  1.00  0.00    -0.345 OA 
HETATM   12  H   UNL     1     -11.493  12.407  62.838  1.00  0.00     0.000 H  
ENDBRANCH   3   7
TORSDOF 1
ENDMDL
MODEL      106
REMARK 921   NORMALIZED FREE ENERGY PREDICTED BY IDOCK:   -2.77 KCAL/MOL
REMARK 922        TOTAL FREE ENERGY PREDICTED BY IDOCK:   -2.40 KCAL/MOL
REMARK 923 INTER-LIGAND FREE ENERGY PREDICTED BY IDOCK:   -2.92 KCAL/MOL
REMARK 924 INTRA-LIGAND FREE ENERGY PREDICTED BY IDOCK:    0.52 KCAL/MOL
REMARK 927      BINDING AFFINITY PREDICTED BY RF-SCORE:    0.00 PKD
ROOT
HETATM    1  O   UNL     1     -12.032  13.534  68.589  1.00  0.00    -0.345 OA 
HETATM    2  C   UNL     1     -11.826  12.368  67.933  1.00  0.00    -0.308 C  
HETATM    3  C   UNL     1     -11.222  12.519  66.542  1.00  0.00    -0.307 C  
HETATM    4  O   UNL     1     -12.115  11.290  68.438  1.00  0.00    -0.598 OA 
HETATM    5  S   UNL     1     -10.089  13.983  66.512  1.00  0.00    -0.293 SA 
HETATM    6  H   UNL     1      -9.538  14.121  65.243  1.00  0.00     0.000 H  
ENDROOT
BRANCH   3   7
HETATM    7  C   UNL     1     -10.496  11.244  66.078  1.00  0.00    -0.257 C  
HETATM    8  C   UNL     1      -9.137  11.124  66.759  1.00  0.00    -0.166 C  
HETATM    9  S   UNL     1     -10.342  11.063  64.243  1.00  0.00    -0.365 SA 
HETATM   10  O   UNL     1      -8.208  10.431  66.059  1.00  0.00    -0.132 OA 
HETATM   11  O   UNL     1      -8.919  11.526  67.896  1.00  0.00    -0.148 OA 
HETATM   12  H   UNL     1      -9.687   9.912  63.825  1.00  0.00     0.000 H  
ENDBRANCH   3   7
TORSDOF 1
ENDMDL
MODEL      107
REMARK 921   NORMALIZED FREE ENERGY PREDICTED BY IDOCK:   -2.76 KCAL/MOL
REMARK 922        TOTAL FREE ENERGY PREDICTED BY IDOCK:   -2.38 KCAL/MOL
REMARK 923 INTER-LIGAND FREE ENERGY PREDICTED BY IDOCK:   -2.90 KCAL/MOL
REMARK 924 INTRA-LIGAND FREE ENERGY PREDICTED BY IDOCK:    0.52 KCAL/MOL
REMARK 927      BINDING AFFINITY PREDICTED BY RF-SCORE:    0.00 PKD
ROOT
HETATM    1  O   UNL     1     -12.222  14.550  65.100  1.00  0.00    -0.386 OA 
HETATM    2  C   UNL     1     -11.983  14.202  66.387  1.00  0.00    -0.436 C  
HETATM    3  C   UNL     1     -11.848  12.702  66.623  1.00  0.00    -0.380 C  
HETATM    4  O   UNL     1     -11.889  15.044  67.271  1.00  0.00    -0.307 OA 
HETATM    5  S   UNL     1     -11.092  11.902  65.135  1.00  0.00    -0.284 SA 
HETATM    6  H   UNL     1     -10.970  10.534  65.351  1.00  0.00     0.000 H  
ENDROOT
BRANCH   3   7
HETATM    7  C   UNL     1     -11.045  12.381  67.896  1.00  0.00    -0.239 C  
HETATM    8  C   UNL     1      -9.548  12.445  67.615  1.00  0.00    -0.193 C  
HETATM    9  S   UNL     1     -11.503  10.790  68.722  1.00  0.00    -0.284 SA 
HETATM   10  O   UNL     1      -8.784  11.664  68.415  1.00  0.00    -0.158 OA 
HETATM   11  O   UNL     1      -9.050  13.215  66.803  1.00  0.00    -0.234 OA 
HETATM   12  H   UNL     1     -10.778  10.500  69.871  1.00  0.00     0.000 H  
ENDBRANCH   3   7
TORSDOF 1
ENDMDL
MODEL      108
REMARK 921   NORMALIZED FREE ENERGY PREDICTED BY IDOCK:   -2.75 KCAL/MOL
REMARK 922        TOTAL FREE ENERGY PREDICTED BY IDOCK:   -2.38 KCAL/MOL
REMARK 923 INTER-LIGAND FREE ENERGY PREDICTED BY IDOCK:   -2.74 KCAL/MOL
REMARK 924 INTRA-LIGAND FREE ENERGY PREDICTED BY IDOCK:    0.36 KCAL/MOL
REMARK 927      BINDING AFFINITY PREDICTED BY RF-SCORE:    0.00 PKD
ROOT
HETATM    1  O   UNL     1     -10.649  14.291  66.067  1.00  0.00    -0.288 OA 
HETATM    2  C   UNL     1     -10.554  13.223  66.894  1.00  0.00    -0.264 C  
HETATM    3  C   UNL     1     -11.221  11.955  66.372  1.00  0.00    -0.331 C  
HETATM    4  O   UNL     1      -9.977  13.297  67.971  1.00  0.00    -0.220 OA 
HETATM    5  S   UNL     1     -11.094  11.900  64.526  1.00  0.00    -0.324 SA 
HETATM    6  H   UNL     1     -11.702  10.744  64.051  1.00  0.00     0.000 H  
ENDROOT
BRANCH   3   7
HETATM    7  C   UNL     1     -10.635  10.683  67.009  1.00  0.00    -0.262 C  
HETATM    8  C   UNL     1     -11.213  10.468  68.404  1.00  0.00    -0.279 C  
HETATM    9  S   UNL     1      -8.787  10.607  67.032  1.00  0.00    -0.138 SA 
HETATM   10  O   UNL     1     -10.411   9.783  69.253  1.00  0.00    -0.198 OA 
HETATM   11  O   UNL     1     -12.352  10.792  68.715  1.00  0.00    -0.435 OA 
HETATM   12  H   UNL     1      -8.258   9.458  67.607  1.00  0.00     0.000 H  
ENDBRANCH   3   7
TORSDOF 1
ENDMDL
MODEL      109
REMARK 921   NORMALIZED FREE ENERGY PREDICTED BY IDOCK:   -2.75 KCAL/MOL
REMARK 922        TOTAL FREE ENERGY PREDICTED BY IDOCK:   -2.38 KCAL/MOL
REMARK 923 INTER-LIGAND FREE ENERGY PREDICTED BY IDOCK:   -2.74 KCAL/MOL
REMARK 924 INTRA-LIGAND FREE ENERGY PREDICTED BY IDOCK:    0.36 KCAL/MOL
REMARK 927      BINDING AFFINITY PREDICTED BY RF-SCORE:    0.00 PKD
ROOT
HETATM    1  O   UNL     1      -9.883  20.530  66.630  1.00  0.00    -0.405 OA 
HETATM    2  C   UNL     1      -9.487  19.434  67.320  1.00  0.00    -0.318 C  
HETATM    3  C   UNL     1      -8.369  18.637  66.658  1.00  0.00    -0.287 C  
HETATM    4  O   UNL     1     -10.004  19.128  68.387  1.00  0.00    -0.370 OA 
HETATM    5  S   UNL     1      -7.251  19.785  65.730  1.00  0.00    -0.306 SA 
HETATM    6  H   UNL     1      -6.232  19.058  65.127  1.00  0.00     0.000 H  
ENDROOT
BRANCH   3   7
HETATM    7  C   UNL     1      -7.579  17.788  67.670  1.00  0.00    -0.210 C  
HETATM    8  C   UNL     1      -8.393  16.571  68.098  1.00  0.00    -0.186 C  
HETATM    9  S   UNL     1      -6.947  18.719  69.138  1.00  0.00    -0.223 SA 
HETATM   10  O   UNL     1      -8.101  16.096  69.331  1.00  0.00    -0.226 OA 
HETATM   11  O   UNL     1      -9.178  15.995  67.355  1.00  0.00    -0.205 OA 
HETATM   12  H   UNL     1      -6.234  17.952  70.051  1.00  0.00     0.000 H  
ENDBRANCH   3   7
TORSDOF 1
ENDMDL
MODEL      110
REMARK 921   NORMALIZED FREE ENERGY PREDICTED BY IDOCK:   -2.75 KCAL/MOL
REMARK 922        TOTAL FREE ENERGY PREDICTED BY IDOCK:   -2.37 KCAL/MOL
REMARK 923 INTER-LIGAND FREE ENERGY PREDICTED BY IDOCK:   -2.73 KCAL/MOL
REMARK 924 INTRA-LIGAND FREE ENERGY PREDICTED BY IDOCK:    0.36 KCAL/MOL
REMARK 927      BINDING AFFINITY PREDICTED BY RF-SCORE:    0.00 PKD
ROOT
HETATM    1  O   UNL     1     -13.726   7.126  71.483  1.00  0.00    -0.377 OA 
HETATM    2  C   UNL     1     -12.402   7.208  71.213  1.00  0.00    -0.379 C  
HETATM    3  C   UNL     1     -11.911   8.608  70.863  1.00  0.00    -0.225 C  
HETATM    4  O   UNL     1     -11.679   6.221  71.251  1.00  0.00    -0.310 OA 
HETATM    5  S   UNL     1     -12.897   9.866  71.798  1.00  0.00    -0.456 SA 
HETATM    6  H   UNL     1     -12.448  11.142  71.479  1.00  0.00     0.000 H  
ENDROOT
BRANCH   3   7
HETATM    7  C   UNL     1     -10.403   8.780  71.120  1.00  0.00    -0.246 C  
HETATM    8  C   UNL     1      -9.593   8.144  69.995  1.00  0.00    -0.171 C  
HETATM    9  S   UNL     1      -9.826   8.188  72.776  1.00  0.00    -0.267 SA 
HETATM   10  O   UNL     1      -8.357   7.721  70.351  1.00  0.00    -0.119 OA 
HETATM   11  O   UNL     1      -9.976   8.106  68.832  1.00  0.00    -0.181 OA 
HETATM   12  H   UNL     1      -8.465   8.343  73.007  1.00  0.00     0.000 H  
ENDBRANCH   3   7
TORSDOF 1
ENDMDL
MODEL      111
REMARK 921   NORMALIZED FREE ENERGY PREDICTED BY IDOCK:   -2.74 KCAL/MOL
REMARK 922        TOTAL FREE ENERGY PREDICTED BY IDOCK:   -2.37 KCAL/MOL
REMARK 923 INTER-LIGAND FREE ENERGY PREDICTED BY IDOCK:   -2.90 KCAL/MOL
REMARK 924 INTRA-LIGAND FREE ENERGY PREDICTED BY IDOCK:    0.53 KCAL/MOL
REMARK 927      BINDING AFFINITY PREDICTED BY RF-SCORE:    0.00 PKD
ROOT
HETATM    1  O   UNL     1     -13.013  10.887  71.927  1.00  0.00    -0.458 OA 
HETATM    2  C   UNL     1     -12.961   9.534  71.917  1.00  0.00    -0.425 C  
HETATM    3  C   UNL     1     -12.103   8.940  70.806  1.00  0.00    -0.107 C  
HETATM    4  O   UNL     1     -13.568   8.864  72.743  1.00  0.00    -0.405 OA 
HETATM    5  S   UNL     1     -10.684  10.072  70.443  1.00  0.00    -0.274 SA 
HETATM    6  H   UNL     1      -9.901   9.529  69.430  1.00  0.00     0.000 H  
ENDROOT
BRANCH   3   7
HETATM    7  C   UNL     1     -11.611   7.521  71.143  1.00  0.00    -0.282 C  
HETATM    8  C   UNL     1     -10.469   7.576  72.152  1.00  0.00    -0.214 C  
HETATM    9  S   UNL     1     -11.158   6.488  69.676  1.00  0.00    -0.389 SA 
HETATM   10  O   UNL     1      -9.606   6.534  72.093  1.00  0.00    -0.150 OA 
HETATM   11  O   UNL     1     -10.384   8.434  73.022  1.00  0.00    -0.192 OA 
HETATM   12  H   UNL     1     -10.715   5.207  69.981  1.00  0.00     0.000 H  
ENDBRANCH   3   7
TORSDOF 1
ENDMDL
MODEL      112
REMARK 921   NORMALIZED FREE ENERGY PREDICTED BY IDOCK:   -2.74 KCAL/MOL
REMARK 922        TOTAL FREE ENERGY PREDICTED BY IDOCK:   -2.37 KCAL/MOL
REMARK 923 INTER-LIGAND FREE ENERGY PREDICTED BY IDOCK:   -2.89 KCAL/MOL
REMARK 924 INTRA-LIGAND FREE ENERGY PREDICTED BY IDOCK:    0.52 KCAL/MOL
REMARK 927      BINDING AFFINITY PREDICTED BY RF-SCORE:    0.00 PKD
ROOT
HETATM    1  O   UNL     1      -9.745  12.098  66.137  1.00  0.00    -0.232 OA 
HETATM    2  C   UNL     1      -9.601  12.893  67.224  1.00  0.00    -0.220 C  
HETATM    3  C   UNL     1     -10.428  14.173  67.188  1.00  0.00    -0.270 C  
HETATM    4  O   UNL     1      -8.857  12.587  68.147  1.00  0.00    -0.182 OA 
HETATM    5  S   UNL     1     -12.015  13.864  66.285  1.00  0.00    -0.456 SA 
HETATM    6  H   UNL     1     -12.768  15.032  66.253  1.00  0.00     0.000 H  
ENDROOT
BRANCH   3   7
HETATM    7  C   UNL     1     -10.690  14.739  68.595  1.00  0.00    -0.253 C  
HETATM    8  C   UNL     1     -11.875  14.033  69.244  1.00  0.00    -0.344 C  
HETATM    9  S   UNL     1     -10.885  16.578  68.667  1.00  0.00    -0.343 SA 
HETATM   10  O   UNL     1     -12.546  14.771  70.161  1.00  0.00    -0.324 OA 
HETATM   11  O   UNL     1     -12.149  12.857  69.040  1.00  0.00    -0.267 OA 
HETATM   12  H   UNL     1     -11.121  17.089  69.938  1.00  0.00     0.000 H  
ENDBRANCH   3   7
TORSDOF 1
ENDMDL
MODEL      113
REMARK 921   NORMALIZED FREE ENERGY PREDICTED BY IDOCK:   -2.74 KCAL/MOL
REMARK 922        TOTAL FREE ENERGY PREDICTED BY IDOCK:   -2.37 KCAL/MOL
REMARK 923 INTER-LIGAND FREE ENERGY PREDICTED BY IDOCK:   -3.70 KCAL/MOL
REMARK 924 INTRA-LIGAND FREE ENERGY PREDICTED BY IDOCK:    1.33 KCAL/MOL
REMARK 927      BINDING AFFINITY PREDICTED BY RF-SCORE:    0.00 PKD
ROOT
HETATM    1  O   UNL     1     -12.638  13.502  63.512  1.00  0.00    -0.738 OA 
HETATM    2  C   UNL     1     -12.334  13.182  64.792  1.00  0.00    -0.423 C  
HETATM    3  C   UNL     1     -11.534  11.894  64.952  1.00  0.00    -0.253 C  
HETATM    4  O   UNL     1     -12.688  13.886  65.728  1.00  0.00    -0.504 OA 
HETATM    5  S   UNL     1     -10.415  11.671  63.494  1.00  0.00    -0.459 SA 
HETATM    6  H   UNL     1      -9.686  10.496  63.641  1.00  0.00     0.000 H  
ENDROOT
BRANCH   3   7
HETATM    7  C   UNL     1     -10.744  11.858  66.272  1.00  0.00    -0.271 C  
HETATM    8  C   UNL     1     -10.345  10.427  66.617  1.00  0.00    -0.231 C  
HETATM    9  S   UNL     1     -11.582  12.682  67.701  1.00  0.00    -0.367 SA 
HETATM   10  O   UNL     1     -10.183  10.184  67.939  1.00  0.00    -0.162 OA 
HETATM   11  O   UNL     1     -10.087   9.579  65.771  1.00  0.00    -0.288 OA 
HETATM   12  H   UNL     1     -10.867  12.648  68.892  1.00  0.00     0.000 H  
ENDBRANCH   3   7
TORSDOF 1
ENDMDL
MODEL      114
REMARK 921   NORMALIZED FREE ENERGY PREDICTED BY IDOCK:   -2.73 KCAL/MOL
REMARK 922        TOTAL FREE ENERGY PREDICTED BY IDOCK:   -2.36 KCAL/MOL
REMARK 923 INTER-LIGAND FREE ENERGY PREDICTED BY IDOCK:   -2.91 KCAL/MOL
REMARK 924 INTRA-LIGAND FREE ENERGY PREDICTED BY IDOCK:    0.55 KCAL/MOL
REMARK 927      BINDING AFFINITY PREDICTED BY RF-SCORE:    0.00 PKD
ROOT
HETATM    1  O   UNL     1      -9.489  13.894  65.765  1.00  0.00    -0.141 OA 
HETATM    2  C   UNL     1      -9.575  13.488  67.053  1.00  0.00    -0.248 C  
HETATM    3  C   UNL     1     -10.922  13.754  67.715  1.00  0.00    -0.256 C  
HETATM    4  O   UNL     1      -8.630  12.955  67.620  1.00  0.00    -0.159 OA 
HETATM    5  S   UNL     1     -12.272  13.621  66.454  1.00  0.00    -0.397 SA 
HETATM    6  H   UNL     1     -13.500  13.864  67.058  1.00  0.00     0.000 H  
ENDROOT
BRANCH   3   7
HETATM    7  C   UNL     1     -11.182  12.820  68.909  1.00  0.00    -0.283 C  
HETATM    8  C   UNL     1     -11.782  11.500  68.436  1.00  0.00    -0.303 C  
HETATM    9  S   UNL     1     -12.191  13.563  70.270  1.00  0.00    -0.315 SA 
HETATM   10  O   UNL     1     -12.557  10.867  69.348  1.00  0.00    -0.335 OA 
HETATM   11  O   UNL     1     -11.509  10.988  67.357  1.00  0.00    -0.475 OA 
HETATM   12  H   UNL     1     -12.425  12.718  71.349  1.00  0.00     0.000 H  
ENDBRANCH   3   7
TORSDOF 1
ENDMDL
MODEL      115
REMARK 921   NORMALIZED FREE ENERGY PREDICTED BY IDOCK:   -2.72 KCAL/MOL
REMARK 922        TOTAL FREE ENERGY PREDICTED BY IDOCK:   -2.35 KCAL/MOL
REMARK 923 INTER-LIGAND FREE ENERGY PREDICTED BY IDOCK:   -2.86 KCAL/MOL
REMARK 924 INTRA-LIGAND FREE ENERGY PREDICTED BY IDOCK:    0.51 KCAL/MOL
REMARK 927      BINDING AFFINITY PREDICTED BY RF-SCORE:    0.00 PKD
ROOT
HETATM    1  O   UNL     1      -9.451  17.908  68.967  1.00  0.00    -0.211 OA 
HETATM    2  C   UNL     1     -10.325  17.010  68.455  1.00  0.00    -0.359 C  
HETATM    3  C   UNL     1     -10.172  16.757  66.960  1.00  0.00    -0.292 C  
HETATM    4  O   UNL     1     -11.165  16.462  69.158  1.00  0.00    -0.314 OA 
HETATM    5  S   UNL     1      -8.391  16.916  66.481  1.00  0.00    -0.305 SA 
HETATM    6  H   UNL     1      -8.252  16.684  65.117  1.00  0.00     0.000 H  
ENDROOT
BRANCH   3   7
HETATM    7  C   UNL     1     -10.743  15.392  66.537  1.00  0.00    -0.308 C  
HETATM    8  C   UNL     1      -9.774  14.271  66.899  1.00  0.00    -0.264 C  
HETATM    9  S   UNL     1     -11.259  15.282  64.764  1.00  0.00    -0.349 SA 
HETATM   10  O   UNL     1      -9.858  13.170  66.116  1.00  0.00    -0.281 OA 
HETATM   11  O   UNL     1      -9.044  14.308  67.882  1.00  0.00    -0.177 OA 
HETATM   12  H   UNL     1     -11.774  14.049  64.383  1.00  0.00     0.000 H  
ENDBRANCH   3   7
TORSDOF 1
ENDMDL
MODEL      116
REMARK 921   NORMALIZED FREE ENERGY PREDICTED BY IDOCK:   -2.71 KCAL/MOL
REMARK 922        TOTAL FREE ENERGY PREDICTED BY IDOCK:   -2.34 KCAL/MOL
REMARK 923 INTER-LIGAND FREE ENERGY PREDICTED BY IDOCK:   -2.74 KCAL/MOL
REMARK 924 INTRA-LIGAND FREE ENERGY PREDICTED BY IDOCK:    0.40 KCAL/MOL
REMARK 927      BINDING AFFINITY PREDICTED BY RF-SCORE:    0.00 PKD
ROOT
HETATM    1  O   UNL     1      -8.250   7.805  70.055  1.00  0.00    -0.117 OA 
HETATM    2  C   UNL     1      -9.273   8.489  70.621  1.00  0.00    -0.163 C  
HETATM    3  C   UNL     1     -10.622   8.292  69.940  1.00  0.00    -0.232 C  
HETATM    4  O   UNL     1      -9.100   9.204  71.600  1.00  0.00    -0.334 OA 
HETATM    5  S   UNL     1     -10.727   6.577  69.251  1.00  0.00    -0.311 SA 
HETATM    6  H   UNL     1     -11.958   6.399  68.630  1.00  0.00     0.000 H  
ENDROOT
BRANCH   3   7
HETATM    7  C   UNL     1     -11.801   8.587  70.883  1.00  0.00    -0.217 C  
HETATM    8  C   UNL     1     -12.101  10.082  70.915  1.00  0.00    -0.355 C  
HETATM    9  S   UNL     1     -11.615   7.907  72.594  1.00  0.00    -0.327 SA 
HETATM   10  O   UNL     1     -12.669  10.526  72.061  1.00  0.00    -0.384 OA 
HETATM   11  O   UNL     1     -11.942  10.818  69.949  1.00  0.00    -0.296 OA 
HETATM   12  H   UNL     1     -12.681   8.173  73.445  1.00  0.00     0.000 H  
ENDBRANCH   3   7
TORSDOF 1
ENDMDL
MODEL      117
REMARK 921   NORMALIZED FREE ENERGY PREDICTED BY IDOCK:   -2.71 KCAL/MOL
REMARK 922        TOTAL FREE ENERGY PREDICTED BY IDOCK:   -2.33 KCAL/MOL
REMARK 923 INTER-LIGAND FREE ENERGY PREDICTED BY IDOCK:   -2.70 KCAL/MOL
REMARK 924 INTRA-LIGAND FREE ENERGY PREDICTED BY IDOCK:    0.37 KCAL/MOL
REMARK 927      BINDING AFFINITY PREDICTED BY RF-SCORE:    0.00 PKD
ROOT
HETATM    1  O   UNL     1     -12.886   8.660  71.754  1.00  0.00    -0.326 OA 
HETATM    2  C   UNL     1     -11.734   9.129  71.219  1.00  0.00    -0.326 C  
HETATM    3  C   UNL     1     -10.691   8.059  70.919  1.00  0.00    -0.221 C  
HETATM    4  O   UNL     1     -11.567  10.323  71.006  1.00  0.00    -0.351 OA 
HETATM    5  S   UNL     1     -11.536   6.483  70.438  1.00  0.00    -0.401 SA 
HETATM    6  H   UNL     1     -10.585   5.508  70.164  1.00  0.00     0.000 H  
ENDROOT
BRANCH   3   7
HETATM    7  C   UNL     1      -9.688   8.505  69.841  1.00  0.00    -0.179 C  
HETATM    8  C   UNL     1      -8.614   9.402  70.447  1.00  0.00    -0.230 C  
HETATM    9  S   UNL     1     -10.452   9.291  68.350  1.00  0.00    -0.186 SA 
HETATM   10  O   UNL     1      -8.056  10.286  69.586  1.00  0.00    -0.166 OA 
HETATM   11  O   UNL     1      -8.203   9.274  71.594  1.00  0.00    -0.312 OA 
HETATM   12  H   UNL     1      -9.546   9.694  67.376  1.00  0.00     0.000 H  
ENDBRANCH   3   7
TORSDOF 1
ENDMDL
MODEL      118
REMARK 921   NORMALIZED FREE ENERGY PREDICTED BY IDOCK:   -2.70 KCAL/MOL
REMARK 922        TOTAL FREE ENERGY PREDICTED BY IDOCK:   -2.32 KCAL/MOL
REMARK 923 INTER-LIGAND FREE ENERGY PREDICTED BY IDOCK:   -2.84 KCAL/MOL
REMARK 924 INTRA-LIGAND FREE ENERGY PREDICTED BY IDOCK:    0.51 KCAL/MOL
REMARK 927      BINDING AFFINITY PREDICTED BY RF-SCORE:    0.00 PKD
ROOT
HETATM    1  O   UNL     1     -12.532  13.937  70.190  1.00  0.00    -0.333 OA 
HETATM    2  C   UNL     1     -11.973  13.588  69.007  1.00  0.00    -0.335 C  
HETATM    3  C   UNL     1     -11.699  14.754  68.066  1.00  0.00    -0.333 C  
HETATM    4  O   UNL     1     -11.721  12.420  68.739  1.00  0.00    -0.295 OA 
HETATM    5  S   UNL     1     -11.275  16.263  69.051  1.00  0.00    -0.300 SA 
HETATM    6  H   UNL     1     -11.025  17.327  68.191  1.00  0.00     0.000 H  
ENDROOT
BRANCH   3   7
HETATM    7  C   UNL     1     -10.599  14.431  67.040  1.00  0.00    -0.274 C  
HETATM    8  C   UNL     1      -9.218  14.617  67.660  1.00  0.00    -0.193 C  
HETATM    9  S   UNL     1     -10.739  15.345  65.437  1.00  0.00    -0.425 SA 
HETATM   10  O   UNL     1      -8.235  14.927  66.782  1.00  0.00    -0.191 OA 
HETATM   11  O   UNL     1      -8.980  14.403  68.843  1.00  0.00    -0.159 OA 
HETATM   12  H   UNL     1      -9.745  15.053  64.511  1.00  0.00     0.000 H  
ENDBRANCH   3   7
TORSDOF 1
ENDMDL
MODEL      119
REMARK 921   NORMALIZED FREE ENERGY PREDICTED BY IDOCK:   -2.70 KCAL/MOL
REMARK 922        TOTAL FREE ENERGY PREDICTED BY IDOCK:   -2.32 KCAL/MOL
REMARK 923 INTER-LIGAND FREE ENERGY PREDICTED BY IDOCK:   -2.83 KCAL/MOL
REMARK 924 INTRA-LIGAND FREE ENERGY PREDICTED BY IDOCK:    0.52 KCAL/MOL
REMARK 927      BINDING AFFINITY PREDICTED BY RF-SCORE:    0.00 PKD
ROOT
HETATM    1  O   UNL     1      -7.998  11.991  68.063  1.00  0.00    -0.130 OA 
HETATM    2  C   UNL     1      -8.511  12.813  67.117  1.00  0.00    -0.181 C  
HETATM    3  C   UNL     1      -9.550  12.166  66.209  1.00  0.00    -0.237 C  
HETATM    4  O   UNL     1      -8.150  13.979  67.019  1.00  0.00    -0.137 OA 
HETATM    5  S   UNL     1     -10.504  10.895  67.159  1.00  0.00    -0.250 SA 
HETATM    6  H   UNL     1     -11.451  10.306  66.330  1.00  0.00     0.000 H  
ENDROOT
BRANCH   3   7
HETATM    7  C   UNL     1     -10.489  13.202  65.566  1.00  0.00    -0.288 C  
HETATM    8  C   UNL     1     -11.600  13.592  66.535  1.00  0.00    -0.359 C  
HETATM    9  S   UNL     1     -11.180  12.707  63.922  1.00  0.00    -0.475 SA 
HETATM   10  O   UNL     1     -12.749  14.003  65.950  1.00  0.00    -0.495 OA 
HETATM   11  O   UNL     1     -11.445  13.635  67.750  1.00  0.00    -0.284 OA 
HETATM   12  H   UNL     1     -12.029  13.642  63.342  1.00  0.00     0.000 H  
ENDBRANCH   3   7
TORSDOF 1
ENDMDL
MODEL      120
REMARK 921   NORMALIZED FREE ENERGY PREDICTED BY IDOCK:   -2.70 KCAL/MOL
REMARK 922        TOTAL FREE ENERGY PREDICTED BY IDOCK:   -2.32 KCAL/MOL
REMARK 923 INTER-LIGAND FREE ENERGY PREDICTED BY IDOCK:   -2.75 KCAL/MOL
REMARK 924 INTRA-LIGAND FREE ENERGY PREDICTED BY IDOCK:    0.43 KCAL/MOL
REMARK 927      BINDING AFFINITY PREDICTED BY RF-SCORE:    0.00 PKD
ROOT
HETATM    1  O   UNL     1     -13.182   8.941  72.338  1.00  0.00    -0.411 OA 
HETATM    2  C   UNL     1     -11.930   9.102  71.847  1.00  0.00    -0.373 C  
HETATM    3  C   UNL     1     -11.014   7.898  72.037  1.00  0.00    -0.274 C  
HETATM    4  O   UNL     1     -11.586  10.142  71.301  1.00  0.00    -0.364 OA 
HETATM    5  S   UNL     1     -12.009   6.339  71.953  1.00  0.00    -0.210 SA 
HETATM    6  H   UNL     1     -11.173   5.242  72.126  1.00  0.00     0.000 H  
ENDROOT
BRANCH   3   7
HETATM    7  C   UNL     1      -9.859   7.877  71.020  1.00  0.00    -0.170 C  
HETATM    8  C   UNL     1      -8.687   8.713  71.524  1.00  0.00    -0.202 C  
HETATM    9  S   UNL     1     -10.333   8.361  69.298  1.00  0.00    -0.209 SA 
HETATM   10  O   UNL     1      -7.902   9.237  70.554  1.00  0.00    -0.121 OA 
HETATM   11  O   UNL     1      -8.404   8.823  72.711  1.00  0.00    -0.412 OA 
HETATM   12  H   UNL     1      -9.290   8.342  68.380  1.00  0.00     0.000 H  
ENDBRANCH   3   7
TORSDOF 1
ENDMDL
MODEL      121
REMARK 921   NORMALIZED FREE ENERGY PREDICTED BY IDOCK:   -2.67 KCAL/MOL
REMARK 922        TOTAL FREE ENERGY PREDICTED BY IDOCK:   -2.29 KCAL/MOL
REMARK 923 INTER-LIGAND FREE ENERGY PREDICTED BY IDOCK:   -2.65 KCAL/MOL
REMARK 924 INTRA-LIGAND FREE ENERGY PREDICTED BY IDOCK:    0.36 KCAL/MOL
REMARK 927      BINDING AFFINITY PREDICTED BY RF-SCORE:    0.00 PKD
ROOT
HETATM    1  O   UNL     1      -7.761  11.663  66.803  1.00  0.00    -0.156 OA 
HETATM    2  C   UNL     1      -8.732  12.564  67.082  1.00  0.00    -0.200 C  
HETATM    3  C   UNL     1      -9.883  12.588  66.083  1.00  0.00    -0.258 C  
HETATM    4  O   UNL     1      -8.664  13.293  68.064  1.00  0.00    -0.169 OA 
HETATM    5  S   UNL     1     -10.159  10.885  65.411  1.00  0.00    -0.289 SA 
HETATM    6  H   UNL     1     -11.209  10.907  64.500  1.00  0.00     0.000 H  
ENDROOT
BRANCH   3   7
HETATM    7  C   UNL     1     -11.173  13.162  66.692  1.00  0.00    -0.304 C  
HETATM    8  C   UNL     1     -11.068  14.677  66.840  1.00  0.00    -0.333 C  
HETATM    9  S   UNL     1     -11.701  12.372  68.280  1.00  0.00    -0.329 SA 
HETATM   10  O   UNL     1     -11.822  15.207  67.832  1.00  0.00    -0.320 OA 
HETATM   11  O   UNL     1     -10.436  15.383  66.064  1.00  0.00    -0.291 OA 
HETATM   12  H   UNL     1     -12.866  12.891  68.830  1.00  0.00     0.000 H  
ENDBRANCH   3   7
TORSDOF 1
ENDMDL
MODEL      122
REMARK 921   NORMALIZED FREE ENERGY PREDICTED BY IDOCK:   -2.65 KCAL/MOL
REMARK 922        TOTAL FREE ENERGY PREDICTED BY IDOCK:   -2.27 KCAL/MOL
REMARK 923 INTER-LIGAND FREE ENERGY PREDICTED BY IDOCK:   -2.63 KCAL/MOL
REMARK 924 INTRA-LIGAND FREE ENERGY PREDICTED BY IDOCK:    0.36 KCAL/MOL
REMARK 927      BINDING AFFINITY PREDICTED BY RF-SCORE:    0.00 PKD
ROOT
HETATM    1  O   UNL     1      -7.313  14.028  67.325  1.00  0.00    -0.152 OA 
HETATM    2  C   UNL     1      -8.537  14.029  67.904  1.00  0.00    -0.181 C  
HETATM    3  C   UNL     1      -9.266  15.366  67.847  1.00  0.00    -0.180 C  
HETATM    4  O   UNL     1      -8.997  13.022  68.429  1.00  0.00    -0.188 OA 
HETATM    5  S   UNL     1      -8.815  16.255  66.287  1.00  0.00    -0.330 SA 
HETATM    6  H   UNL     1      -9.480  17.474  66.235  1.00  0.00     0.000 H  
ENDROOT
BRANCH   3   7
HETATM    7  C   UNL     1     -10.791  15.206  67.977  1.00  0.00    -0.284 C  
HETATM    8  C   UNL     1     -11.181  14.953  69.429  1.00  0.00    -0.283 C  
HETATM    9  S   UNL     1     -11.536  13.939  66.853  1.00  0.00    -0.400 SA 
HETATM   10  O   UNL     1     -12.328  14.253  69.597  1.00  0.00    -0.329 OA 
HETATM   11  O   UNL     1     -10.572  15.428  70.380  1.00  0.00    -0.306 OA 
HETATM   12  H   UNL     1     -12.913  13.795  66.971  1.00  0.00     0.000 H  
ENDBRANCH   3   7
TORSDOF 1
ENDMDL
MODEL      123
REMARK 921   NORMALIZED FREE ENERGY PREDICTED BY IDOCK:   -2.65 KCAL/MOL
REMARK 922        TOTAL FREE ENERGY PREDICTED BY IDOCK:   -2.27 KCAL/MOL
REMARK 923 INTER-LIGAND FREE ENERGY PREDICTED BY IDOCK:   -2.64 KCAL/MOL
REMARK 924 INTRA-LIGAND FREE ENERGY PREDICTED BY IDOCK:    0.36 KCAL/MOL
REMARK 927      BINDING AFFINITY PREDICTED BY RF-SCORE:    0.00 PKD
ROOT
HETATM    1  O   UNL     1      -9.748   9.915  70.148  1.00  0.00    -0.247 OA 
HETATM    2  C   UNL     1     -10.241   8.857  70.835  1.00  0.00    -0.240 C  
HETATM    3  C   UNL     1     -10.867   7.773  69.966  1.00  0.00    -0.241 C  
HETATM    4  O   UNL     1     -10.179   8.802  72.057  1.00  0.00    -0.315 OA 
HETATM    5  S   UNL     1      -9.977   7.681  68.346  1.00  0.00    -0.181 SA 
HETATM    6  H   UNL     1     -10.549   6.692  67.554  1.00  0.00     0.000 H  
ENDROOT
BRANCH   3   7
HETATM    7  C   UNL     1     -10.890   6.403  70.667  1.00  0.00    -0.276 C  
HETATM    8  C   UNL     1     -11.959   6.376  71.754  1.00  0.00    -0.316 C  
HETATM    9  S   UNL     1      -9.254   5.841  71.325  1.00  0.00    -0.146 SA 
HETATM   10  O   UNL     1     -11.714   5.519  72.774  1.00  0.00    -0.297 OA 
HETATM   11  O   UNL     1     -13.013   6.996  71.674  1.00  0.00    -0.376 OA 
HETATM   12  H   UNL     1      -9.275   4.605  71.959  1.00  0.00     0.000 H  
ENDBRANCH   3   7
TORSDOF 1
ENDMDL
MODEL      124
REMARK 921   NORMALIZED FREE ENERGY PREDICTED BY IDOCK:   -2.64 KCAL/MOL
REMARK 922        TOTAL FREE ENERGY PREDICTED BY IDOCK:   -2.26 KCAL/MOL
REMARK 923 INTER-LIGAND FREE ENERGY PREDICTED BY IDOCK:   -2.77 KCAL/MOL
REMARK 924 INTRA-LIGAND FREE ENERGY PREDICTED BY IDOCK:    0.51 KCAL/MOL
REMARK 927      BINDING AFFINITY PREDICTED BY RF-SCORE:    0.00 PKD
ROOT
HETATM    1  O   UNL     1     -10.778  14.992  64.607  1.00  0.00    -0.365 OA 
HETATM    2  C   UNL     1     -10.187  14.745  65.800  1.00  0.00    -0.338 C  
HETATM    3  C   UNL     1      -9.518  15.956  66.441  1.00  0.00    -0.295 C  
HETATM    4  O   UNL     1     -10.201  13.628  66.301  1.00  0.00    -0.282 OA 
HETATM    5  S   UNL     1     -10.459  17.490  66.005  1.00  0.00    -0.179 SA 
HETATM    6  H   UNL     1      -9.849  18.593  66.589  1.00  0.00     0.000 H  
ENDROOT
BRANCH   3   7
HETATM    7  C   UNL     1      -9.374  15.805  67.965  1.00  0.00    -0.197 C  
HETATM    8  C   UNL     1     -10.683  16.159  68.664  1.00  0.00    -0.295 C  
HETATM    9  S   UNL     1      -7.951  16.728  68.705  1.00  0.00    -0.254 SA 
HETATM   10  O   UNL     1     -10.547  16.617  69.931  1.00  0.00    -0.275 OA 
HETATM   11  O   UNL     1     -11.784  15.952  68.169  1.00  0.00    -0.292 OA 
HETATM   12  H   UNL     1      -7.822  16.591  70.082  1.00  0.00     0.000 H  
ENDBRANCH   3   7
TORSDOF 1
ENDMDL
MODEL      125
REMARK 921   NORMALIZED FREE ENERGY PREDICTED BY IDOCK:   -2.64 KCAL/MOL
REMARK 922        TOTAL FREE ENERGY PREDICTED BY IDOCK:   -2.26 KCAL/MOL
REMARK 923 INTER-LIGAND FREE ENERGY PREDICTED BY IDOCK:   -2.77 KCAL/MOL
REMARK 924 INTRA-LIGAND FREE ENERGY PREDICTED BY IDOCK:    0.51 KCAL/MOL
REMARK 927      BINDING AFFINITY PREDICTED BY RF-SCORE:    0.00 PKD
ROOT
HETATM    1  O   UNL     1      -6.086  15.974  67.484  1.00  0.00    -0.145 OA 
HETATM    2  C   UNL     1      -7.362  16.340  67.218  1.00  0.00    -0.182 C  
HETATM    3  C   UNL     1      -7.862  17.530  68.028  1.00  0.00    -0.225 C  
HETATM    4  O   UNL     1      -8.040  15.744  66.391  1.00  0.00    -0.245 OA 
HETATM    5  S   UNL     1      -6.459  18.691  68.363  1.00  0.00    -0.231 SA 
HETATM    6  H   UNL     1      -6.916  19.776  69.102  1.00  0.00     0.000 H  
ENDROOT
BRANCH   3   7
HETATM    7  C   UNL     1      -9.032  18.255  67.340  1.00  0.00    -0.257 C  
HETATM    8  C   UNL     1      -8.521  19.147  66.213  1.00  0.00    -0.304 C  
HETATM    9  S   UNL     1     -10.143  19.195  68.484  1.00  0.00    -0.396 SA 
HETATM   10  O   UNL     1      -9.302  20.217  65.933  1.00  0.00    -0.318 OA 
HETATM   11  O   UNL     1      -7.538  18.873  65.535  1.00  0.00    -0.466 OA 
HETATM   12  H   UNL     1     -11.199  19.849  67.862  1.00  0.00     0.000 H  
ENDBRANCH   3   7
TORSDOF 1
ENDMDL
MODEL      126
REMARK 921   NORMALIZED FREE ENERGY PREDICTED BY IDOCK:   -2.61 KCAL/MOL
REMARK 922        TOTAL FREE ENERGY PREDICTED BY IDOCK:   -2.22 KCAL/MOL
REMARK 923 INTER-LIGAND FREE ENERGY PREDICTED BY IDOCK:   -2.60 KCAL/MOL
REMARK 924 INTRA-LIGAND FREE ENERGY PREDICTED BY IDOCK:    0.38 KCAL/MOL
REMARK 927      BINDING AFFINITY PREDICTED BY RF-SCORE:    0.00 PKD
ROOT
HETATM    1  O   UNL     1     -11.474   6.141  68.867  1.00  0.00    -0.305 OA 
HETATM    2  C   UNL     1     -11.269   6.268  70.200  1.00  0.00    -0.403 C  
HETATM    3  C   UNL     1     -10.327   5.231  70.799  1.00  0.00    -0.239 C  
HETATM    4  O   UNL     1     -11.812   7.153  70.849  1.00  0.00    -0.317 OA 
HETATM    5  S   UNL     1      -9.038   4.767  69.553  1.00  0.00    -0.112 SA 
HETATM    6  H   UNL     1      -8.179   3.821  70.100  1.00  0.00     0.000 H  
ENDROOT
BRANCH   3   7
HETATM    7  C   UNL     1      -9.684   5.714  72.111  1.00  0.00    -0.153 C  
HETATM    8  C   UNL     1     -10.712   5.721  73.238  1.00  0.00    -0.267 C  
HETATM    9  S   UNL     1      -8.809   7.339  71.994  1.00  0.00    -0.125 SA 
HETATM   10  O   UNL     1     -10.469   6.617  74.225  1.00  0.00    -0.344 OA 
HETATM   11  O   UNL     1     -11.631   4.916  73.313  1.00  0.00    -0.336 OA 
HETATM   12  H   UNL     1      -8.229   7.775  73.180  1.00  0.00     0.000 H  
ENDBRANCH   3   7
TORSDOF 1
ENDMDL
MODEL      127
REMARK 921   NORMALIZED FREE ENERGY PREDICTED BY IDOCK:   -2.61 KCAL/MOL
REMARK 922        TOTAL FREE ENERGY PREDICTED BY IDOCK:   -2.22 KCAL/MOL
REMARK 923 INTER-LIGAND FREE ENERGY PREDICTED BY IDOCK:   -2.75 KCAL/MOL
REMARK 924 INTRA-LIGAND FREE ENERGY PREDICTED BY IDOCK:    0.53 KCAL/MOL
REMARK 927      BINDING AFFINITY PREDICTED BY RF-SCORE:    0.00 PKD
ROOT
HETATM    1  O   UNL     1      -9.141  20.344  67.014  1.00  0.00    -0.359 OA 
HETATM    2  C   UNL     1      -9.175  19.429  68.011  1.00  0.00    -0.327 C  
HETATM    3  C   UNL     1     -10.289  18.396  67.886  1.00  0.00    -0.401 C  
HETATM    4  O   UNL     1      -8.366  19.453  68.929  1.00  0.00    -0.368 OA 
HETATM    5  S   UNL     1     -10.621  18.050  66.098  1.00  0.00    -0.143 SA 
HETATM    6  H   UNL     1     -11.636  17.108  65.985  1.00  0.00     0.000 H  
ENDROOT
BRANCH   3   7
HETATM    7  C   UNL     1      -9.973  17.101  68.655  1.00  0.00    -0.313 C  
HETATM    8  C   UNL     1      -8.950  16.263  67.895  1.00  0.00    -0.187 C  
HETATM    9  S   UNL     1     -11.454  16.091  69.115  1.00  0.00    -0.322 SA 
HETATM   10  O   UNL     1      -9.018  14.931  68.127  1.00  0.00    -0.167 OA 
HETATM   11  O   UNL     1      -8.062  16.752  67.207  1.00  0.00    -0.166 OA 
HETATM   12  H   UNL     1     -11.168  14.921  69.809  1.00  0.00     0.000 H  
ENDBRANCH   3   7
TORSDOF 1
ENDMDL
MODEL      128
REMARK 921   NORMALIZED FREE ENERGY PREDICTED BY IDOCK:   -2.60 KCAL/MOL
REMARK 922        TOTAL FREE ENERGY PREDICTED BY IDOCK:   -2.22 KCAL/MOL
REMARK 923 INTER-LIGAND FREE ENERGY PREDICTED BY IDOCK:   -2.66 KCAL/MOL
REMARK 924 INTRA-LIGAND FREE ENERGY PREDICTED BY IDOCK:    0.44 KCAL/MOL
REMARK 927      BINDING AFFINITY PREDICTED BY RF-SCORE:    0.00 PKD
ROOT
HETATM    1  O   UNL     1     -11.760  11.677  67.132  1.00  0.00    -0.566 OA 
HETATM    2  C   UNL     1     -11.188  11.076  68.202  1.00  0.00    -0.302 C  
HETATM    3  C   UNL     1     -10.598   9.700  67.917  1.00  0.00    -0.255 C  
HETATM    4  O   UNL     1     -11.164  11.615  69.301  1.00  0.00    -0.244 OA 
HETATM    5  S   UNL     1      -9.953   9.646  66.182  1.00  0.00    -0.257 SA 
HETATM    6  H   UNL     1      -9.415   8.391  65.923  1.00  0.00     0.000 H  
ENDROOT
BRANCH   3   7
HETATM    7  C   UNL     1      -9.507   9.311  68.929  1.00  0.00    -0.154 C  
HETATM    8  C   UNL     1     -10.115   9.073  70.307  1.00  0.00    -0.198 C  
HETATM    9  S   UNL     1      -8.081  10.487  69.023  1.00  0.00    -0.148 SA 
HETATM   10  O   UNL     1      -9.277   9.294  71.347  1.00  0.00    -0.282 OA 
HETATM   11  O   UNL     1     -11.240   8.616  70.474  1.00  0.00    -0.253 OA 
HETATM   12  H   UNL     1      -7.096  10.136  69.938  1.00  0.00     0.000 H  
ENDBRANCH   3   7
TORSDOF 1
ENDMDL
MODEL      129
REMARK 921   NORMALIZED FREE ENERGY PREDICTED BY IDOCK:   -2.59 KCAL/MOL
REMARK 922        TOTAL FREE ENERGY PREDICTED BY IDOCK:   -2.21 KCAL/MOL
REMARK 923 INTER-LIGAND FREE ENERGY PREDICTED BY IDOCK:   -2.72 KCAL/MOL
REMARK 924 INTRA-LIGAND FREE ENERGY PREDICTED BY IDOCK:    0.51 KCAL/MOL
REMARK 927      BINDING AFFINITY PREDICTED BY RF-SCORE:    0.00 PKD
ROOT
HETATM    1  O   UNL     1      -9.539  18.226  66.809  1.00  0.00    -0.277 OA 
HETATM    2  C   UNL     1      -9.739  17.284  67.761  1.00  0.00    -0.270 C  
HETATM    3  C   UNL     1     -10.646  16.135  67.336  1.00  0.00    -0.311 C  
HETATM    4  O   UNL     1      -9.224  17.373  68.868  1.00  0.00    -0.252 OA 
HETATM    5  S   UNL     1     -10.429  15.805  65.528  1.00  0.00    -0.418 SA 
HETATM    6  H   UNL     1     -11.256  14.758  65.141  1.00  0.00     0.000 H  
ENDROOT
BRANCH   3   7
HETATM    7  C   UNL     1     -10.406  14.862  68.167  1.00  0.00    -0.237 C  
HETATM    8  C   UNL     1      -9.177  14.116  67.659  1.00  0.00    -0.193 C  
HETATM    9  S   UNL     1     -11.866  13.734  68.299  1.00  0.00    -0.371 SA 
HETATM   10  O   UNL     1      -9.188  12.781  67.882  1.00  0.00    -0.189 OA 
HETATM   11  O   UNL     1      -8.201  14.680  67.178  1.00  0.00    -0.202 OA 
HETATM   12  H   UNL     1     -11.648  12.585  69.049  1.00  0.00     0.000 H  
ENDBRANCH   3   7
TORSDOF 1
ENDMDL
MODEL      130
REMARK 921   NORMALIZED FREE ENERGY PREDICTED BY IDOCK:   -2.59 KCAL/MOL
REMARK 922        TOTAL FREE ENERGY PREDICTED BY IDOCK:   -2.20 KCAL/MOL
REMARK 923 INTER-LIGAND FREE ENERGY PREDICTED BY IDOCK:   -2.72 KCAL/MOL
REMARK 924 INTRA-LIGAND FREE ENERGY PREDICTED BY IDOCK:    0.51 KCAL/MOL
REMARK 927      BINDING AFFINITY PREDICTED BY RF-SCORE:    0.00 PKD
ROOT
HETATM    1  O   UNL     1     -10.870  12.770  65.268  1.00  0.00    -0.281 OA 
HETATM    2  C   UNL     1     -10.728  13.997  65.822  1.00  0.00    -0.293 C  
HETATM    3  C   UNL     1     -11.211  14.103  67.264  1.00  0.00    -0.316 C  
HETATM    4  O   UNL     1     -10.249  14.932  65.192  1.00  0.00    -0.383 OA 
HETATM    5  S   UNL     1     -10.933  12.493  68.133  1.00  0.00    -0.244 SA 
HETATM    6  H   UNL     1     -11.375  12.589  69.448  1.00  0.00     0.000 H  
ENDROOT
BRANCH   3   7
HETATM    7  C   UNL     1     -10.546  15.266  68.020  1.00  0.00    -0.261 C  
HETATM    8  C   UNL     1      -9.130  14.889  68.443  1.00  0.00    -0.185 C  
HETATM    9  S   UNL     1     -11.519  15.919  69.451  1.00  0.00    -0.345 SA 
HETATM   10  O   UNL     1      -8.674  15.530  69.545  1.00  0.00    -0.261 OA 
HETATM   11  O   UNL     1      -8.410  14.145  67.788  1.00  0.00    -0.149 OA 
HETATM   12  H   UNL     1     -10.917  16.970  70.133  1.00  0.00     0.000 H  
ENDBRANCH   3   7
TORSDOF 1
ENDMDL
MODEL      131
REMARK 921   NORMALIZED FREE ENERGY PREDICTED BY IDOCK:   -2.59 KCAL/MOL
REMARK 922        TOTAL FREE ENERGY PREDICTED BY IDOCK:   -2.20 KCAL/MOL
REMARK 923 INTER-LIGAND FREE ENERGY PREDICTED BY IDOCK:   -2.71 KCAL/MOL
REMARK 924 INTRA-LIGAND FREE ENERGY PREDICTED BY IDOCK:    0.51 KCAL/MOL
REMARK 927      BINDING AFFINITY PREDICTED BY RF-SCORE:    0.00 PKD
ROOT
HETATM    1  O   UNL     1      -9.072   8.702  72.482  1.00  0.00    -0.322 OA 
HETATM    2  C   UNL     1      -8.898   8.957  71.164  1.00  0.00    -0.237 C  
HETATM    3  C   UNL     1      -9.875   8.237  70.243  1.00  0.00    -0.184 C  
HETATM    4  O   UNL     1      -8.016   9.709  70.770  1.00  0.00    -0.288 OA 
HETATM    5  S   UNL     1     -11.508   8.047  71.093  1.00  0.00    -0.278 SA 
HETATM    6  H   UNL     1     -12.399   7.389  70.253  1.00  0.00     0.000 H  
ENDROOT
BRANCH   3   7
HETATM    7  C   UNL     1     -10.032   8.948  68.887  1.00  0.00    -0.190 C  
HETATM    8  C   UNL     1     -10.974  10.140  69.014  1.00  0.00    -0.226 C  
HETATM    9  S   UNL     1     -10.535   7.847  67.488  1.00  0.00    -0.248 SA 
HETATM   10  O   UNL     1     -11.628  10.474  67.877  1.00  0.00    -0.461 OA 
HETATM   11  O   UNL     1     -11.063  10.818  70.031  1.00  0.00    -0.279 OA 
HETATM   12  H   UNL     1     -10.677   8.489  66.263  1.00  0.00     0.000 H  
ENDBRANCH   3   7
TORSDOF 1
ENDMDL
MODEL      132
REMARK 921   NORMALIZED FREE ENERGY PREDICTED BY IDOCK:   -2.58 KCAL/MOL
REMARK 922        TOTAL FREE ENERGY PREDICTED BY IDOCK:   -2.20 KCAL/MOL
REMARK 923 INTER-LIGAND FREE ENERGY PREDICTED BY IDOCK:   -2.59 KCAL/MOL
REMARK 924 INTRA-LIGAND FREE ENERGY PREDICTED BY IDOCK:    0.39 KCAL/MOL
REMARK 927      BINDING AFFINITY PREDICTED BY RF-SCORE:    0.00 PKD
ROOT
HETATM    1  O   UNL     1     -12.352  10.979  68.740  1.00  0.00    -0.533 OA 
HETATM    2  C   UNL     1     -11.260  10.856  67.949  1.00  0.00    -0.321 C  
HETATM    3  C   UNL     1     -10.780  12.160  67.323  1.00  0.00    -0.229 C  
HETATM    4  O   UNL     1     -10.721   9.772  67.766  1.00  0.00    -0.255 OA 
HETATM    5  S   UNL     1     -11.118  13.567  68.478  1.00  0.00    -0.287 SA 
HETATM    6  H   UNL     1     -10.680  14.756  67.906  1.00  0.00     0.000 H  
ENDROOT
BRANCH   3   7
HETATM    7  C   UNL     1      -9.293  12.107  66.930  1.00  0.00    -0.203 C  
HETATM    8  C   UNL     1      -9.089  11.192  65.727  1.00  0.00    -0.206 C  
HETATM    9  S   UNL     1      -8.142  11.664  68.309  1.00  0.00    -0.155 SA 
HETATM   10  O   UNL     1      -7.865  10.619  65.647  1.00  0.00    -0.157 OA 
HETATM   11  O   UNL     1      -9.922  11.058  64.839  1.00  0.00    -0.245 OA 
HETATM   12  H   UNL     1      -6.799  11.616  67.954  1.00  0.00     0.000 H  
ENDBRANCH   3   7
TORSDOF 1
ENDMDL
MODEL      133
REMARK 921   NORMALIZED FREE ENERGY PREDICTED BY IDOCK:   -2.57 KCAL/MOL
REMARK 922        TOTAL FREE ENERGY PREDICTED BY IDOCK:   -2.19 KCAL/MOL
REMARK 923 INTER-LIGAND FREE ENERGY PREDICTED BY IDOCK:   -2.57 KCAL/MOL
REMARK 924 INTRA-LIGAND FREE ENERGY PREDICTED BY IDOCK:    0.38 KCAL/MOL
REMARK 927      BINDING AFFINITY PREDICTED BY RF-SCORE:    0.00 PKD
ROOT
HETATM    1  O   UNL     1     -12.088  11.101  68.320  1.00  0.00    -0.620 OA 
HETATM    2  C   UNL     1     -11.220  10.168  68.779  1.00  0.00    -0.164 C  
HETATM    3  C   UNL     1     -10.847  10.317  70.249  1.00  0.00    -0.286 C  
HETATM    4  O   UNL     1     -10.783   9.288  68.049  1.00  0.00    -0.232 OA 
HETATM    5  S   UNL     1     -12.286  11.000  71.191  1.00  0.00    -0.331 SA 
HETATM    6  H   UNL     1     -11.945  11.135  72.532  1.00  0.00     0.000 H  
ENDROOT
BRANCH   3   7
HETATM    7  C   UNL     1     -10.356   8.994  70.864  1.00  0.00    -0.256 C  
HETATM    8  C   UNL     1      -8.888   8.758  70.523  1.00  0.00    -0.176 C  
HETATM    9  S   UNL     1     -11.385   7.515  70.445  1.00  0.00    -0.188 SA 
HETATM   10  O   UNL     1      -8.513   7.458  70.488  1.00  0.00    -0.133 OA 
HETATM   11  O   UNL     1      -8.076   9.666  70.392  1.00  0.00    -0.180 OA 
HETATM   12  H   UNL     1     -10.942   6.321  71.000  1.00  0.00     0.000 H  
ENDBRANCH   3   7
TORSDOF 1
ENDMDL
MODEL      134
REMARK 921   NORMALIZED FREE ENERGY PREDICTED BY IDOCK:   -2.57 KCAL/MOL
REMARK 922        TOTAL FREE ENERGY PREDICTED BY IDOCK:   -2.18 KCAL/MOL
REMARK 923 INTER-LIGAND FREE ENERGY PREDICTED BY IDOCK:   -2.54 KCAL/MOL
REMARK 924 INTRA-LIGAND FREE ENERGY PREDICTED BY IDOCK:    0.36 KCAL/MOL
REMARK 927      BINDING AFFINITY PREDICTED BY RF-SCORE:    0.00 PKD
ROOT
HETATM    1  O   UNL     1      -8.708  16.446  68.850  1.00  0.00    -0.238 OA 
HETATM    2  C   UNL     1      -7.913  17.275  68.132  1.00  0.00    -0.223 C  
HETATM    3  C   UNL     1      -8.663  18.273  67.258  1.00  0.00    -0.255 C  
HETATM    4  O   UNL     1      -6.693  17.206  68.196  1.00  0.00    -0.156 OA 
HETATM    5  S   UNL     1     -10.251  18.752  68.080  1.00  0.00    -0.387 SA 
HETATM    6  H   UNL     1     -10.934  19.663  67.282  1.00  0.00     0.000 H  
ENDROOT
BRANCH   3   7
HETATM    7  C   UNL     1      -7.813  19.512  66.924  1.00  0.00    -0.266 C  
HETATM    8  C   UNL     1      -6.781  19.179  65.852  1.00  0.00    -0.251 C  
HETATM    9  S   UNL     1      -7.021  20.325  68.385  1.00  0.00    -0.185 SA 
HETATM   10  O   UNL     1      -5.660  19.939  65.884  1.00  0.00    -0.169 OA 
HETATM   11  O   UNL     1      -6.979  18.363  64.960  1.00  0.00    -0.411 OA 
HETATM   12  H   UNL     1      -6.253  21.444  68.083  1.00  0.00     0.000 H  
ENDBRANCH   3   7
TORSDOF 1
ENDMDL
MODEL      135
REMARK 921   NORMALIZED FREE ENERGY PREDICTED BY IDOCK:   -2.55 KCAL/MOL
REMARK 922        TOTAL FREE ENERGY PREDICTED BY IDOCK:   -2.17 KCAL/MOL
REMARK 923 INTER-LIGAND FREE ENERGY PREDICTED BY IDOCK:   -2.68 KCAL/MOL
REMARK 924 INTRA-LIGAND FREE ENERGY PREDICTED BY IDOCK:    0.51 KCAL/MOL
REMARK 927      BINDING AFFINITY PREDICTED BY RF-SCORE:    0.00 PKD
ROOT
HETATM    1  O   UNL     1      -6.906  14.192  67.291  1.00  0.00    -0.226 OA 
HETATM    2  C   UNL     1      -7.922  13.469  67.819  1.00  0.00    -0.168 C  
HETATM    3  C   UNL     1      -9.280  14.162  67.783  1.00  0.00    -0.193 C  
HETATM    4  O   UNL     1      -7.738  12.352  68.285  1.00  0.00    -0.125 OA 
HETATM    5  S   UNL     1      -9.392  15.233  66.278  1.00  0.00    -0.319 SA 
HETATM    6  H   UNL     1     -10.630  15.865  66.246  1.00  0.00     0.000 H  
ENDROOT
BRANCH   3   7
HETATM    7  C   UNL     1     -10.448  13.162  67.844  1.00  0.00    -0.240 C  
HETATM    8  C   UNL     1     -10.686  12.533  66.475  1.00  0.00    -0.240 C  
HETATM    9  S   UNL     1     -12.017  13.844  68.547  1.00  0.00    -0.312 SA 
HETATM   10  O   UNL     1     -11.955  12.120  66.250  1.00  0.00    -0.605 OA 
HETATM   11  O   UNL     1      -9.787  12.316  65.671  1.00  0.00    -0.250 OA 
HETATM   12  H   UNL     1     -13.072  12.941  68.602  1.00  0.00     0.000 H  
ENDBRANCH   3   7
TORSDOF 1
ENDMDL
MODEL      136
REMARK 921   NORMALIZED FREE ENERGY PREDICTED BY IDOCK:   -2.55 KCAL/MOL
REMARK 922        TOTAL FREE ENERGY PREDICTED BY IDOCK:   -2.16 KCAL/MOL
REMARK 923 INTER-LIGAND FREE ENERGY PREDICTED BY IDOCK:   -2.53 KCAL/MOL
REMARK 924 INTRA-LIGAND FREE ENERGY PREDICTED BY IDOCK:    0.36 KCAL/MOL
REMARK 927      BINDING AFFINITY PREDICTED BY RF-SCORE:    0.00 PKD
ROOT
HETATM    1  O   UNL     1     -10.410   6.883  67.648  1.00  0.00    -0.167 OA 
HETATM    2  C   UNL     1     -10.760   7.280  68.894  1.00  0.00    -0.150 C  
HETATM    3  C   UNL     1     -10.982   6.143  69.884  1.00  0.00    -0.389 C  
HETATM    4  O   UNL     1     -10.884   8.465  69.176  1.00  0.00    -0.155 OA 
HETATM    5  S   UNL     1      -9.845   4.738  69.485  1.00  0.00    -0.216 SA 
HETATM    6  H   UNL     1     -10.048   3.701  70.388  1.00  0.00     0.000 H  
ENDROOT
BRANCH   3   7
HETATM    7  C   UNL     1     -10.813   6.599  71.344  1.00  0.00    -0.242 C  
HETATM    8  C   UNL     1     -12.060   7.333  71.824  1.00  0.00    -0.319 C  
HETATM    9  S   UNL     1      -9.286   7.589  71.676  1.00  0.00    -0.134 SA 
HETATM   10  O   UNL     1     -11.846   8.241  72.805  1.00  0.00    -0.388 OA 
HETATM   11  O   UNL     1     -13.190   7.059  71.436  1.00  0.00    -0.365 OA 
HETATM   12  H   UNL     1      -9.133   8.001  72.995  1.00  0.00     0.000 H  
ENDBRANCH   3   7
TORSDOF 1
ENDMDL
MODEL      137
REMARK 921   NORMALIZED FREE ENERGY PREDICTED BY IDOCK:   -2.55 KCAL/MOL
REMARK 922        TOTAL FREE ENERGY PREDICTED BY IDOCK:   -2.16 KCAL/MOL
REMARK 923 INTER-LIGAND FREE ENERGY PREDICTED BY IDOCK:   -2.54 KCAL/MOL
REMARK 924 INTRA-LIGAND FREE ENERGY PREDICTED BY IDOCK:    0.37 KCAL/MOL
REMARK 927      BINDING AFFINITY PREDICTED BY RF-SCORE:    0.00 PKD
ROOT
HETATM    1  O   UNL     1     -12.643   8.758  71.648  1.00  0.00    -0.316 OA 
HETATM    2  C   UNL     1     -12.050   7.610  71.242  1.00  0.00    -0.314 C  
HETATM    3  C   UNL     1     -10.836   7.807  70.343  1.00  0.00    -0.244 C  
HETATM    4  O   UNL     1     -12.478   6.514  71.582  1.00  0.00    -0.336 OA 
HETATM    5  S   UNL     1      -9.952   9.362  70.821  1.00  0.00    -0.271 SA 
HETATM    6  H   UNL     1      -8.844   9.541  70.001  1.00  0.00     0.000 H  
ENDROOT
BRANCH   3   7
HETATM    7  C   UNL     1      -9.887   6.596  70.370  1.00  0.00    -0.175 C  
HETATM    8  C   UNL     1     -10.399   5.494  69.448  1.00  0.00    -0.278 C  
HETATM    9  S   UNL     1      -9.517   5.937  72.058  1.00  0.00    -0.149 SA 
HETATM   10  O   UNL     1     -10.025   4.240  69.797  1.00  0.00    -0.222 OA 
HETATM   11  O   UNL     1     -11.013   5.718  68.412  1.00  0.00    -0.233 OA 
HETATM   12  H   UNL     1      -8.660   4.844  72.082  1.00  0.00     0.000 H  
ENDBRANCH   3   7
TORSDOF 1
ENDMDL
MODEL      138
REMARK 921   NORMALIZED FREE ENERGY PREDICTED BY IDOCK:   -2.54 KCAL/MOL
REMARK 922        TOTAL FREE ENERGY PREDICTED BY IDOCK:   -2.15 KCAL/MOL
REMARK 923 INTER-LIGAND FREE ENERGY PREDICTED BY IDOCK:   -2.51 KCAL/MOL
REMARK 924 INTRA-LIGAND FREE ENERGY PREDICTED BY IDOCK:    0.36 KCAL/MOL
REMARK 927      BINDING AFFINITY PREDICTED BY RF-SCORE:    0.00 PKD
ROOT
HETATM    1  O   UNL     1     -10.538   8.684  67.385  1.00  0.00    -0.274 OA 
HETATM    2  C   UNL     1     -10.109   8.762  68.667  1.00  0.00    -0.189 C  
HETATM    3  C   UNL     1     -10.651   7.673  69.585  1.00  0.00    -0.243 C  
HETATM    4  O   UNL     1      -9.350   9.650  69.034  1.00  0.00    -0.148 OA 
HETATM    5  S   UNL     1     -10.885   6.108  68.624  1.00  0.00    -0.331 SA 
HETATM    6  H   UNL     1     -11.379   5.115  69.462  1.00  0.00     0.000 H  
ENDROOT
BRANCH   3   7
HETATM    7  C   UNL     1      -9.753   7.444  70.813  1.00  0.00    -0.171 C  
HETATM    8  C   UNL     1      -9.968   8.544  71.846  1.00  0.00    -0.294 C  
HETATM    9  S   UNL     1      -7.956   7.229  70.430  1.00  0.00    -0.105 SA 
HETATM   10  O   UNL     1      -8.904   8.791  72.647  1.00  0.00    -0.394 OA 
HETATM   11  O   UNL     1     -11.046   9.099  72.021  1.00  0.00    -0.357 OA 
HETATM   12  H   UNL     1      -7.145   7.022  71.540  1.00  0.00     0.000 H  
ENDBRANCH   3   7
TORSDOF 1
ENDMDL
MODEL      139
REMARK 921   NORMALIZED FREE ENERGY PREDICTED BY IDOCK:   -2.53 KCAL/MOL
REMARK 922        TOTAL FREE ENERGY PREDICTED BY IDOCK:   -2.15 KCAL/MOL
REMARK 923 INTER-LIGAND FREE ENERGY PREDICTED BY IDOCK:   -2.66 KCAL/MOL
REMARK 924 INTRA-LIGAND FREE ENERGY PREDICTED BY IDOCK:    0.51 KCAL/MOL
REMARK 927      BINDING AFFINITY PREDICTED BY RF-SCORE:    0.00 PKD
ROOT
HETATM    1  O   UNL     1      -5.886  19.910  67.563  1.00  0.00    -0.179 OA 
HETATM    2  C   UNL     1      -6.997  19.600  68.271  1.00  0.00    -0.297 C  
HETATM    3  C   UNL     1      -8.045  18.811  67.496  1.00  0.00    -0.256 C  
HETATM    4  O   UNL     1      -7.127  19.942  69.440  1.00  0.00    -0.318 OA 
HETATM    5  S   UNL     1      -7.209  17.703  66.270  1.00  0.00    -0.321 SA 
HETATM    6  H   UNL     1      -8.165  16.983  65.563  1.00  0.00     0.000 H  
ENDROOT
BRANCH   3   7
HETATM    7  C   UNL     1      -8.978  18.012  68.423  1.00  0.00    -0.279 C  
HETATM    8  C   UNL     1      -8.294  16.735  68.900  1.00  0.00    -0.222 C  
HETATM    9  S   UNL     1     -10.649  17.649  67.715  1.00  0.00    -0.333 SA 
HETATM   10  O   UNL     1      -9.134  15.719  69.210  1.00  0.00    -0.238 OA 
HETATM   11  O   UNL     1      -7.087  16.654  69.094  1.00  0.00    -0.213 OA 
HETATM   12  H   UNL     1     -11.491  16.927  68.552  1.00  0.00     0.000 H  
ENDBRANCH   3   7
TORSDOF 1
ENDMDL
MODEL      140
REMARK 921   NORMALIZED FREE ENERGY PREDICTED BY IDOCK:   -2.53 KCAL/MOL
REMARK 922        TOTAL FREE ENERGY PREDICTED BY IDOCK:   -2.15 KCAL/MOL
REMARK 923 INTER-LIGAND FREE ENERGY PREDICTED BY IDOCK:   -2.58 KCAL/MOL
REMARK 924 INTRA-LIGAND FREE ENERGY PREDICTED BY IDOCK:    0.43 KCAL/MOL
REMARK 927      BINDING AFFINITY PREDICTED BY RF-SCORE:    0.00 PKD
ROOT
HETATM    1  O   UNL     1      -9.968  16.015  64.871  1.00  0.00    -0.328 OA 
HETATM    2  C   UNL     1      -9.510  15.833  66.132  1.00  0.00    -0.340 C  
HETATM    3  C   UNL     1     -10.561  15.352  67.125  1.00  0.00    -0.305 C  
HETATM    4  O   UNL     1      -8.341  16.048  66.425  1.00  0.00    -0.293 OA 
HETATM    5  S   UNL     1     -11.786  14.266  66.260  1.00  0.00    -0.400 SA 
HETATM    6  H   UNL     1     -12.744  13.827  67.166  1.00  0.00     0.000 H  
ENDROOT
BRANCH   3   7
HETATM    7  C   UNL     1      -9.936  14.633  68.334  1.00  0.00    -0.227 C  
HETATM    8  C   UNL     1      -9.173  15.621  69.209  1.00  0.00    -0.269 C  
HETATM    9  S   UNL     1      -8.888  13.169  67.909  1.00  0.00    -0.206 SA 
HETATM   10  O   UNL     1      -8.153  15.085  69.920  1.00  0.00    -0.072 OA 
HETATM   11  O   UNL     1      -9.509  16.791  69.349  1.00  0.00    -0.140 OA 
HETATM   12  H   UNL     1      -8.323  12.520  69.000  1.00  0.00     0.000 H  
ENDBRANCH   3   7
TORSDOF 1
ENDMDL
MODEL      141
REMARK 921   NORMALIZED FREE ENERGY PREDICTED BY IDOCK:   -2.51 KCAL/MOL
REMARK 922        TOTAL FREE ENERGY PREDICTED BY IDOCK:   -2.12 KCAL/MOL
REMARK 923 INTER-LIGAND FREE ENERGY PREDICTED BY IDOCK:   -2.63 KCAL/MOL
REMARK 924 INTRA-LIGAND FREE ENERGY PREDICTED BY IDOCK:    0.51 KCAL/MOL
REMARK 927      BINDING AFFINITY PREDICTED BY RF-SCORE:    0.00 PKD
ROOT
HETATM    1  O   UNL     1      -8.145  10.725  65.510  1.00  0.00    -0.153 OA 
HETATM    2  C   UNL     1      -9.453  10.748  65.859  1.00  0.00    -0.197 C  
HETATM    3  C   UNL     1      -9.756  11.531  67.131  1.00  0.00    -0.183 C  
HETATM    4  O   UNL     1     -10.303  10.176  65.190  1.00  0.00    -0.257 OA 
HETATM    5  S   UNL     1      -8.578  12.950  67.286  1.00  0.00    -0.204 SA 
HETATM    6  H   UNL     1      -8.855  13.663  68.447  1.00  0.00     0.000 H  
ENDROOT
BRANCH   3   7
HETATM    7  C   UNL     1     -11.217  12.011  67.187  1.00  0.00    -0.316 C  
HETATM    8  C   UNL     1     -11.401  13.265  66.340  1.00  0.00    -0.312 C  
HETATM    9  S   UNL     1     -11.889  12.254  68.894  1.00  0.00    -0.269 SA 
HETATM   10  O   UNL     1     -12.406  14.081  66.738  1.00  0.00    -0.439 OA 
HETATM   11  O   UNL     1     -10.765  13.481  65.315  1.00  0.00    -0.298 OA 
HETATM   12  H   UNL     1     -13.208  12.688  68.944  1.00  0.00     0.000 H  
ENDBRANCH   3   7
TORSDOF 1
ENDMDL
MODEL      142
REMARK 921   NORMALIZED FREE ENERGY PREDICTED BY IDOCK:   -2.51 KCAL/MOL
REMARK 922        TOTAL FREE ENERGY PREDICTED BY IDOCK:   -2.12 KCAL/MOL
REMARK 923 INTER-LIGAND FREE ENERGY PREDICTED BY IDOCK:   -2.51 KCAL/MOL
REMARK 924 INTRA-LIGAND FREE ENERGY PREDICTED BY IDOCK:    0.39 KCAL/MOL
REMARK 927      BINDING AFFINITY PREDICTED BY RF-SCORE:    0.00 PKD
ROOT
HETATM    1  O   UNL     1      -7.650   9.039  70.477  1.00  0.00    -0.082 OA 
HETATM    2  C   UNL     1      -8.923   8.619  70.663  1.00  0.00    -0.171 C  
HETATM    3  C   UNL     1      -9.081   7.108  70.791  1.00  0.00    -0.153 C  
HETATM    4  O   UNL     1      -9.856   9.410  70.718  1.00  0.00    -0.264 OA 
HETATM    5  S   UNL     1      -7.583   6.392  71.610  1.00  0.00    -0.095 SA 
HETATM    6  H   UNL     1      -7.728   5.014  71.725  1.00  0.00     0.000 H  
ENDROOT
BRANCH   3   7
HETATM    7  C   UNL     1     -10.367   6.716  71.540  1.00  0.00    -0.209 C  
HETATM    8  C   UNL     1     -11.562   6.725  70.593  1.00  0.00    -0.370 C  
HETATM    9  S   UNL     1     -10.712   7.711  73.061  1.00  0.00    -0.383 SA 
HETATM   10  O   UNL     1     -12.756   6.968  71.184  1.00  0.00    -0.381 OA 
HETATM   11  O   UNL     1     -11.479   6.433  69.406  1.00  0.00    -0.401 OA 
HETATM   12  H   UNL     1     -11.873   7.357  73.737  1.00  0.00     0.000 H  
ENDBRANCH   3   7
TORSDOF 1
ENDMDL
MODEL      143
REMARK 921   NORMALIZED FREE ENERGY PREDICTED BY IDOCK:   -2.51 KCAL/MOL
REMARK 922        TOTAL FREE ENERGY PREDICTED BY IDOCK:   -2.12 KCAL/MOL
REMARK 923 INTER-LIGAND FREE ENERGY PREDICTED BY IDOCK:   -2.70 KCAL/MOL
REMARK 924 INTRA-LIGAND FREE ENERGY PREDICTED BY IDOCK:    0.58 KCAL/MOL
REMARK 927      BINDING AFFINITY PREDICTED BY RF-SCORE:    0.00 PKD
ROOT
HETATM    1  O   UNL     1      -9.692   9.219  65.629  1.00  0.00    -0.284 OA 
HETATM    2  C   UNL     1     -10.084   8.699  66.816  1.00  0.00    -0.296 C  
HETATM    3  C   UNL     1      -9.477   9.379  68.038  1.00  0.00    -0.133 C  
HETATM    4  O   UNL     1     -10.864   7.757  66.876  1.00  0.00    -0.311 OA 
HETATM    5  S   UNL     1      -9.217  11.177  67.686  1.00  0.00    -0.153 SA 
HETATM    6  H   UNL     1      -8.664  11.796  68.801  1.00  0.00     0.000 H  
ENDROOT
BRANCH   3   7
HETATM    7  C   UNL     1     -10.330   9.176  69.303  1.00  0.00    -0.216 C  
HETATM    8  C   UNL     1     -11.399  10.259  69.406  1.00  0.00    -0.221 C  
HETATM    9  S   UNL     1      -9.365   9.038  70.875  1.00  0.00    -0.274 SA 
HETATM   10  O   UNL     1     -11.804  10.542  70.667  1.00  0.00    -0.305 OA 
HETATM   11  O   UNL     1     -11.935  10.767  68.429  1.00  0.00    -0.508 OA 
HETATM   12  H   UNL     1     -10.136   8.856  72.017  1.00  0.00     0.000 H  
ENDBRANCH   3   7
TORSDOF 1
ENDMDL
MODEL      144
REMARK 921   NORMALIZED FREE ENERGY PREDICTED BY IDOCK:   -2.50 KCAL/MOL
REMARK 922        TOTAL FREE ENERGY PREDICTED BY IDOCK:   -2.11 KCAL/MOL
REMARK 923 INTER-LIGAND FREE ENERGY PREDICTED BY IDOCK:   -2.47 KCAL/MOL
REMARK 924 INTRA-LIGAND FREE ENERGY PREDICTED BY IDOCK:    0.36 KCAL/MOL
REMARK 927      BINDING AFFINITY PREDICTED BY RF-SCORE:    0.00 PKD
ROOT
HETATM    1  O   UNL     1      -9.101   7.835  70.913  1.00  0.00    -0.146 OA 
HETATM    2  C   UNL     1      -9.911   8.678  70.231  1.00  0.00    -0.178 C  
HETATM    3  C   UNL     1      -9.313  10.054  69.962  1.00  0.00    -0.119 C  
HETATM    4  O   UNL     1     -11.031   8.339  69.872  1.00  0.00    -0.239 OA 
HETATM    5  S   UNL     1      -7.482   9.904  69.734  1.00  0.00    -0.157 SA 
HETATM    6  H   UNL     1      -6.937  11.159  69.490  1.00  0.00     0.000 H  
ENDROOT
BRANCH   3   7
HETATM    7  C   UNL     1      -9.968  10.752  68.758  1.00  0.00    -0.193 C  
HETATM    8  C   UNL     1     -11.364  11.247  69.121  1.00  0.00    -0.282 C  
HETATM    9  S   UNL     1      -9.999   9.749  67.203  1.00  0.00    -0.211 SA 
HETATM   10  O   UNL     1     -12.226  11.338  68.080  1.00  0.00    -0.621 OA 
HETATM   11  O   UNL     1     -11.667  11.635  70.242  1.00  0.00    -0.325 OA 
HETATM   12  H   UNL     1     -10.591  10.379  66.115  1.00  0.00     0.000 H  
ENDBRANCH   3   7
TORSDOF 1
ENDMDL
MODEL      145
REMARK 921   NORMALIZED FREE ENERGY PREDICTED BY IDOCK:   -2.49 KCAL/MOL
REMARK 922        TOTAL FREE ENERGY PREDICTED BY IDOCK:   -2.11 KCAL/MOL
REMARK 923 INTER-LIGAND FREE ENERGY PREDICTED BY IDOCK:   -2.52 KCAL/MOL
REMARK 924 INTRA-LIGAND FREE ENERGY PREDICTED BY IDOCK:    0.42 KCAL/MOL
REMARK 927      BINDING AFFINITY PREDICTED BY RF-SCORE:    0.00 PKD
ROOT
HETATM    1  O   UNL     1     -11.972  15.372  68.996  1.00  0.00    -0.337 OA 
HETATM    2  C   UNL     1     -10.721  14.960  68.682  1.00  0.00    -0.250 C  
HETATM    3  C   UNL     1     -10.661  13.856  67.632  1.00  0.00    -0.249 C  
HETATM    4  O   UNL     1      -9.734  15.449  69.216  1.00  0.00    -0.234 OA 
HETATM    5  S   UNL     1     -12.058  14.059  66.435  1.00  0.00    -0.450 SA 
HETATM    6  H   UNL     1     -12.003  13.053  65.478  1.00  0.00     0.000 H  
ENDROOT
BRANCH   3   7
HETATM    7  C   UNL     1      -9.306  13.814  66.905  1.00  0.00    -0.261 C  
HETATM    8  C   UNL     1      -8.299  12.987  67.697  1.00  0.00    -0.181 C  
HETATM    9  S   UNL     1      -8.610  15.471  66.465  1.00  0.00    -0.241 SA 
HETATM   10  O   UNL     1      -7.003  13.329  67.505  1.00  0.00    -0.152 OA 
HETATM   11  O   UNL     1      -8.614  12.019  68.378  1.00  0.00    -0.168 OA 
HETATM   12  H   UNL     1      -7.386  15.433  65.808  1.00  0.00     0.000 H  
ENDBRANCH   3   7
TORSDOF 1
ENDMDL
MODEL      146
REMARK 921   NORMALIZED FREE ENERGY PREDICTED BY IDOCK:   -2.48 KCAL/MOL
REMARK 922        TOTAL FREE ENERGY PREDICTED BY IDOCK:   -2.09 KCAL/MOL
REMARK 923 INTER-LIGAND FREE ENERGY PREDICTED BY IDOCK:   -2.74 KCAL/MOL
REMARK 924 INTRA-LIGAND FREE ENERGY PREDICTED BY IDOCK:    0.65 KCAL/MOL
REMARK 927      BINDING AFFINITY PREDICTED BY RF-SCORE:    0.00 PKD
ROOT
HETATM    1  O   UNL     1      -8.658   7.836  69.960  1.00  0.00    -0.136 OA 
HETATM    2  C   UNL     1      -9.967   8.116  70.158  1.00  0.00    -0.187 C  
HETATM    3  C   UNL     1     -10.464   7.862  71.576  1.00  0.00    -0.210 C  
HETATM    4  O   UNL     1     -10.675   8.537  69.252  1.00  0.00    -0.213 OA 
HETATM    5  S   UNL     1      -9.099   8.194  72.783  1.00  0.00    -0.269 SA 
HETATM    6  H   UNL     1      -9.553   7.962  74.076  1.00  0.00     0.000 H  
ENDROOT
BRANCH   3   7
HETATM    7  C   UNL     1     -11.718   8.687  71.913  1.00  0.00    -0.352 C  
HETATM    8  C   UNL     1     -12.977   7.845  71.733  1.00  0.00    -0.325 C  
HETATM    9  S   UNL     1     -11.855  10.295  71.009  1.00  0.00    -0.370 SA 
HETATM   10  O   UNL     1     -14.095   8.548  71.435  1.00  0.00    -0.369 OA 
HETATM   11  O   UNL     1     -13.012   6.639  71.941  1.00  0.00    -0.306 OA 
HETATM   12  H   UNL     1     -12.988  11.040  71.313  1.00  0.00     0.000 H  
ENDBRANCH   3   7
TORSDOF 1
ENDMDL
MODEL      147
REMARK 921   NORMALIZED FREE ENERGY PREDICTED BY IDOCK:   -2.47 KCAL/MOL
REMARK 922        TOTAL FREE ENERGY PREDICTED BY IDOCK:   -2.08 KCAL/MOL
REMARK 923 INTER-LIGAND FREE ENERGY PREDICTED BY IDOCK:   -2.45 KCAL/MOL
REMARK 924 INTRA-LIGAND FREE ENERGY PREDICTED BY IDOCK:    0.37 KCAL/MOL
REMARK 927      BINDING AFFINITY PREDICTED BY RF-SCORE:    0.00 PKD
ROOT
HETATM    1  O   UNL     1     -10.098   8.103  67.683  1.00  0.00    -0.179 OA 
HETATM    2  C   UNL     1     -10.348   7.971  69.007  1.00  0.00    -0.218 C  
HETATM    3  C   UNL     1      -9.646   8.996  69.891  1.00  0.00    -0.183 C  
HETATM    4  O   UNL     1     -11.079   7.087  69.435  1.00  0.00    -0.222 OA 
HETATM    5  S   UNL     1      -9.493  10.601  68.981  1.00  0.00    -0.164 SA 
HETATM    6  H   UNL     1      -8.853  11.536  69.787  1.00  0.00     0.000 H  
ENDROOT
BRANCH   3   7
HETATM    7  C   UNL     1     -10.357   9.187  71.242  1.00  0.00    -0.334 C  
HETATM    8  C   UNL     1     -10.132   7.976  72.141  1.00  0.00    -0.234 C  
HETATM    9  S   UNL     1     -12.156   9.603  71.119  1.00  0.00    -0.385 SA 
HETATM   10  O   UNL     1     -11.109   7.752  73.051  1.00  0.00    -0.398 OA 
HETATM   11  O   UNL     1      -9.104   7.310  72.124  1.00  0.00    -0.132 OA 
HETATM   12  H   UNL     1     -12.798   9.775  72.340  1.00  0.00     0.000 H  
ENDBRANCH   3   7
TORSDOF 1
ENDMDL
MODEL      148
REMARK 921   NORMALIZED FREE ENERGY PREDICTED BY IDOCK:   -2.47 KCAL/MOL
REMARK 922        TOTAL FREE ENERGY PREDICTED BY IDOCK:   -2.07 KCAL/MOL
REMARK 923 INTER-LIGAND FREE ENERGY PREDICTED BY IDOCK:   -2.59 KCAL/MOL
REMARK 924 INTRA-LIGAND FREE ENERGY PREDICTED BY IDOCK:    0.51 KCAL/MOL
REMARK 927      BINDING AFFINITY PREDICTED BY RF-SCORE:    0.00 PKD
ROOT
HETATM    1  O   UNL     1     -12.048   6.930  69.723  1.00  0.00    -0.035 OA 
HETATM    2  C   UNL     1     -11.911   7.353  71.002  1.00  0.00    -0.306 C  
HETATM    3  C   UNL     1     -10.985   6.497  71.858  1.00  0.00    -0.250 C  
HETATM    4  O   UNL     1     -12.499   8.345  71.414  1.00  0.00    -0.303 OA 
HETATM    5  S   UNL     1      -9.629   5.803  70.806  1.00  0.00    -0.175 SA 
HETATM    6  H   UNL     1      -8.785   5.022  71.587  1.00  0.00     0.000 H  
ENDROOT
BRANCH   3   7
HETATM    7  C   UNL     1     -10.415   7.274  73.058  1.00  0.00    -0.310 C  
HETATM    8  C   UNL     1      -9.283   8.193  72.612  1.00  0.00    -0.263 C  
HETATM    9  S   UNL     1      -9.897   6.221  74.489  1.00  0.00    -0.346 SA 
HETATM   10  O   UNL     1      -8.362   8.467  73.566  1.00  0.00    -0.381 OA 
HETATM   11  O   UNL     1      -9.251   8.733  71.513  1.00  0.00    -0.220 OA 
HETATM   12  H   UNL     1      -9.383   6.923  75.572  1.00  0.00     0.000 H  
ENDBRANCH   3   7
TORSDOF 1
ENDMDL
MODEL      149
REMARK 921   NORMALIZED FREE ENERGY PREDICTED BY IDOCK:   -2.46 KCAL/MOL
REMARK 922        TOTAL FREE ENERGY PREDICTED BY IDOCK:   -2.07 KCAL/MOL
REMARK 923 INTER-LIGAND FREE ENERGY PREDICTED BY IDOCK:   -2.45 KCAL/MOL
REMARK 924 INTRA-LIGAND FREE ENERGY PREDICTED BY IDOCK:    0.38 KCAL/MOL
REMARK 927      BINDING AFFINITY PREDICTED BY RF-SCORE:    0.00 PKD
ROOT
HETATM    1  O   UNL     1      -8.594   7.920  67.947  1.00  0.00    -0.125 OA 
HETATM    2  C   UNL     1      -9.198   7.381  69.032  1.00  0.00    -0.146 C  
HETATM    3  C   UNL     1     -10.645   6.956  68.808  1.00  0.00    -0.220 C  
HETATM    4  O   UNL     1      -8.608   7.258  70.098  1.00  0.00    -0.137 OA 
HETATM    5  S   UNL     1     -10.862   6.382  67.061  1.00  0.00    -0.371 SA 
HETATM    6  H   UNL     1     -12.181   5.995  66.857  1.00  0.00     0.000 H  
ENDROOT
BRANCH   3   7
HETATM    7  C   UNL     1     -11.100   5.879  69.808  1.00  0.00    -0.352 C  
HETATM    8  C   UNL     1     -11.505   6.516  71.133  1.00  0.00    -0.326 C  
HETATM    9  S   UNL     1      -9.890   4.503  70.070  1.00  0.00    -0.209 SA 
HETATM   10  O   UNL     1     -11.365   5.716  72.217  1.00  0.00    -0.272 OA 
HETATM   11  O   UNL     1     -12.016   7.626  71.215  1.00  0.00    -0.294 OA 
HETATM   12  H   UNL     1     -10.301   3.531  70.974  1.00  0.00     0.000 H  
ENDBRANCH   3   7
TORSDOF 1
ENDMDL
MODEL      150
REMARK 921   NORMALIZED FREE ENERGY PREDICTED BY IDOCK:   -2.46 KCAL/MOL
REMARK 922        TOTAL FREE ENERGY PREDICTED BY IDOCK:   -2.07 KCAL/MOL
REMARK 923 INTER-LIGAND FREE ENERGY PREDICTED BY IDOCK:   -2.59 KCAL/MOL
REMARK 924 INTRA-LIGAND FREE ENERGY PREDICTED BY IDOCK:    0.53 KCAL/MOL
REMARK 927      BINDING AFFINITY PREDICTED BY RF-SCORE:    0.00 PKD
ROOT
HETATM    1  O   UNL     1      -9.284   5.627  74.512  1.00  0.00    -0.121 OA 
HETATM    2  C   UNL     1     -10.475   5.737  73.878  1.00  0.00    -0.275 C  
HETATM    3  C   UNL     1     -10.768   7.121  73.313  1.00  0.00    -0.361 C  
HETATM    4  O   UNL     1     -11.240   4.785  73.783  1.00  0.00    -0.298 OA 
HETATM    5  S   UNL     1      -9.188   7.922  72.776  1.00  0.00    -0.250 SA 
HETATM    6  H   UNL     1      -9.455   9.185  72.260  1.00  0.00     0.000 H  
ENDROOT
BRANCH   3   7
HETATM    7  C   UNL     1     -11.789   7.079  72.162  1.00  0.00    -0.275 C  
HETATM    8  C   UNL     1     -11.132   6.576  70.881  1.00  0.00    -0.292 C  
HETATM    9  S   UNL     1     -12.696   8.665  71.871  1.00  0.00    -0.389 SA 
HETATM   10  O   UNL     1     -11.704   7.018  69.736  1.00  0.00    -0.134 OA 
HETATM   11  O   UNL     1     -10.223   5.755  70.872  1.00  0.00    -0.196 OA 
HETATM   12  H   UNL     1     -13.618   8.626  70.832  1.00  0.00     0.000 H  
ENDBRANCH   3   7
TORSDOF 1
ENDMDL
MODEL      151
REMARK 921   NORMALIZED FREE ENERGY PREDICTED BY IDOCK:   -2.45 KCAL/MOL
REMARK 922        TOTAL FREE ENERGY PREDICTED BY IDOCK:   -2.06 KCAL/MOL
REMARK 923 INTER-LIGAND FREE ENERGY PREDICTED BY IDOCK:   -2.62 KCAL/MOL
REMARK 924 INTRA-LIGAND FREE ENERGY PREDICTED BY IDOCK:    0.56 KCAL/MOL
REMARK 927      BINDING AFFINITY PREDICTED BY RF-SCORE:    0.00 PKD
ROOT
HETATM    1  O   UNL     1     -10.694   5.701  72.066  1.00  0.00    -0.222 OA 
HETATM    2  C   UNL     1     -11.281   6.629  71.274  1.00  0.00    -0.282 C  
HETATM    3  C   UNL     1     -11.262   8.046  71.835  1.00  0.00    -0.280 C  
HETATM    4  O   UNL     1     -11.784   6.327  70.199  1.00  0.00    -0.398 OA 
HETATM    5  S   UNL     1      -9.721   8.302  72.828  1.00  0.00    -0.231 SA 
HETATM    6  H   UNL     1      -9.704   9.595  73.339  1.00  0.00     0.000 H  
ENDROOT
BRANCH   3   7
HETATM    7  C   UNL     1     -11.398   9.112  70.734  1.00  0.00    -0.280 C  
HETATM    8  C   UNL     1     -10.035   9.440  70.134  1.00  0.00    -0.229 C  
HETATM    9  S   UNL     1     -12.289  10.650  71.249  1.00  0.00    -0.370 SA 
HETATM   10  O   UNL     1      -9.923  10.687  69.618  1.00  0.00    -0.177 OA 
HETATM   11  O   UNL     1      -9.134   8.616  70.026  1.00  0.00    -0.148 OA 
HETATM   12  H   UNL     1     -12.411  11.613  70.254  1.00  0.00     0.000 H  
ENDBRANCH   3   7
TORSDOF 1
ENDMDL
MODEL      152
REMARK 921   NORMALIZED FREE ENERGY PREDICTED BY IDOCK:   -2.45 KCAL/MOL
REMARK 922        TOTAL FREE ENERGY PREDICTED BY IDOCK:   -2.06 KCAL/MOL
REMARK 923 INTER-LIGAND FREE ENERGY PREDICTED BY IDOCK:   -2.44 KCAL/MOL
REMARK 924 INTRA-LIGAND FREE ENERGY PREDICTED BY IDOCK:    0.38 KCAL/MOL
REMARK 927      BINDING AFFINITY PREDICTED BY RF-SCORE:    0.00 PKD
ROOT
HETATM    1  O   UNL     1     -11.859   6.192  71.319  1.00  0.00    -0.254 OA 
HETATM    2  C   UNL     1     -11.252   7.237  70.710  1.00  0.00    -0.274 C  
HETATM    3  C   UNL     1     -10.780   8.336  71.655  1.00  0.00    -0.256 C  
HETATM    4  O   UNL     1     -11.108   7.274  69.494  1.00  0.00    -0.204 OA 
HETATM    5  S   UNL     1     -10.270   7.592  73.271  1.00  0.00    -0.345 SA 
HETATM    6  H   UNL     1      -9.840   8.594  74.132  1.00  0.00     0.000 H  
ENDROOT
BRANCH   3   7
HETATM    7  C   UNL     1      -9.645   9.181  71.048  1.00  0.00    -0.280 C  
HETATM    8  C   UNL     1     -10.183  10.086  69.946  1.00  0.00    -0.260 C  
HETATM    9  S   UNL     1      -8.184   8.209  70.462  1.00  0.00    -0.121 SA 
HETATM   10  O   UNL     1      -9.282  10.420  68.992  1.00  0.00    -0.169 OA 
HETATM   11  O   UNL     1     -11.309  10.568  69.963  1.00  0.00    -0.272 OA 
HETATM   12  H   UNL     1      -7.159   8.972  69.914  1.00  0.00     0.000 H  
ENDBRANCH   3   7
TORSDOF 1
ENDMDL
MODEL      153
REMARK 921   NORMALIZED FREE ENERGY PREDICTED BY IDOCK:   -2.45 KCAL/MOL
REMARK 922        TOTAL FREE ENERGY PREDICTED BY IDOCK:   -2.05 KCAL/MOL
REMARK 923 INTER-LIGAND FREE ENERGY PREDICTED BY IDOCK:   -2.56 KCAL/MOL
REMARK 924 INTRA-LIGAND FREE ENERGY PREDICTED BY IDOCK:    0.51 KCAL/MOL
REMARK 927      BINDING AFFINITY PREDICTED BY RF-SCORE:    0.00 PKD
ROOT
HETATM    1  O   UNL     1     -10.724   8.726  69.193  1.00  0.00    -0.213 OA 
HETATM    2  C   UNL     1     -10.637   7.413  69.514  1.00  0.00    -0.237 C  
HETATM    3  C   UNL     1      -9.823   7.119  70.769  1.00  0.00    -0.178 C  
HETATM    4  O   UNL     1     -11.175   6.551  68.831  1.00  0.00    -0.306 OA 
HETATM    5  S   UNL     1     -10.016   8.509  71.976  1.00  0.00    -0.327 SA 
HETATM    6  H   UNL     1      -9.274   8.241  73.120  1.00  0.00     0.000 H  
ENDROOT
BRANCH   3   7
HETATM    7  C   UNL     1     -10.201   5.771  71.407  1.00  0.00    -0.216 C  
HETATM    8  C   UNL     1     -11.490   5.902  72.212  1.00  0.00    -0.297 C  
HETATM    9  S   UNL     1      -8.862   4.987  72.415  1.00  0.00    -0.127 SA 
HETATM   10  O   UNL     1     -11.615   5.027  73.237  1.00  0.00    -0.322 OA 
HETATM   11  O   UNL     1     -12.398   6.665  71.903  1.00  0.00    -0.342 OA 
HETATM   12  H   UNL     1      -9.204   3.770  72.991  1.00  0.00     0.000 H  
ENDBRANCH   3   7
TORSDOF 1
ENDMDL
MODEL      154
REMARK 921   NORMALIZED FREE ENERGY PREDICTED BY IDOCK:   -2.44 KCAL/MOL
REMARK 922        TOTAL FREE ENERGY PREDICTED BY IDOCK:   -2.05 KCAL/MOL
REMARK 923 INTER-LIGAND FREE ENERGY PREDICTED BY IDOCK:   -2.41 KCAL/MOL
REMARK 924 INTRA-LIGAND FREE ENERGY PREDICTED BY IDOCK:    0.36 KCAL/MOL
REMARK 927      BINDING AFFINITY PREDICTED BY RF-SCORE:    0.00 PKD
ROOT
HETATM    1  O   UNL     1      -8.903   7.898  65.517  1.00  0.00    -0.130 OA 
HETATM    2  C   UNL     1      -9.289   8.802  66.447  1.00  0.00    -0.204 C  
HETATM    3  C   UNL     1     -10.585   8.455  67.170  1.00  0.00    -0.256 C  
HETATM    4  O   UNL     1      -8.633   9.813  66.668  1.00  0.00    -0.126 OA 
HETATM    5  S   UNL     1     -10.734   6.617  67.332  1.00  0.00    -0.374 SA 
HETATM    6  H   UNL     1     -11.916   6.301  67.992  1.00  0.00     0.000 H  
ENDROOT
BRANCH   3   7
HETATM    7  C   UNL     1     -10.692   9.146  68.541  1.00  0.00    -0.116 C  
HETATM    8  C   UNL     1     -11.131  10.597  68.377  1.00  0.00    -0.272 C  
HETATM    9  S   UNL     1      -9.174   9.022  69.592  1.00  0.00    -0.166 SA 
HETATM   10  O   UNL     1     -10.722  11.431  69.361  1.00  0.00    -0.196 OA 
HETATM   11  O   UNL     1     -11.883  10.973  67.486  1.00  0.00    -0.571 OA 
HETATM   12  H   UNL     1      -9.271   9.646  70.830  1.00  0.00     0.000 H  
ENDBRANCH   3   7
TORSDOF 1
ENDMDL
MODEL      155
REMARK 921   NORMALIZED FREE ENERGY PREDICTED BY IDOCK:   -2.41 KCAL/MOL
REMARK 922        TOTAL FREE ENERGY PREDICTED BY IDOCK:   -2.01 KCAL/MOL
REMARK 923 INTER-LIGAND FREE ENERGY PREDICTED BY IDOCK:   -2.45 KCAL/MOL
REMARK 924 INTRA-LIGAND FREE ENERGY PREDICTED BY IDOCK:    0.44 KCAL/MOL
REMARK 927      BINDING AFFINITY PREDICTED BY RF-SCORE:    0.00 PKD
ROOT
HETATM    1  O   UNL     1      -9.567   6.905  68.221  1.00  0.00    -0.130 OA 
HETATM    2  C   UNL     1     -10.156   8.098  67.971  1.00  0.00    -0.197 C  
HETATM    3  C   UNL     1      -9.970   9.140  69.068  1.00  0.00    -0.184 C  
HETATM    4  O   UNL     1     -10.786   8.297  66.940  1.00  0.00    -0.299 OA 
HETATM    5  S   UNL     1      -8.322   8.904  69.878  1.00  0.00    -0.139 SA 
HETATM    6  H   UNL     1      -8.153   9.855  70.878  1.00  0.00     0.000 H  
ENDROOT
BRANCH   3   7
HETATM    7  C   UNL     1     -10.132  10.577  68.542  1.00  0.00    -0.173 C  
HETATM    8  C   UNL     1     -11.598  10.996  68.570  1.00  0.00    -0.310 C  
HETATM    9  S   UNL     1      -9.382  10.883  66.879  1.00  0.00    -0.170 SA 
HETATM   10  O   UNL     1     -11.942  11.931  67.654  1.00  0.00    -0.575 OA 
HETATM   11  O   UNL     1     -12.391  10.603  69.417  1.00  0.00    -0.277 OA 
HETATM   12  H   UNL     1      -9.528  12.181  66.404  1.00  0.00     0.000 H  
ENDBRANCH   3   7
TORSDOF 1
ENDMDL
MODEL      156
REMARK 921   NORMALIZED FREE ENERGY PREDICTED BY IDOCK:   -2.40 KCAL/MOL
REMARK 922        TOTAL FREE ENERGY PREDICTED BY IDOCK:   -2.00 KCAL/MOL
REMARK 923 INTER-LIGAND FREE ENERGY PREDICTED BY IDOCK:   -2.53 KCAL/MOL
REMARK 924 INTRA-LIGAND FREE ENERGY PREDICTED BY IDOCK:    0.53 KCAL/MOL
REMARK 927      BINDING AFFINITY PREDICTED BY RF-SCORE:    0.00 PKD
ROOT
HETATM    1  O   UNL     1      -9.328  15.553  66.038  1.00  0.00    -0.316 OA 
HETATM    2  C   UNL     1      -8.214  16.278  66.294  1.00  0.00    -0.277 C  
HETATM    3  C   UNL     1      -8.338  17.765  65.980  1.00  0.00    -0.047 C  
HETATM    4  O   UNL     1      -7.199  15.757  66.739  1.00  0.00    -0.167 OA 
HETATM    5  S   UNL     1     -10.076  18.323  66.285  1.00  0.00    -0.358 SA 
HETATM    6  H   UNL     1     -10.189  19.678  65.999  1.00  0.00     0.000 H  
ENDROOT
BRANCH   3   7
HETATM    7  C   UNL     1      -7.332  18.616  66.776  1.00  0.00    -0.217 C  
HETATM    8  C   UNL     1      -7.787  18.768  68.223  1.00  0.00    -0.305 C  
HETATM    9  S   UNL     1      -6.940  20.259  66.022  1.00  0.00    -0.248 SA 
HETATM   10  O   UNL     1      -7.356  19.893  68.841  1.00  0.00    -0.310 OA 
HETATM   11  O   UNL     1      -8.407  17.900  68.826  1.00  0.00    -0.288 OA 
HETATM   12  H   UNL     1      -6.032  21.027  66.741  1.00  0.00     0.000 H  
ENDBRANCH   3   7
TORSDOF 1
ENDMDL
MODEL      157
REMARK 921   NORMALIZED FREE ENERGY PREDICTED BY IDOCK:   -2.38 KCAL/MOL
REMARK 922        TOTAL FREE ENERGY PREDICTED BY IDOCK:   -1.98 KCAL/MOL
REMARK 923 INTER-LIGAND FREE ENERGY PREDICTED BY IDOCK:   -2.60 KCAL/MOL
REMARK 924 INTRA-LIGAND FREE ENERGY PREDICTED BY IDOCK:    0.62 KCAL/MOL
REMARK 927      BINDING AFFINITY PREDICTED BY RF-SCORE:    0.00 PKD
ROOT
HETATM    1  O   UNL     1      -9.330  20.001  66.367  1.00  0.00    -0.376 OA 
HETATM    2  C   UNL     1      -8.625  18.880  66.644  1.00  0.00    -0.307 C  
HETATM    3  C   UNL     1      -7.134  19.106  66.870  1.00  0.00    -0.204 C  
HETATM    4  O   UNL     1      -9.165  17.782  66.701  1.00  0.00    -0.255 OA 
HETATM    5  S   UNL     1      -6.868  20.764  67.650  1.00  0.00    -0.323 SA 
HETATM    6  H   UNL     1      -5.508  20.970  67.855  1.00  0.00     0.000 H  
ENDROOT
BRANCH   3   7
HETATM    7  C   UNL     1      -6.493  17.986  67.708  1.00  0.00    -0.183 C  
HETATM    8  C   UNL     1      -5.839  16.948  66.803  1.00  0.00    -0.154 C  
HETATM    9  S   UNL     1      -7.628  17.186  68.931  1.00  0.00    -0.198 SA 
HETATM   10  O   UNL     1      -5.764  15.702  67.325  1.00  0.00    -0.330 OA 
HETATM   11  O   UNL     1      -5.322  17.227  65.727  1.00  0.00    -0.274 OA 
HETATM   12  H   UNL     1      -7.048  16.175  69.687  1.00  0.00     0.000 H  
ENDBRANCH   3   7
TORSDOF 1
ENDMDL
MODEL      158
REMARK 921   NORMALIZED FREE ENERGY PREDICTED BY IDOCK:   -2.36 KCAL/MOL
REMARK 922        TOTAL FREE ENERGY PREDICTED BY IDOCK:   -1.97 KCAL/MOL
REMARK 923 INTER-LIGAND FREE ENERGY PREDICTED BY IDOCK:   -2.33 KCAL/MOL
REMARK 924 INTRA-LIGAND FREE ENERGY PREDICTED BY IDOCK:    0.36 KCAL/MOL
REMARK 927      BINDING AFFINITY PREDICTED BY RF-SCORE:    0.00 PKD
ROOT
HETATM    1  O   UNL     1      -8.127   6.877  69.196  1.00  0.00    -0.117 OA 
HETATM    2  C   UNL     1      -8.988   7.232  70.178  1.00  0.00    -0.148 C  
HETATM    3  C   UNL     1     -10.426   7.442  69.717  1.00  0.00    -0.229 C  
HETATM    4  O   UNL     1      -8.616   7.370  71.337  1.00  0.00    -0.117 OA 
HETATM    5  S   UNL     1     -10.807   6.289  68.320  1.00  0.00    -0.316 SA 
HETATM    6  H   UNL     1     -12.118   6.481  67.900  1.00  0.00     0.000 H  
ENDROOT
BRANCH   3   7
HETATM    7  C   UNL     1     -11.437   7.279  70.866  1.00  0.00    -0.292 C  
HETATM    8  C   UNL     1     -11.468   8.533  71.734  1.00  0.00    -0.310 C  
HETATM    9  S   UNL     1     -11.205   5.759  71.894  1.00  0.00    -0.184 SA 
HETATM   10  O   UNL     1     -11.835   8.326  73.021  1.00  0.00    -0.269 OA 
HETATM   11  O   UNL     1     -11.279   9.660  71.292  1.00  0.00    -0.346 OA 
HETATM   12  H   UNL     1     -12.119   5.613  72.931  1.00  0.00     0.000 H  
ENDBRANCH   3   7
TORSDOF 1
ENDMDL
MODEL      159
REMARK 921   NORMALIZED FREE ENERGY PREDICTED BY IDOCK:   -2.35 KCAL/MOL
REMARK 922        TOTAL FREE ENERGY PREDICTED BY IDOCK:   -1.95 KCAL/MOL
REMARK 923 INTER-LIGAND FREE ENERGY PREDICTED BY IDOCK:   -2.34 KCAL/MOL
REMARK 924 INTRA-LIGAND FREE ENERGY PREDICTED BY IDOCK:    0.39 KCAL/MOL
REMARK 927      BINDING AFFINITY PREDICTED BY RF-SCORE:    0.00 PKD
ROOT
HETATM    1  O   UNL     1     -11.322   5.976  69.605  1.00  0.00    -0.411 OA 
HETATM    2  C   UNL     1     -11.005   6.815  68.591  1.00  0.00    -0.199 C  
HETATM    3  C   UNL     1     -10.231   8.058  69.014  1.00  0.00    -0.210 C  
HETATM    4  O   UNL     1     -11.330   6.573  67.436  1.00  0.00    -0.304 OA 
HETATM    5  S   UNL     1      -9.140   7.652  70.454  1.00  0.00    -0.152 SA 
HETATM    6  H   UNL     1      -8.435   8.786  70.839  1.00  0.00     0.000 H  
ENDROOT
BRANCH   3   7
HETATM    7  C   UNL     1      -9.421   8.664  67.855  1.00  0.00    -0.139 C  
HETATM    8  C   UNL     1     -10.309   9.553  66.990  1.00  0.00    -0.250 C  
HETATM    9  S   UNL     1      -8.501   7.434  66.825  1.00  0.00    -0.129 SA 
HETATM   10  O   UNL     1      -9.917   9.666  65.698  1.00  0.00    -0.305 OA 
HETATM   11  O   UNL     1     -11.245  10.204  67.437  1.00  0.00    -0.244 OA 
HETATM   12  H   UNL     1      -7.770   7.982  65.778  1.00  0.00     0.000 H  
ENDBRANCH   3   7
TORSDOF 1
ENDMDL
MODEL      160
REMARK 921   NORMALIZED FREE ENERGY PREDICTED BY IDOCK:   -2.33 KCAL/MOL
REMARK 922        TOTAL FREE ENERGY PREDICTED BY IDOCK:   -1.93 KCAL/MOL
REMARK 923 INTER-LIGAND FREE ENERGY PREDICTED BY IDOCK:   -3.26 KCAL/MOL
REMARK 924 INTRA-LIGAND FREE ENERGY PREDICTED BY IDOCK:    1.33 KCAL/MOL
REMARK 927      BINDING AFFINITY PREDICTED BY RF-SCORE:    0.00 PKD
ROOT
HETATM    1  O   UNL     1     -11.731  12.364  69.964  1.00  0.00    -0.301 OA 
HETATM    2  C   UNL     1     -12.331  11.396  70.696  1.00  0.00    -0.373 C  
HETATM    3  C   UNL     1     -11.903   9.976  70.343  1.00  0.00    -0.262 C  
HETATM    4  O   UNL     1     -13.150  11.666  71.565  1.00  0.00    -0.412 OA 
HETATM    5  S   UNL     1     -10.132   9.975  69.805  1.00  0.00    -0.241 SA 
HETATM    6  H   UNL     1      -9.742   8.680  69.483  1.00  0.00     0.000 H  
ENDROOT
BRANCH   3   7
HETATM    7  C   UNL     1     -12.134   8.991  71.502  1.00  0.00    -0.340 C  
HETATM    8  C   UNL     1     -11.899   7.557  71.040  1.00  0.00    -0.293 C  
HETATM    9  S   UNL     1     -13.769   9.160  72.350  1.00  0.00    -0.423 SA 
HETATM   10  O   UNL     1     -12.590   6.616  71.727  1.00  0.00    -0.354 OA 
HETATM   11  O   UNL     1     -11.075   7.254  70.186  1.00  0.00    -0.263 OA 
HETATM   12  H   UNL     1     -13.977   8.270  73.397  1.00  0.00     0.000 H  
ENDBRANCH   3   7
TORSDOF 1
ENDMDL
MODEL      161
REMARK 921   NORMALIZED FREE ENERGY PREDICTED BY IDOCK:   -2.32 KCAL/MOL
REMARK 922        TOTAL FREE ENERGY PREDICTED BY IDOCK:   -1.92 KCAL/MOL
REMARK 923 INTER-LIGAND FREE ENERGY PREDICTED BY IDOCK:   -2.27 KCAL/MOL
REMARK 924 INTRA-LIGAND FREE ENERGY PREDICTED BY IDOCK:    0.36 KCAL/MOL
REMARK 927      BINDING AFFINITY PREDICTED BY RF-SCORE:    0.00 PKD
ROOT
HETATM    1  O   UNL     1      -8.928   9.892  69.999  1.00  0.00    -0.217 OA 
HETATM    2  C   UNL     1      -9.241   8.719  69.400  1.00  0.00    -0.146 C  
HETATM    3  C   UNL     1     -10.533   8.744  68.591  1.00  0.00    -0.183 C  
HETATM    4  O   UNL     1      -8.528   7.731  69.518  1.00  0.00    -0.128 OA 
HETATM    5  S   UNL     1     -10.772  10.424  67.852  1.00  0.00    -0.282 SA 
HETATM    6  H   UNL     1     -11.950  10.447  67.114  1.00  0.00     0.000 H  
ENDROOT
BRANCH   3   7
HETATM    7  C   UNL     1     -10.565   7.650  67.509  1.00  0.00    -0.252 C  
HETATM    8  C   UNL     1     -10.820   6.284  68.137  1.00  0.00    -0.320 C  
HETATM    9  S   UNL     1      -9.084   7.611  66.401  1.00  0.00    -0.167 SA 
HETATM   10  O   UNL     1     -10.319   5.235  67.443  1.00  0.00    -0.200 OA 
HETATM   11  O   UNL     1     -11.512   6.123  69.135  1.00  0.00    -0.379 OA 
HETATM   12  H   UNL     1      -9.114   6.623  65.424  1.00  0.00     0.000 H  
ENDBRANCH   3   7
TORSDOF 1
ENDMDL
MODEL      162
REMARK 921   NORMALIZED FREE ENERGY PREDICTED BY IDOCK:   -2.29 KCAL/MOL
REMARK 922        TOTAL FREE ENERGY PREDICTED BY IDOCK:   -1.89 KCAL/MOL
REMARK 923 INTER-LIGAND FREE ENERGY PREDICTED BY IDOCK:   -2.25 KCAL/MOL
REMARK 924 INTRA-LIGAND FREE ENERGY PREDICTED BY IDOCK:    0.36 KCAL/MOL
REMARK 927      BINDING AFFINITY PREDICTED BY RF-SCORE:    0.00 PKD
ROOT
HETATM    1  O   UNL     1      -9.123   3.565  71.925  1.00  0.00    -0.101 OA 
HETATM    2  C   UNL     1      -9.799   4.723  72.115  1.00  0.00    -0.172 C  
HETATM    3  C   UNL     1      -9.125   5.956  71.524  1.00  0.00    -0.143 C  
HETATM    4  O   UNL     1     -10.864   4.750  72.718  1.00  0.00    -0.215 OA 
HETATM    5  S   UNL     1      -8.207   5.487  69.987  1.00  0.00    -0.106 SA 
HETATM    6  H   UNL     1      -7.592   6.612  69.449  1.00  0.00     0.000 H  
ENDROOT
BRANCH   3   7
HETATM    7  C   UNL     1     -10.125   7.093  71.251  1.00  0.00    -0.189 C  
HETATM    8  C   UNL     1     -10.511   7.790  72.552  1.00  0.00    -0.284 C  
HETATM    9  S   UNL     1     -11.624   6.594  70.289  1.00  0.00    -0.361 SA 
HETATM   10  O   UNL     1     -11.736   8.367  72.547  1.00  0.00    -0.388 OA 
HETATM   11  O   UNL     1      -9.744   7.916  73.499  1.00  0.00    -0.290 OA 
HETATM   12  H   UNL     1     -12.526   7.622  70.043  1.00  0.00     0.000 H  
ENDBRANCH   3   7
TORSDOF 1
ENDMDL
MODEL      163
REMARK 921   NORMALIZED FREE ENERGY PREDICTED BY IDOCK:   -2.29 KCAL/MOL
REMARK 922        TOTAL FREE ENERGY PREDICTED BY IDOCK:   -1.89 KCAL/MOL
REMARK 923 INTER-LIGAND FREE ENERGY PREDICTED BY IDOCK:   -2.26 KCAL/MOL
REMARK 924 INTRA-LIGAND FREE ENERGY PREDICTED BY IDOCK:    0.37 KCAL/MOL
REMARK 927      BINDING AFFINITY PREDICTED BY RF-SCORE:    0.00 PKD
ROOT
HETATM    1  O   UNL     1     -12.178  10.848  71.175  1.00  0.00    -0.352 OA 
HETATM    2  C   UNL     1     -11.206  10.070  70.643  1.00  0.00    -0.350 C  
HETATM    3  C   UNL     1     -11.124  10.107  69.122  1.00  0.00    -0.212 C  
HETATM    4  O   UNL     1     -10.467   9.397  71.350  1.00  0.00    -0.333 OA 
HETATM    5  S   UNL     1     -11.608  11.787  68.513  1.00  0.00    -0.337 SA 
HETATM    6  H   UNL     1     -11.533  11.821  67.125  1.00  0.00     0.000 H  
ENDROOT
BRANCH   3   7
HETATM    7  C   UNL     1      -9.732   9.706  68.602  1.00  0.00    -0.155 C  
HETATM    8  C   UNL     1      -9.514   8.205  68.760  1.00  0.00    -0.148 C  
HETATM    9  S   UNL     1      -8.327  10.666  69.327  1.00  0.00    -0.050 SA 
HETATM   10  O   UNL     1      -8.221   7.828  68.893  1.00  0.00    -0.124 OA 
HETATM   11  O   UNL     1     -10.418   7.383  68.671  1.00  0.00    -0.196 OA 
HETATM   12  H   UNL     1      -7.070  10.303  68.857  1.00  0.00     0.000 H  
ENDBRANCH   3   7
TORSDOF 1
ENDMDL
MODEL      164
REMARK 921   NORMALIZED FREE ENERGY PREDICTED BY IDOCK:   -2.29 KCAL/MOL
REMARK 922        TOTAL FREE ENERGY PREDICTED BY IDOCK:   -1.88 KCAL/MOL
REMARK 923 INTER-LIGAND FREE ENERGY PREDICTED BY IDOCK:   -2.43 KCAL/MOL
REMARK 924 INTRA-LIGAND FREE ENERGY PREDICTED BY IDOCK:    0.55 KCAL/MOL
REMARK 927      BINDING AFFINITY PREDICTED BY RF-SCORE:    0.00 PKD
ROOT
HETATM    1  O   UNL     1      -9.061  13.549  67.757  1.00  0.00    -0.187 OA 
HETATM    2  C   UNL     1      -8.650  14.749  67.284  1.00  0.00    -0.212 C  
HETATM    3  C   UNL     1      -9.779  15.710  66.927  1.00  0.00    -0.230 C  
HETATM    4  O   UNL     1      -7.462  15.015  67.159  1.00  0.00    -0.200 OA 
HETATM    5  S   UNL     1     -11.213  15.437  68.066  1.00  0.00    -0.325 SA 
HETATM    6  H   UNL     1     -12.241  16.313  67.740  1.00  0.00     0.000 H  
ENDROOT
BRANCH   3   7
HETATM    7  C   UNL     1      -9.323  17.180  66.948  1.00  0.00    -0.249 C  
HETATM    8  C   UNL     1      -9.166  17.671  68.384  1.00  0.00    -0.288 C  
HETATM    9  S   UNL     1     -10.378  18.333  65.959  1.00  0.00    -0.272 SA 
HETATM   10  O   UNL     1      -9.339  19.003  68.553  1.00  0.00    -0.341 OA 
HETATM   11  O   UNL     1      -8.808  16.947  69.305  1.00  0.00    -0.127 OA 
HETATM   12  H   UNL     1      -9.966  19.660  65.979  1.00  0.00     0.000 H  
ENDBRANCH   3   7
TORSDOF 1
ENDMDL
MODEL      165
REMARK 921   NORMALIZED FREE ENERGY PREDICTED BY IDOCK:   -2.28 KCAL/MOL
REMARK 922        TOTAL FREE ENERGY PREDICTED BY IDOCK:   -1.88 KCAL/MOL
REMARK 923 INTER-LIGAND FREE ENERGY PREDICTED BY IDOCK:   -2.40 KCAL/MOL
REMARK 924 INTRA-LIGAND FREE ENERGY PREDICTED BY IDOCK:    0.52 KCAL/MOL
REMARK 927      BINDING AFFINITY PREDICTED BY RF-SCORE:    0.00 PKD
ROOT
HETATM    1  O   UNL     1      -7.886  10.456  68.696  1.00  0.00    -0.096 OA 
HETATM    2  C   UNL     1      -8.523   9.945  69.776  1.00  0.00    -0.192 C  
HETATM    3  C   UNL     1     -10.045  10.015  69.706  1.00  0.00    -0.248 C  
HETATM    4  O   UNL     1      -7.904   9.473  70.721  1.00  0.00    -0.242 OA 
HETATM    5  S   UNL     1     -10.597   9.837  67.948  1.00  0.00    -0.259 SA 
HETATM    6  H   UNL     1     -11.984   9.901  67.886  1.00  0.00     0.000 H  
ENDROOT
BRANCH   3   7
HETATM    7  C   UNL     1     -10.719   8.969  70.611  1.00  0.00    -0.239 C  
HETATM    8  C   UNL     1     -10.776   7.614  69.913  1.00  0.00    -0.249 C  
HETATM    9  S   UNL     1     -12.383   9.458  71.255  1.00  0.00    -0.345 SA 
HETATM   10  O   UNL     1     -11.792   6.811  70.307  1.00  0.00    -0.364 OA 
HETATM   11  O   UNL     1      -9.916   7.227  69.130  1.00  0.00    -0.164 OA 
HETATM   12  H   UNL     1     -12.992   8.513  72.072  1.00  0.00     0.000 H  
ENDBRANCH   3   7
TORSDOF 1
ENDMDL
MODEL      166
REMARK 921   NORMALIZED FREE ENERGY PREDICTED BY IDOCK:   -2.28 KCAL/MOL
REMARK 922        TOTAL FREE ENERGY PREDICTED BY IDOCK:   -1.88 KCAL/MOL
REMARK 923 INTER-LIGAND FREE ENERGY PREDICTED BY IDOCK:   -2.38 KCAL/MOL
REMARK 924 INTRA-LIGAND FREE ENERGY PREDICTED BY IDOCK:    0.51 KCAL/MOL
REMARK 927      BINDING AFFINITY PREDICTED BY RF-SCORE:    0.00 PKD
ROOT
HETATM    1  O   UNL     1      -9.350  14.434  68.553  1.00  0.00    -0.198 OA 
HETATM    2  C   UNL     1      -9.599  13.275  67.900  1.00  0.00    -0.217 C  
HETATM    3  C   UNL     1     -10.708  12.427  68.511  1.00  0.00    -0.238 C  
HETATM    4  O   UNL     1      -8.967  12.955  66.901  1.00  0.00    -0.215 OA 
HETATM    5  S   UNL     1     -11.988  13.529  69.269  1.00  0.00    -0.306 SA 
HETATM    6  H   UNL     1     -13.000  12.755  69.827  1.00  0.00     0.000 H  
ENDROOT
BRANCH   3   7
HETATM    7  C   UNL     1     -11.337  11.463  67.490  1.00  0.00    -0.292 C  
HETATM    8  C   UNL     1     -10.612  10.122  67.502  1.00  0.00    -0.273 C  
HETATM    9  S   UNL     1     -11.472  12.134  65.771  1.00  0.00    -0.337 SA 
HETATM   10  O   UNL     1     -10.659   9.437  66.335  1.00  0.00    -0.145 OA 
HETATM   11  O   UNL     1     -10.109   9.641  68.510  1.00  0.00    -0.164 OA 
HETATM   12  H   UNL     1     -12.040  11.264  64.849  1.00  0.00     0.000 H  
ENDBRANCH   3   7
TORSDOF 1
ENDMDL
MODEL      167
REMARK 921   NORMALIZED FREE ENERGY PREDICTED BY IDOCK:   -2.27 KCAL/MOL
REMARK 922        TOTAL FREE ENERGY PREDICTED BY IDOCK:   -1.87 KCAL/MOL
REMARK 923 INTER-LIGAND FREE ENERGY PREDICTED BY IDOCK:   -2.38 KCAL/MOL
REMARK 924 INTRA-LIGAND FREE ENERGY PREDICTED BY IDOCK:    0.51 KCAL/MOL
REMARK 927      BINDING AFFINITY PREDICTED BY RF-SCORE:    0.00 PKD
ROOT
HETATM    1  O   UNL     1     -12.131  11.956  66.900  1.00  0.00    -0.599 OA 
HETATM    2  C   UNL     1     -10.905  11.441  66.644  1.00  0.00    -0.289 C  
HETATM    3  C   UNL     1     -10.089  11.097  67.884  1.00  0.00    -0.176 C  
HETATM    4  O   UNL     1     -10.507  11.277  65.498  1.00  0.00    -0.258 OA 
HETATM    5  S   UNL     1     -11.221  10.550  69.243  1.00  0.00    -0.271 SA 
HETATM    6  H   UNL     1     -10.477  10.236  70.374  1.00  0.00     0.000 H  
ENDROOT
BRANCH   3   7
HETATM    7  C   UNL     1      -9.010  10.037  67.598  1.00  0.00    -0.131 C  
HETATM    8  C   UNL     1      -9.631   8.646  67.526  1.00  0.00    -0.157 C  
HETATM    9  S   UNL     1      -7.569  10.066  68.758  1.00  0.00    -0.087 SA 
HETATM   10  O   UNL     1      -8.797   7.631  67.853  1.00  0.00    -0.127 OA 
HETATM   11  O   UNL     1     -10.764   8.439  67.107  1.00  0.00    -0.291 OA 
HETATM   12  H   UNL     1      -6.595   9.109  68.500  1.00  0.00     0.000 H  
ENDBRANCH   3   7
TORSDOF 1
ENDMDL
MODEL      168
REMARK 921   NORMALIZED FREE ENERGY PREDICTED BY IDOCK:   -2.26 KCAL/MOL
REMARK 922        TOTAL FREE ENERGY PREDICTED BY IDOCK:   -1.85 KCAL/MOL
REMARK 923 INTER-LIGAND FREE ENERGY PREDICTED BY IDOCK:   -3.18 KCAL/MOL
REMARK 924 INTRA-LIGAND FREE ENERGY PREDICTED BY IDOCK:    1.33 KCAL/MOL
REMARK 927      BINDING AFFINITY PREDICTED BY RF-SCORE:    0.00 PKD
ROOT
HETATM    1  O   UNL     1     -13.298  14.022  65.362  1.00  0.00    -0.721 OA 
HETATM    2  C   UNL     1     -12.257  13.157  65.396  1.00  0.00    -0.461 C  
HETATM    3  C   UNL     1     -11.035  13.664  66.154  1.00  0.00    -0.284 C  
HETATM    4  O   UNL     1     -12.317  12.062  64.852  1.00  0.00    -0.367 OA 
HETATM    5  S   UNL     1     -11.576  14.751  67.551  1.00  0.00    -0.338 SA 
HETATM    6  H   UNL     1     -10.461  15.213  68.242  1.00  0.00     0.000 H  
ENDROOT
BRANCH   3   7
HETATM    7  C   UNL     1     -10.141  12.517  66.655  1.00  0.00    -0.230 C  
HETATM    8  C   UNL     1      -8.746  13.033  66.992  1.00  0.00    -0.193 C  
HETATM    9  S   UNL     1     -10.057  11.051  65.529  1.00  0.00    -0.274 SA 
HETATM   10  O   UNL     1      -7.756  12.116  66.881  1.00  0.00    -0.135 OA 
HETATM   11  O   UNL     1      -8.535  14.157  67.430  1.00  0.00    -0.180 OA 
HETATM   12  H   UNL     1      -9.249  10.015  65.982  1.00  0.00     0.000 H  
ENDBRANCH   3   7
TORSDOF 1
ENDMDL
MODEL      169
REMARK 921   NORMALIZED FREE ENERGY PREDICTED BY IDOCK:   -2.25 KCAL/MOL
REMARK 922        TOTAL FREE ENERGY PREDICTED BY IDOCK:   -1.85 KCAL/MOL
REMARK 923 INTER-LIGAND FREE ENERGY PREDICTED BY IDOCK:   -2.36 KCAL/MOL
REMARK 924 INTRA-LIGAND FREE ENERGY PREDICTED BY IDOCK:    0.52 KCAL/MOL
REMARK 927      BINDING AFFINITY PREDICTED BY RF-SCORE:    0.00 PKD
ROOT
HETATM    1  O   UNL     1     -11.253  11.058  67.571  1.00  0.00    -0.293 OA 
HETATM    2  C   UNL     1     -11.035  12.363  67.857  1.00  0.00    -0.228 C  
HETATM    3  C   UNL     1      -9.570  12.784  67.829  1.00  0.00    -0.204 C  
HETATM    4  O   UNL     1     -11.959  13.123  68.118  1.00  0.00    -0.344 OA 
HETATM    5  S   UNL     1      -8.664  11.800  66.550  1.00  0.00    -0.138 SA 
HETATM    6  H   UNL     1      -7.328  12.184  66.525  1.00  0.00     0.000 H  
ENDROOT
BRANCH   3   7
HETATM    7  C   UNL     1      -9.401  14.295  67.593  1.00  0.00    -0.201 C  
HETATM    8  C   UNL     1      -9.512  14.620  66.107  1.00  0.00    -0.276 C  
HETATM    9  S   UNL     1      -7.867  15.028  68.324  1.00  0.00    -0.126 SA 
HETATM   10  O   UNL     1      -8.842  15.729  65.714  1.00  0.00    -0.227 OA 
HETATM   11  O   UNL     1     -10.232  13.996  65.336  1.00  0.00    -0.325 OA 
HETATM   12  H   UNL     1      -7.715  16.392  68.109  1.00  0.00     0.000 H  
ENDBRANCH   3   7
TORSDOF 1
ENDMDL
MODEL      170
REMARK 921   NORMALIZED FREE ENERGY PREDICTED BY IDOCK:   -2.25 KCAL/MOL
REMARK 922        TOTAL FREE ENERGY PREDICTED BY IDOCK:   -1.85 KCAL/MOL
REMARK 923 INTER-LIGAND FREE ENERGY PREDICTED BY IDOCK:   -2.21 KCAL/MOL
REMARK 924 INTRA-LIGAND FREE ENERGY PREDICTED BY IDOCK:    0.36 KCAL/MOL
REMARK 927      BINDING AFFINITY PREDICTED BY RF-SCORE:    0.00 PKD
ROOT
HETATM    1  O   UNL     1     -11.673  12.184  68.198  1.00  0.00    -0.319 OA 
HETATM    2  C   UNL     1     -11.190  10.933  68.385  1.00  0.00    -0.285 C  
HETATM    3  C   UNL     1     -10.229  10.454  67.303  1.00  0.00    -0.211 C  
HETATM    4  O   UNL     1     -11.518  10.260  69.354  1.00  0.00    -0.234 OA 
HETATM    5  S   UNL     1      -9.263  11.891  66.648  1.00  0.00    -0.207 SA 
HETATM    6  H   UNL     1      -8.387  11.454  65.661  1.00  0.00     0.000 H  
ENDROOT
BRANCH   3   7
HETATM    7  C   UNL     1      -9.296   9.338  67.803  1.00  0.00    -0.128 C  
HETATM    8  C   UNL     1     -10.026   7.999  67.821  1.00  0.00    -0.175 C  
HETATM    9  S   UNL     1      -8.482   9.677  69.429  1.00  0.00    -0.171 SA 
HETATM   10  O   UNL     1      -9.561   7.108  68.729  1.00  0.00    -0.144 OA 
HETATM   11  O   UNL     1     -10.898   7.699  67.014  1.00  0.00    -0.334 OA 
HETATM   12  H   UNL     1      -7.640   8.668  69.880  1.00  0.00     0.000 H  
ENDBRANCH   3   7
TORSDOF 1
ENDMDL
MODEL      171
REMARK 921   NORMALIZED FREE ENERGY PREDICTED BY IDOCK:   -2.25 KCAL/MOL
REMARK 922        TOTAL FREE ENERGY PREDICTED BY IDOCK:   -1.84 KCAL/MOL
REMARK 923 INTER-LIGAND FREE ENERGY PREDICTED BY IDOCK:   -2.35 KCAL/MOL
REMARK 924 INTRA-LIGAND FREE ENERGY PREDICTED BY IDOCK:    0.51 KCAL/MOL
REMARK 927      BINDING AFFINITY PREDICTED BY RF-SCORE:    0.00 PKD
ROOT
HETATM    1  O   UNL     1      -8.034   6.871  67.943  1.00  0.00    -0.111 OA 
HETATM    2  C   UNL     1      -8.475   6.545  69.181  1.00  0.00    -0.126 C  
HETATM    3  C   UNL     1      -9.188   7.673  69.917  1.00  0.00    -0.147 C  
HETATM    4  O   UNL     1      -8.300   5.428  69.649  1.00  0.00    -0.097 OA 
HETATM    5  S   UNL     1     -10.089   8.740  68.702  1.00  0.00    -0.192 SA 
HETATM    6  H   UNL     1     -10.739   9.768  69.374  1.00  0.00     0.000 H  
ENDROOT
BRANCH   3   7
HETATM    7  C   UNL     1     -10.138   7.149  71.009  1.00  0.00    -0.192 C  
HETATM    8  C   UNL     1     -11.452   6.679  70.396  1.00  0.00    -0.386 C  
HETATM    9  S   UNL     1     -10.436   8.324  72.407  1.00  0.00    -0.333 SA 
HETATM   10  O   UNL     1     -12.523   6.747  71.221  1.00  0.00    -0.362 OA 
HETATM   11  O   UNL     1     -11.530   6.179  69.280  1.00  0.00    -0.404 OA 
HETATM   12  H   UNL     1     -11.293   7.851  73.393  1.00  0.00     0.000 H  
ENDBRANCH   3   7
TORSDOF 1
ENDMDL
MODEL      172
REMARK 921   NORMALIZED FREE ENERGY PREDICTED BY IDOCK:   -2.24 KCAL/MOL
REMARK 922        TOTAL FREE ENERGY PREDICTED BY IDOCK:   -1.84 KCAL/MOL
REMARK 923 INTER-LIGAND FREE ENERGY PREDICTED BY IDOCK:   -2.54 KCAL/MOL
REMARK 924 INTRA-LIGAND FREE ENERGY PREDICTED BY IDOCK:    0.71 KCAL/MOL
REMARK 927      BINDING AFFINITY PREDICTED BY RF-SCORE:    0.00 PKD
ROOT
HETATM    1  O   UNL     1      -7.500  14.328  69.064  1.00  0.00    -0.126 OA 
HETATM    2  C   UNL     1      -7.921  13.614  67.993  1.00  0.00    -0.154 C  
HETATM    3  C   UNL     1      -9.435  13.496  67.865  1.00  0.00    -0.215 C  
HETATM    4  O   UNL     1      -7.128  13.111  67.208  1.00  0.00    -0.135 OA 
HETATM    5  S   UNL     1     -10.237  15.033  68.514  1.00  0.00    -0.233 SA 
HETATM    6  H   UNL     1     -11.618  14.924  68.396  1.00  0.00     0.000 H  
ENDROOT
BRANCH   3   7
HETATM    7  C   UNL     1      -9.878  13.204  66.420  1.00  0.00    -0.279 C  
HETATM    8  C   UNL     1     -10.201  14.501  65.687  1.00  0.00    -0.357 C  
HETATM    9  S   UNL     1     -11.262  11.986  66.264  1.00  0.00    -0.349 SA 
HETATM   10  O   UNL     1     -11.103  14.381  64.685  1.00  0.00    -0.381 OA 
HETATM   11  O   UNL     1      -9.620  15.558  65.906  1.00  0.00    -0.316 OA 
HETATM   12  H   UNL     1     -11.662  11.723  64.959  1.00  0.00     0.000 H  
ENDBRANCH   3   7
TORSDOF 1
ENDMDL
MODEL      173
REMARK 921   NORMALIZED FREE ENERGY PREDICTED BY IDOCK:   -2.21 KCAL/MOL
REMARK 922        TOTAL FREE ENERGY PREDICTED BY IDOCK:   -1.81 KCAL/MOL
REMARK 923 INTER-LIGAND FREE ENERGY PREDICTED BY IDOCK:   -2.33 KCAL/MOL
REMARK 924 INTRA-LIGAND FREE ENERGY PREDICTED BY IDOCK:    0.52 KCAL/MOL
REMARK 927      BINDING AFFINITY PREDICTED BY RF-SCORE:    0.00 PKD
ROOT
HETATM    1  O   UNL     1     -10.486   8.754  67.613  1.00  0.00    -0.241 OA 
HETATM    2  C   UNL     1     -10.806   9.165  68.862  1.00  0.00    -0.070 C  
HETATM    3  C   UNL     1     -10.772   8.068  69.920  1.00  0.00    -0.242 C  
HETATM    4  O   UNL     1     -11.099  10.331  69.097  1.00  0.00    -0.224 OA 
HETATM    5  S   UNL     1      -9.455   6.838  69.498  1.00  0.00    -0.147 SA 
HETATM    6  H   UNL     1      -9.424   5.837  70.463  1.00  0.00     0.000 H  
ENDROOT
BRANCH   3   7
HETATM    7  C   UNL     1     -10.575   8.631  71.339  1.00  0.00    -0.264 C  
HETATM    8  C   UNL     1      -9.099   8.906  71.605  1.00  0.00    -0.210 C  
HETATM    9  S   UNL     1     -11.317   7.607  72.689  1.00  0.00    -0.361 SA 
HETATM   10  O   UNL     1      -8.732   8.841  72.907  1.00  0.00    -0.379 OA 
HETATM   11  O   UNL     1      -8.315   9.263  70.733  1.00  0.00    -0.188 OA 
HETATM   12  H   UNL     1     -11.139   8.115  73.970  1.00  0.00     0.000 H  
ENDBRANCH   3   7
TORSDOF 1
ENDMDL
MODEL      174
REMARK 921   NORMALIZED FREE ENERGY PREDICTED BY IDOCK:   -2.21 KCAL/MOL
REMARK 922        TOTAL FREE ENERGY PREDICTED BY IDOCK:   -1.80 KCAL/MOL
REMARK 923 INTER-LIGAND FREE ENERGY PREDICTED BY IDOCK:   -2.18 KCAL/MOL
REMARK 924 INTRA-LIGAND FREE ENERGY PREDICTED BY IDOCK:    0.38 KCAL/MOL
REMARK 927      BINDING AFFINITY PREDICTED BY RF-SCORE:    0.00 PKD
ROOT
HETATM    1  O   UNL     1     -10.781   8.382  67.179  1.00  0.00    -0.291 OA 
HETATM    2  C   UNL     1      -9.895   8.769  66.232  1.00  0.00    -0.272 C  
HETATM    3  C   UNL     1     -10.089  10.194  65.726  1.00  0.00    -0.254 C  
HETATM    4  O   UNL     1      -9.019   8.015  65.828  1.00  0.00    -0.165 OA 
HETATM    5  S   UNL     1     -10.731  11.260  67.096  1.00  0.00    -0.266 SA 
HETATM    6  H   UNL     1     -10.907  12.559  66.634  1.00  0.00     0.000 H  
ENDROOT
BRANCH   3   7
HETATM    7  C   UNL     1      -8.800  10.780  65.121  1.00  0.00    -0.186 C  
HETATM    8  C   UNL     1      -8.617  10.301  63.685  1.00  0.00    -0.195 C  
HETATM    9  S   UNL     1      -7.272  10.489  66.123  1.00  0.00    -0.139 SA 
HETATM   10  O   UNL     1      -7.332  10.251  63.260  1.00  0.00    -0.145 OA 
HETATM   11  O   UNL     1      -9.554  10.076  62.929  1.00  0.00    -0.267 OA 
HETATM   12  H   UNL     1      -6.109  11.018  65.577  1.00  0.00     0.000 H  
ENDBRANCH   3   7
TORSDOF 1
ENDMDL
MODEL      175
REMARK 921   NORMALIZED FREE ENERGY PREDICTED BY IDOCK:   -2.21 KCAL/MOL
REMARK 922        TOTAL FREE ENERGY PREDICTED BY IDOCK:   -1.80 KCAL/MOL
REMARK 923 INTER-LIGAND FREE ENERGY PREDICTED BY IDOCK:   -2.41 KCAL/MOL
REMARK 924 INTRA-LIGAND FREE ENERGY PREDICTED BY IDOCK:    0.61 KCAL/MOL
REMARK 927      BINDING AFFINITY PREDICTED BY RF-SCORE:    0.00 PKD
ROOT
HETATM    1  O   UNL     1      -9.875  14.841  68.713  1.00  0.00    -0.217 OA 
HETATM    2  C   UNL     1      -9.313  13.748  68.146  1.00  0.00    -0.211 C  
HETATM    3  C   UNL     1     -10.303  12.665  67.735  1.00  0.00    -0.220 C  
HETATM    4  O   UNL     1      -8.102  13.661  67.988  1.00  0.00    -0.136 OA 
HETATM    5  S   UNL     1     -11.899  13.445  67.214  1.00  0.00    -0.364 SA 
HETATM    6  H   UNL     1     -12.802  12.457  66.840  1.00  0.00     0.000 H  
ENDROOT
BRANCH   3   7
HETATM    7  C   UNL     1      -9.745  11.750  66.632  1.00  0.00    -0.202 C  
HETATM    8  C   UNL     1     -10.065  12.317  65.253  1.00  0.00    -0.271 C  
HETATM    9  S   UNL     1     -10.258   9.977  66.760  1.00  0.00    -0.224 SA 
HETATM   10  O   UNL     1     -10.157  11.396  64.265  1.00  0.00    -0.253 OA 
HETATM   11  O   UNL     1     -10.133  13.518  65.021  1.00  0.00    -0.316 OA 
HETATM   12  H   UNL     1      -9.753   9.151  65.764  1.00  0.00     0.000 H  
ENDBRANCH   3   7
TORSDOF 1
ENDMDL
MODEL      176
REMARK 921   NORMALIZED FREE ENERGY PREDICTED BY IDOCK:   -2.21 KCAL/MOL
REMARK 922        TOTAL FREE ENERGY PREDICTED BY IDOCK:   -1.80 KCAL/MOL
REMARK 923 INTER-LIGAND FREE ENERGY PREDICTED BY IDOCK:   -2.32 KCAL/MOL
REMARK 924 INTRA-LIGAND FREE ENERGY PREDICTED BY IDOCK:    0.52 KCAL/MOL
REMARK 927      BINDING AFFINITY PREDICTED BY RF-SCORE:    0.00 PKD
ROOT
HETATM    1  O   UNL     1     -12.922   8.431  72.157  1.00  0.00    -0.339 OA 
HETATM    2  C   UNL     1     -11.661   8.861  71.921  1.00  0.00    -0.371 C  
HETATM    3  C   UNL     1     -10.585   8.149  72.733  1.00  0.00    -0.316 C  
HETATM    4  O   UNL     1     -11.429   9.755  71.117  1.00  0.00    -0.343 OA 
HETATM    5  S   UNL     1     -11.084   6.390  73.020  1.00  0.00    -0.149 SA 
HETATM    6  H   UNL     1     -10.102   5.741  73.760  1.00  0.00     0.000 H  
ENDROOT
BRANCH   3   7
HETATM    7  C   UNL     1      -9.200   8.234  72.068  1.00  0.00    -0.204 C  
HETATM    8  C   UNL     1      -9.102   7.250  70.907  1.00  0.00    -0.151 C  
HETATM    9  S   UNL     1      -7.770   8.043  73.227  1.00  0.00    -0.161 SA 
HETATM   10  O   UNL     1      -7.849   6.816  70.631  1.00  0.00    -0.101 OA 
HETATM   11  O   UNL     1     -10.058   6.946  70.203  1.00  0.00    -0.181 OA 
HETATM   12  H   UNL     1      -6.519   8.120  72.626  1.00  0.00     0.000 H  
ENDBRANCH   3   7
TORSDOF 1
ENDMDL
MODEL      177
REMARK 921   NORMALIZED FREE ENERGY PREDICTED BY IDOCK:   -2.19 KCAL/MOL
REMARK 922        TOTAL FREE ENERGY PREDICTED BY IDOCK:   -1.78 KCAL/MOL
REMARK 923 INTER-LIGAND FREE ENERGY PREDICTED BY IDOCK:   -2.14 KCAL/MOL
REMARK 924 INTRA-LIGAND FREE ENERGY PREDICTED BY IDOCK:    0.36 KCAL/MOL
REMARK 927      BINDING AFFINITY PREDICTED BY RF-SCORE:    0.00 PKD
ROOT
HETATM    1  O   UNL     1     -10.460  11.981  65.738  1.00  0.00    -0.239 OA 
HETATM    2  C   UNL     1     -10.110  10.842  66.381  1.00  0.00    -0.231 C  
HETATM    3  C   UNL     1      -9.831   9.656  65.465  1.00  0.00    -0.281 C  
HETATM    4  O   UNL     1     -10.035  10.794  67.602  1.00  0.00    -0.168 OA 
HETATM    5  S   UNL     1      -9.104  10.257  63.872  1.00  0.00    -0.275 SA 
HETATM    6  H   UNL     1      -8.849   9.175  63.037  1.00  0.00     0.000 H  
ENDROOT
BRANCH   3   7
HETATM    7  C   UNL     1      -8.924   8.606  66.130  1.00  0.00    -0.180 C  
HETATM    8  C   UNL     1      -9.724   7.750  67.106  1.00  0.00    -0.186 C  
HETATM    9  S   UNL     1      -7.403   9.289  66.931  1.00  0.00    -0.091 SA 
HETATM   10  O   UNL     1      -9.004   7.224  68.126  1.00  0.00    -0.133 OA 
HETATM   11  O   UNL     1     -10.903   7.464  66.938  1.00  0.00    -0.357 OA 
HETATM   12  H   UNL     1      -6.585   8.340  67.531  1.00  0.00     0.000 H  
ENDBRANCH   3   7
TORSDOF 1
ENDMDL
MODEL      178
REMARK 921   NORMALIZED FREE ENERGY PREDICTED BY IDOCK:   -2.18 KCAL/MOL
REMARK 922        TOTAL FREE ENERGY PREDICTED BY IDOCK:   -1.77 KCAL/MOL
REMARK 923 INTER-LIGAND FREE ENERGY PREDICTED BY IDOCK:   -2.29 KCAL/MOL
REMARK 924 INTRA-LIGAND FREE ENERGY PREDICTED BY IDOCK:    0.52 KCAL/MOL
REMARK 927      BINDING AFFINITY PREDICTED BY RF-SCORE:    0.00 PKD
ROOT
HETATM    1  O   UNL     1     -11.763  11.246  67.572  1.00  0.00    -0.574 OA 
HETATM    2  C   UNL     1     -11.316  10.976  68.821  1.00  0.00    -0.283 C  
HETATM    3  C   UNL     1     -10.594   9.642  68.962  1.00  0.00    -0.218 C  
HETATM    4  O   UNL     1     -11.493  11.758  69.746  1.00  0.00    -0.280 OA 
HETATM    5  S   UNL     1      -9.695   9.250  67.392  1.00  0.00    -0.171 SA 
HETATM    6  H   UNL     1      -9.037   8.033  67.522  1.00  0.00     0.000 H  
ENDROOT
BRANCH   3   7
HETATM    7  C   UNL     1      -9.640   9.618  70.170  1.00  0.00    -0.254 C  
HETATM    8  C   UNL     1      -8.308  10.269  69.813  1.00  0.00    -0.080 C  
HETATM    9  S   UNL     1      -9.387   7.949  70.927  1.00  0.00    -0.153 SA 
HETATM   10  O   UNL     1      -7.246   9.822  70.525  1.00  0.00    -0.138 OA 
HETATM   11  O   UNL     1      -8.206  11.198  69.020  1.00  0.00    -0.137 OA 
HETATM   12  H   UNL     1      -8.526   7.929  72.017  1.00  0.00     0.000 H  
ENDBRANCH   3   7
TORSDOF 1
ENDMDL
MODEL      179
REMARK 921   NORMALIZED FREE ENERGY PREDICTED BY IDOCK:   -2.17 KCAL/MOL
REMARK 922        TOTAL FREE ENERGY PREDICTED BY IDOCK:   -1.76 KCAL/MOL
REMARK 923 INTER-LIGAND FREE ENERGY PREDICTED BY IDOCK:   -2.13 KCAL/MOL
REMARK 924 INTRA-LIGAND FREE ENERGY PREDICTED BY IDOCK:    0.37 KCAL/MOL
REMARK 927      BINDING AFFINITY PREDICTED BY RF-SCORE:    0.00 PKD
ROOT
HETATM    1  O   UNL     1     -10.746   9.239  67.134  1.00  0.00    -0.251 OA 
HETATM    2  C   UNL     1     -10.476   7.958  67.482  1.00  0.00    -0.262 C  
HETATM    3  C   UNL     1      -9.350   7.800  68.498  1.00  0.00    -0.147 C  
HETATM    4  O   UNL     1     -11.100   7.020  67.003  1.00  0.00    -0.373 OA 
HETATM    5  S   UNL     1      -9.340   9.252  69.647  1.00  0.00    -0.192 SA 
HETATM    6  H   UNL     1      -8.313   9.107  70.573  1.00  0.00     0.000 H  
ENDROOT
BRANCH   3   7
HETATM    7  C   UNL     1      -9.446   6.476  69.274  1.00  0.00    -0.140 C  
HETATM    8  C   UNL     1      -9.037   5.304  68.387  1.00  0.00    -0.110 C  
HETATM    9  S   UNL     1     -11.082   6.164  70.080  1.00  0.00    -0.392 SA 
HETATM   10  O   UNL     1      -9.598   4.117  68.716  1.00  0.00    -0.162 OA 
HETATM   11  O   UNL     1      -8.188   5.394  67.508  1.00  0.00    -0.101 OA 
HETATM   12  H   UNL     1     -11.167   4.968  70.781  1.00  0.00     0.000 H  
ENDBRANCH   3   7
TORSDOF 1
ENDMDL
MODEL      180
REMARK 921   NORMALIZED FREE ENERGY PREDICTED BY IDOCK:   -2.17 KCAL/MOL
REMARK 922        TOTAL FREE ENERGY PREDICTED BY IDOCK:   -1.76 KCAL/MOL
REMARK 923 INTER-LIGAND FREE ENERGY PREDICTED BY IDOCK:   -2.33 KCAL/MOL
REMARK 924 INTRA-LIGAND FREE ENERGY PREDICTED BY IDOCK:    0.57 KCAL/MOL
REMARK 927      BINDING AFFINITY PREDICTED BY RF-SCORE:    0.00 PKD
ROOT
HETATM    1  O   UNL     1     -10.754   9.102  67.336  1.00  0.00    -0.277 OA 
HETATM    2  C   UNL     1     -10.460   7.818  67.650  1.00  0.00    -0.239 C  
HETATM    3  C   UNL     1      -9.483   7.655  68.808  1.00  0.00    -0.152 C  
HETATM    4  O   UNL     1     -10.951   6.880  67.033  1.00  0.00    -0.379 OA 
HETATM    5  S   UNL     1      -9.725   9.029  70.025  1.00  0.00    -0.197 SA 
HETATM    6  H   UNL     1      -8.834   8.880  71.081  1.00  0.00     0.000 H  
ENDROOT
BRANCH   3   7
HETATM    7  C   UNL     1      -9.608   6.280  69.489  1.00  0.00    -0.147 C  
HETATM    8  C   UNL     1     -10.882   6.211  70.325  1.00  0.00    -0.319 C  
HETATM    9  S   UNL     1      -8.131   5.766  70.477  1.00  0.00    -0.111 SA 
HETATM   10  O   UNL     1     -10.829   5.356  71.374  1.00  0.00    -0.222 OA 
HETATM   11  O   UNL     1     -11.914   6.798  70.025  1.00  0.00    -0.291 OA 
HETATM   12  H   UNL     1      -8.245   4.525  71.091  1.00  0.00     0.000 H  
ENDBRANCH   3   7
TORSDOF 1
ENDMDL
MODEL      181
REMARK 921   NORMALIZED FREE ENERGY PREDICTED BY IDOCK:   -2.17 KCAL/MOL
REMARK 922        TOTAL FREE ENERGY PREDICTED BY IDOCK:   -1.76 KCAL/MOL
REMARK 923 INTER-LIGAND FREE ENERGY PREDICTED BY IDOCK:   -2.27 KCAL/MOL
REMARK 924 INTRA-LIGAND FREE ENERGY PREDICTED BY IDOCK:    0.52 KCAL/MOL
REMARK 927      BINDING AFFINITY PREDICTED BY RF-SCORE:    0.00 PKD
ROOT
HETATM    1  O   UNL     1     -12.324   9.215  71.342  1.00  0.00    -0.308 OA 
HETATM    2  C   UNL     1     -11.586   8.196  71.843  1.00  0.00    -0.306 C  
HETATM    3  C   UNL     1     -10.695   7.496  70.823  1.00  0.00    -0.229 C  
HETATM    4  O   UNL     1     -11.651   7.879  73.024  1.00  0.00    -0.351 OA 
HETATM    5  S   UNL     1     -10.120   8.718  69.557  1.00  0.00    -0.207 SA 
HETATM    6  H   UNL     1      -9.308   8.079  68.627  1.00  0.00     0.000 H  
ENDROOT
BRANCH   3   7
HETATM    7  C   UNL     1      -9.506   6.776  71.483  1.00  0.00    -0.156 C  
HETATM    8  C   UNL     1      -8.423   7.777  71.871  1.00  0.00    -0.114 C  
HETATM    9  S   UNL     1      -8.802   5.378  70.496  1.00  0.00    -0.136 SA 
HETATM   10  O   UNL     1      -7.167   7.272  71.910  1.00  0.00    -0.073 OA 
HETATM   11  O   UNL     1      -8.666   8.924  72.225  1.00  0.00    -0.395 OA 
HETATM   12  H   UNL     1      -7.728   4.728  71.092  1.00  0.00     0.000 H  
ENDBRANCH   3   7
TORSDOF 1
ENDMDL
MODEL      182
REMARK 921   NORMALIZED FREE ENERGY PREDICTED BY IDOCK:   -2.16 KCAL/MOL
REMARK 922        TOTAL FREE ENERGY PREDICTED BY IDOCK:   -1.75 KCAL/MOL
REMARK 923 INTER-LIGAND FREE ENERGY PREDICTED BY IDOCK:   -2.26 KCAL/MOL
REMARK 924 INTRA-LIGAND FREE ENERGY PREDICTED BY IDOCK:    0.51 KCAL/MOL
REMARK 927      BINDING AFFINITY PREDICTED BY RF-SCORE:    0.00 PKD
ROOT
HETATM    1  O   UNL     1     -12.018   5.305  72.869  1.00  0.00    -0.227 OA 
HETATM    2  C   UNL     1     -11.912   6.360  72.027  1.00  0.00    -0.326 C  
HETATM    3  C   UNL     1     -10.509   6.944  71.914  1.00  0.00    -0.201 C  
HETATM    4  O   UNL     1     -12.883   6.793  71.419  1.00  0.00    -0.335 OA 
HETATM    5  S   UNL     1      -9.256   5.596  72.109  1.00  0.00    -0.146 SA 
HETATM    6  H   UNL     1      -7.976   6.130  72.006  1.00  0.00     0.000 H  
ENDROOT
BRANCH   3   7
HETATM    7  C   UNL     1     -10.301   7.713  70.597  1.00  0.00    -0.205 C  
HETATM    8  C   UNL     1     -10.048   6.744  69.446  1.00  0.00    -0.171 C  
HETATM    9  S   UNL     1      -8.999   9.025  70.662  1.00  0.00    -0.237 SA 
HETATM   10  O   UNL     1      -9.312   7.248  68.428  1.00  0.00    -0.143 OA 
HETATM   11  O   UNL     1     -10.552   5.629  69.386  1.00  0.00    -0.272 OA 
HETATM   12  H   UNL     1      -8.811   9.719  69.473  1.00  0.00     0.000 H  
ENDBRANCH   3   7
TORSDOF 1
ENDMDL
MODEL      183
REMARK 921   NORMALIZED FREE ENERGY PREDICTED BY IDOCK:   -2.16 KCAL/MOL
REMARK 922        TOTAL FREE ENERGY PREDICTED BY IDOCK:   -1.75 KCAL/MOL
REMARK 923 INTER-LIGAND FREE ENERGY PREDICTED BY IDOCK:   -2.26 KCAL/MOL
REMARK 924 INTRA-LIGAND FREE ENERGY PREDICTED BY IDOCK:    0.51 KCAL/MOL
REMARK 927      BINDING AFFINITY PREDICTED BY RF-SCORE:    0.00 PKD
ROOT
HETATM    1  O   UNL     1     -12.040   6.572  70.995  1.00  0.00    -0.352 OA 
HETATM    2  C   UNL     1     -11.270   7.446  71.685  1.00  0.00    -0.247 C  
HETATM    3  C   UNL     1      -9.775   7.148  71.641  1.00  0.00    -0.159 C  
HETATM    4  O   UNL     1     -11.760   8.391  72.290  1.00  0.00    -0.343 OA 
HETATM    5  S   UNL     1      -9.340   6.387  70.010  1.00  0.00    -0.156 SA 
HETATM    6  H   UNL     1      -7.977   6.115  69.971  1.00  0.00     0.000 H  
ENDROOT
BRANCH   3   7
HETATM    7  C   UNL     1      -8.922   8.398  71.918  1.00  0.00    -0.214 C  
HETATM    8  C   UNL     1      -8.822   9.266  70.668  1.00  0.00    -0.237 C  
HETATM    9  S   UNL     1      -7.248   8.053  72.627  1.00  0.00    -0.102 SA 
HETATM   10  O   UNL     1      -7.705  10.026  70.589  1.00  0.00    -0.268 OA 
HETATM   11  O   UNL     1      -9.723   9.358  69.842  1.00  0.00    -0.185 OA 
HETATM   12  H   UNL     1      -6.477   9.182  72.876  1.00  0.00     0.000 H  
ENDBRANCH   3   7
TORSDOF 1
ENDMDL
MODEL      184
REMARK 921   NORMALIZED FREE ENERGY PREDICTED BY IDOCK:   -2.15 KCAL/MOL
REMARK 922        TOTAL FREE ENERGY PREDICTED BY IDOCK:   -1.74 KCAL/MOL
REMARK 923 INTER-LIGAND FREE ENERGY PREDICTED BY IDOCK:   -2.09 KCAL/MOL
REMARK 924 INTRA-LIGAND FREE ENERGY PREDICTED BY IDOCK:    0.36 KCAL/MOL
REMARK 927      BINDING AFFINITY PREDICTED BY RF-SCORE:    0.00 PKD
ROOT
HETATM    1  O   UNL     1      -8.732   7.994  65.503  1.00  0.00    -0.157 OA 
HETATM    2  C   UNL     1      -8.907   9.336  65.557  1.00  0.00    -0.187 C  
HETATM    3  C   UNL     1     -10.114   9.787  66.371  1.00  0.00    -0.243 C  
HETATM    4  O   UNL     1      -8.143  10.104  64.986  1.00  0.00    -0.140 OA 
HETATM    5  S   UNL     1     -10.396   8.609  67.772  1.00  0.00    -0.233 SA 
HETATM    6  H   UNL     1     -11.497   9.021  68.514  1.00  0.00     0.000 H  
ENDROOT
BRANCH   3   7
HETATM    7  C   UNL     1      -9.970  11.232  66.879  1.00  0.00    -0.207 C  
HETATM    8  C   UNL     1     -10.239  12.224  65.753  1.00  0.00    -0.255 C  
HETATM    9  S   UNL     1      -8.366  11.601  67.724  1.00  0.00    -0.151 SA 
HETATM   10  O   UNL     1      -9.614  13.418  65.883  1.00  0.00    -0.221 OA 
HETATM   11  O   UNL     1     -11.038  12.012  64.848  1.00  0.00    -0.302 OA 
HETATM   12  H   UNL     1      -8.236  12.906  68.183  1.00  0.00     0.000 H  
ENDBRANCH   3   7
TORSDOF 1
ENDMDL
MODEL      185
REMARK 921   NORMALIZED FREE ENERGY PREDICTED BY IDOCK:   -2.13 KCAL/MOL
REMARK 922        TOTAL FREE ENERGY PREDICTED BY IDOCK:   -1.72 KCAL/MOL
REMARK 923 INTER-LIGAND FREE ENERGY PREDICTED BY IDOCK:   -3.05 KCAL/MOL
REMARK 924 INTRA-LIGAND FREE ENERGY PREDICTED BY IDOCK:    1.33 KCAL/MOL
REMARK 927      BINDING AFFINITY PREDICTED BY RF-SCORE:    0.00 PKD
ROOT
HETATM    1  O   UNL     1     -13.216  11.948  72.138  1.00  0.00    -0.494 OA 
HETATM    2  C   UNL     1     -12.636  11.616  70.960  1.00  0.00    -0.331 C  
HETATM    3  C   UNL     1     -12.490  12.772  69.977  1.00  0.00     0.001 C  
HETATM    4  O   UNL     1     -12.271  10.471  70.726  1.00  0.00    -0.306 OA 
HETATM    5  S   UNL     1     -12.209  14.348  70.906  1.00  0.00    -0.363 SA 
HETATM    6  H   UNL     1     -12.075  15.402  70.009  1.00  0.00     0.000 H  
ENDROOT
BRANCH   3   7
HETATM    7  C   UNL     1     -11.373  12.525  68.948  1.00  0.00    -0.297 C  
HETATM    8  C   UNL     1     -11.556  13.428  67.732  1.00  0.00    -0.340 C  
HETATM    9  S   UNL     1     -11.160  10.759  68.442  1.00  0.00    -0.288 SA 
HETATM   10  O   UNL     1     -11.042  12.942  66.578  1.00  0.00    -0.274 OA 
HETATM   11  O   UNL     1     -12.036  14.553  67.799  1.00  0.00    -0.363 OA 
HETATM   12  H   UNL     1     -10.151  10.536  67.512  1.00  0.00     0.000 H  
ENDBRANCH   3   7
TORSDOF 1
ENDMDL
MODEL      186
REMARK 921   NORMALIZED FREE ENERGY PREDICTED BY IDOCK:   -2.12 KCAL/MOL
REMARK 922        TOTAL FREE ENERGY PREDICTED BY IDOCK:   -1.71 KCAL/MOL
REMARK 923 INTER-LIGAND FREE ENERGY PREDICTED BY IDOCK:   -2.22 KCAL/MOL
REMARK 924 INTRA-LIGAND FREE ENERGY PREDICTED BY IDOCK:    0.51 KCAL/MOL
REMARK 927      BINDING AFFINITY PREDICTED BY RF-SCORE:    0.00 PKD
ROOT
HETATM    1  O   UNL     1     -12.018   6.597  72.010  1.00  0.00    -0.311 OA 
HETATM    2  C   UNL     1     -11.285   6.645  70.872  1.00  0.00    -0.302 C  
HETATM    3  C   UNL     1     -11.226   8.018  70.213  1.00  0.00    -0.190 C  
HETATM    4  O   UNL     1     -10.728   5.650  70.428  1.00  0.00    -0.282 OA 
HETATM    5  S   UNL     1     -11.280   9.336  71.513  1.00  0.00    -0.392 SA 
HETATM    6  H   UNL     1     -11.225  10.588  70.911  1.00  0.00     0.000 H  
ENDROOT
BRANCH   3   7
HETATM    7  C   UNL     1      -9.991   8.179  69.308  1.00  0.00    -0.188 C  
HETATM    8  C   UNL     1      -8.760   8.525  70.139  1.00  0.00    -0.137 C  
HETATM    9  S   UNL     1     -10.207   9.367  67.907  1.00  0.00    -0.224 SA 
HETATM   10  O   UNL     1      -7.808   9.229  69.482  1.00  0.00    -0.076 OA 
HETATM   11  O   UNL     1      -8.585   8.115  71.281  1.00  0.00    -0.121 OA 
HETATM   12  H   UNL     1      -9.092   9.512  67.090  1.00  0.00     0.000 H  
ENDBRANCH   3   7
TORSDOF 1
ENDMDL
MODEL      187
REMARK 921   NORMALIZED FREE ENERGY PREDICTED BY IDOCK:   -2.12 KCAL/MOL
REMARK 922        TOTAL FREE ENERGY PREDICTED BY IDOCK:   -1.70 KCAL/MOL
REMARK 923 INTER-LIGAND FREE ENERGY PREDICTED BY IDOCK:   -2.25 KCAL/MOL
REMARK 924 INTRA-LIGAND FREE ENERGY PREDICTED BY IDOCK:    0.54 KCAL/MOL
REMARK 927      BINDING AFFINITY PREDICTED BY RF-SCORE:    0.00 PKD
ROOT
HETATM    1  O   UNL     1      -7.626   8.539  71.014  1.00  0.00    -0.071 OA 
HETATM    2  C   UNL     1      -8.693   8.452  71.843  1.00  0.00    -0.195 C  
HETATM    3  C   UNL     1      -9.963   7.917  71.191  1.00  0.00    -0.173 C  
HETATM    4  O   UNL     1      -8.618   8.785  73.019  1.00  0.00    -0.382 OA 
HETATM    5  S   UNL     1      -9.520   6.689  69.879  1.00  0.00    -0.155 SA 
HETATM    6  H   UNL     1     -10.678   6.202  69.285  1.00  0.00     0.000 H  
ENDROOT
BRANCH   3   7
HETATM    7  C   UNL     1     -10.935   7.310  72.217  1.00  0.00    -0.249 C  
HETATM    8  C   UNL     1     -10.437   5.946  72.685  1.00  0.00    -0.206 C  
HETATM    9  S   UNL     1     -12.697   7.222  71.659  1.00  0.00    -0.368 SA 
HETATM   10  O   UNL     1     -11.406   5.095  73.097  1.00  0.00    -0.314 OA 
HETATM   11  O   UNL     1      -9.249   5.665  72.785  1.00  0.00    -0.134 OA 
HETATM   12  H   UNL     1     -13.575   6.673  72.586  1.00  0.00     0.000 H  
ENDBRANCH   3   7
TORSDOF 1
ENDMDL
MODEL      188
REMARK 921   NORMALIZED FREE ENERGY PREDICTED BY IDOCK:   -2.11 KCAL/MOL
REMARK 922        TOTAL FREE ENERGY PREDICTED BY IDOCK:   -1.70 KCAL/MOL
REMARK 923 INTER-LIGAND FREE ENERGY PREDICTED BY IDOCK:   -2.22 KCAL/MOL
REMARK 924 INTRA-LIGAND FREE ENERGY PREDICTED BY IDOCK:    0.52 KCAL/MOL
REMARK 927      BINDING AFFINITY PREDICTED BY RF-SCORE:    0.00 PKD
ROOT
HETATM    1  O   UNL     1      -7.967   7.210  68.617  1.00  0.00    -0.119 OA 
HETATM    2  C   UNL     1      -9.208   7.172  69.156  1.00  0.00    -0.139 C  
HETATM    3  C   UNL     1      -9.277   7.583  70.622  1.00  0.00    -0.159 C  
HETATM    4  O   UNL     1     -10.181   6.827  68.498  1.00  0.00    -0.159 OA 
HETATM    5  S   UNL     1      -7.995   8.874  70.967  1.00  0.00    -0.146 SA 
HETATM    6  H   UNL     1      -8.058   9.249  72.304  1.00  0.00     0.000 H  
ENDROOT
BRANCH   3   7
HETATM    7  C   UNL     1     -10.679   8.069  71.028  1.00  0.00    -0.220 C  
HETATM    8  C   UNL     1     -10.879   9.526  70.625  1.00  0.00    -0.306 C  
HETATM    9  S   UNL     1     -11.107   7.804  72.809  1.00  0.00    -0.393 SA 
HETATM   10  O   UNL     1     -11.762  10.213  71.387  1.00  0.00    -0.360 OA 
HETATM   11  O   UNL     1     -10.367  10.022  69.628  1.00  0.00    -0.215 OA 
HETATM   12  H   UNL     1     -12.373   8.243  73.175  1.00  0.00     0.000 H  
ENDBRANCH   3   7
TORSDOF 1
ENDMDL
MODEL      189
REMARK 921   NORMALIZED FREE ENERGY PREDICTED BY IDOCK:   -2.11 KCAL/MOL
REMARK 922        TOTAL FREE ENERGY PREDICTED BY IDOCK:   -1.70 KCAL/MOL
REMARK 923 INTER-LIGAND FREE ENERGY PREDICTED BY IDOCK:   -2.07 KCAL/MOL
REMARK 924 INTRA-LIGAND FREE ENERGY PREDICTED BY IDOCK:    0.37 KCAL/MOL
REMARK 927      BINDING AFFINITY PREDICTED BY RF-SCORE:    0.00 PKD
ROOT
HETATM    1  O   UNL     1     -11.159   5.669  70.644  1.00  0.00    -0.247 OA 
HETATM    2  C   UNL     1     -10.738   6.918  70.335  1.00  0.00    -0.246 C  
HETATM    3  C   UNL     1      -9.297   6.999  69.844  1.00  0.00    -0.150 C  
HETATM    4  O   UNL     1     -11.474   7.889  70.452  1.00  0.00    -0.246 OA 
HETATM    5  S   UNL     1      -8.871   5.459  68.909  1.00  0.00    -0.100 SA 
HETATM    6  H   UNL     1      -7.557   5.533  68.462  1.00  0.00     0.000 H  
ENDROOT
BRANCH   3   7
HETATM    7  C   UNL     1      -9.039   8.255  68.994  1.00  0.00    -0.147 C  
HETATM    8  C   UNL     1      -9.000   9.499  69.876  1.00  0.00    -0.212 C  
HETATM    9  S   UNL     1     -10.198   8.481  67.571  1.00  0.00    -0.261 SA 
HETATM   10  O   UNL     1      -9.353  10.649  69.255  1.00  0.00    -0.187 OA 
HETATM   11  O   UNL     1      -8.586   9.491  71.029  1.00  0.00    -0.273 OA 
HETATM   12  H   UNL     1      -9.965   9.616  66.804  1.00  0.00     0.000 H  
ENDBRANCH   3   7
TORSDOF 1
ENDMDL
MODEL      190
REMARK 921   NORMALIZED FREE ENERGY PREDICTED BY IDOCK:   -2.11 KCAL/MOL
REMARK 922        TOTAL FREE ENERGY PREDICTED BY IDOCK:   -1.69 KCAL/MOL
REMARK 923 INTER-LIGAND FREE ENERGY PREDICTED BY IDOCK:   -3.03 KCAL/MOL
REMARK 924 INTRA-LIGAND FREE ENERGY PREDICTED BY IDOCK:    1.33 KCAL/MOL
REMARK 927      BINDING AFFINITY PREDICTED BY RF-SCORE:    0.00 PKD
ROOT
HETATM    1  O   UNL     1     -11.032  12.256  65.714  1.00  0.00    -0.280 OA 
HETATM    2  C   UNL     1     -11.461  12.772  66.890  1.00  0.00    -0.340 C  
HETATM    3  C   UNL     1     -11.625  11.750  68.009  1.00  0.00    -0.316 C  
HETATM    4  O   UNL     1     -11.696  13.967  67.017  1.00  0.00    -0.353 OA 
HETATM    5  S   UNL     1     -10.360  10.412  67.821  1.00  0.00    -0.222 SA 
HETATM    6  H   UNL     1     -10.509   9.480  68.841  1.00  0.00     0.000 H  
ENDROOT
BRANCH   3   7
HETATM    7  C   UNL     1     -11.551  12.394  69.404  1.00  0.00    -0.307 C  
HETATM    8  C   UNL     1     -12.173  11.477  70.452  1.00  0.00    -0.355 C  
HETATM    9  S   UNL     1     -12.255  14.102  69.509  1.00  0.00    -0.242 SA 
HETATM   10  O   UNL     1     -12.681  12.110  71.535  1.00  0.00    -0.330 OA 
HETATM   11  O   UNL     1     -12.131  10.254  70.382  1.00  0.00    -0.279 OA 
HETATM   12  H   UNL     1     -12.188  14.683  70.769  1.00  0.00     0.000 H  
ENDBRANCH   3   7
TORSDOF 1
ENDMDL
MODEL      191
REMARK 921   NORMALIZED FREE ENERGY PREDICTED BY IDOCK:   -2.10 KCAL/MOL
REMARK 922        TOTAL FREE ENERGY PREDICTED BY IDOCK:   -1.69 KCAL/MOL
REMARK 923 INTER-LIGAND FREE ENERGY PREDICTED BY IDOCK:   -2.05 KCAL/MOL
REMARK 924 INTRA-LIGAND FREE ENERGY PREDICTED BY IDOCK:    0.36 KCAL/MOL
REMARK 927      BINDING AFFINITY PREDICTED BY RF-SCORE:    0.00 PKD
ROOT
HETATM    1  O   UNL     1      -8.631  11.287  68.290  1.00  0.00    -0.140 OA 
HETATM    2  C   UNL     1      -8.784  10.172  69.041  1.00  0.00    -0.161 C  
HETATM    3  C   UNL     1     -10.123  10.069  69.761  1.00  0.00    -0.248 C  
HETATM    4  O   UNL     1      -7.899   9.329  69.122  1.00  0.00    -0.082 OA 
HETATM    5  S   UNL     1     -11.444  10.863  68.734  1.00  0.00    -0.316 SA 
HETATM    6  H   UNL     1     -12.666  10.769  69.391  1.00  0.00     0.000 H  
ENDROOT
BRANCH   3   7
HETATM    7  C   UNL     1     -10.488   8.617  70.112  1.00  0.00    -0.217 C  
HETATM    8  C   UNL     1      -9.655   8.125  71.291  1.00  0.00    -0.162 C  
HETATM    9  S   UNL     1     -10.404   7.431  68.695  1.00  0.00    -0.192 SA 
HETATM   10  O   UNL     1      -9.451   6.787  71.327  1.00  0.00    -0.165 OA 
HETATM   11  O   UNL     1      -9.280   8.858  72.199  1.00  0.00    -0.364 OA 
HETATM   12  H   UNL     1     -10.734   6.119  69.013  1.00  0.00     0.000 H  
ENDBRANCH   3   7
TORSDOF 1
ENDMDL
MODEL      192
REMARK 921   NORMALIZED FREE ENERGY PREDICTED BY IDOCK:   -2.10 KCAL/MOL
REMARK 922        TOTAL FREE ENERGY PREDICTED BY IDOCK:   -1.69 KCAL/MOL
REMARK 923 INTER-LIGAND FREE ENERGY PREDICTED BY IDOCK:   -2.05 KCAL/MOL
REMARK 924 INTRA-LIGAND FREE ENERGY PREDICTED BY IDOCK:    0.37 KCAL/MOL
REMARK 927      BINDING AFFINITY PREDICTED BY RF-SCORE:    0.00 PKD
ROOT
HETATM    1  O   UNL     1     -10.285  13.892  65.363  1.00  0.00    -0.321 OA 
HETATM    2  C   UNL     1      -9.762  12.972  66.207  1.00  0.00    -0.263 C  
HETATM    3  C   UNL     1     -10.193  11.537  65.928  1.00  0.00    -0.244 C  
HETATM    4  O   UNL     1      -9.007  13.294  67.116  1.00  0.00    -0.212 OA 
HETATM    5  S   UNL     1     -10.447  11.304  64.109  1.00  0.00    -0.392 SA 
HETATM    6  H   UNL     1     -10.840   9.995  63.856  1.00  0.00     0.000 H  
ENDROOT
BRANCH   3   7
HETATM    7  C   UNL     1      -9.195  10.508  66.488  1.00  0.00    -0.161 C  
HETATM    8  C   UNL     1      -9.299  10.433  68.007  1.00  0.00    -0.140 C  
HETATM    9  S   UNL     1      -7.442  10.755  65.949  1.00  0.00    -0.050 SA 
HETATM   10  O   UNL     1      -8.165  10.046  68.638  1.00  0.00    -0.103 OA 
HETATM   11  O   UNL     1     -10.347  10.604  68.617  1.00  0.00    -0.168 OA 
HETATM   12  H   UNL     1      -6.541   9.825  66.454  1.00  0.00     0.000 H  
ENDBRANCH   3   7
TORSDOF 1
ENDMDL
MODEL      193
REMARK 921   NORMALIZED FREE ENERGY PREDICTED BY IDOCK:   -2.10 KCAL/MOL
REMARK 922        TOTAL FREE ENERGY PREDICTED BY IDOCK:   -1.68 KCAL/MOL
REMARK 923 INTER-LIGAND FREE ENERGY PREDICTED BY IDOCK:   -2.04 KCAL/MOL
REMARK 924 INTRA-LIGAND FREE ENERGY PREDICTED BY IDOCK:    0.36 KCAL/MOL
REMARK 927      BINDING AFFINITY PREDICTED BY RF-SCORE:    0.00 PKD
ROOT
HETATM    1  O   UNL     1     -10.066  10.341  65.659  1.00  0.00    -0.273 OA 
HETATM    2  C   UNL     1     -10.096   9.732  66.868  1.00  0.00    -0.226 C  
HETATM    3  C   UNL     1      -9.097  10.282  67.880  1.00  0.00    -0.131 C  
HETATM    4  O   UNL     1     -10.871   8.814  67.103  1.00  0.00    -0.209 OA 
HETATM    5  S   UNL     1      -8.855  12.095  67.595  1.00  0.00    -0.182 SA 
HETATM    6  H   UNL     1      -7.944  12.595  68.518  1.00  0.00     0.000 H  
ENDROOT
BRANCH   3   7
HETATM    7  C   UNL     1      -9.519   9.997  69.332  1.00  0.00    -0.223 C  
HETATM    8  C   UNL     1      -9.288   8.531  69.679  1.00  0.00    -0.157 C  
HETATM    9  S   UNL     1     -11.243  10.520  69.754  1.00  0.00    -0.318 SA 
HETATM   10  O   UNL     1     -10.102   8.037  70.642  1.00  0.00    -0.193 OA 
HETATM   11  O   UNL     1      -8.372   7.867  69.208  1.00  0.00    -0.131 OA 
HETATM   12  H   UNL     1     -11.625  10.263  71.065  1.00  0.00     0.000 H  
ENDBRANCH   3   7
TORSDOF 1
ENDMDL
MODEL      194
REMARK 921   NORMALIZED FREE ENERGY PREDICTED BY IDOCK:   -2.08 KCAL/MOL
REMARK 922        TOTAL FREE ENERGY PREDICTED BY IDOCK:   -1.66 KCAL/MOL
REMARK 923 INTER-LIGAND FREE ENERGY PREDICTED BY IDOCK:   -2.17 KCAL/MOL
REMARK 924 INTRA-LIGAND FREE ENERGY PREDICTED BY IDOCK:    0.51 KCAL/MOL
REMARK 927      BINDING AFFINITY PREDICTED BY RF-SCORE:    0.00 PKD
ROOT
HETATM    1  O   UNL     1     -11.006   9.101  71.933  1.00  0.00    -0.364 OA 
HETATM    2  C   UNL     1     -10.179   8.124  72.375  1.00  0.00    -0.298 C  
HETATM    3  C   UNL     1     -10.662   6.707  72.089  1.00  0.00    -0.218 C  
HETATM    4  O   UNL     1      -9.135   8.385  72.959  1.00  0.00    -0.253 OA 
HETATM    5  S   UNL     1     -11.601   6.679  70.494  1.00  0.00    -0.383 SA 
HETATM    6  H   UNL     1     -12.040   5.386  70.233  1.00  0.00     0.000 H  
ENDROOT
BRANCH   3   7
HETATM    7  C   UNL     1      -9.508   5.689  72.074  1.00  0.00    -0.150 C  
HETATM    8  C   UNL     1      -8.760   5.747  70.746  1.00  0.00    -0.130 C  
HETATM    9  S   UNL     1      -9.999   3.954  72.489  1.00  0.00    -0.166 SA 
HETATM   10  O   UNL     1      -8.151   4.594  70.384  1.00  0.00    -0.069 OA 
HETATM   11  O   UNL     1      -8.623   6.778  70.098  1.00  0.00    -0.138 OA 
HETATM   12  H   UNL     1      -8.956   3.035  72.475  1.00  0.00     0.000 H  
ENDBRANCH   3   7
TORSDOF 1
ENDMDL
MODEL      195
REMARK 921   NORMALIZED FREE ENERGY PREDICTED BY IDOCK:   -2.05 KCAL/MOL
REMARK 922        TOTAL FREE ENERGY PREDICTED BY IDOCK:   -1.64 KCAL/MOL
REMARK 923 INTER-LIGAND FREE ENERGY PREDICTED BY IDOCK:   -1.99 KCAL/MOL
REMARK 924 INTRA-LIGAND FREE ENERGY PREDICTED BY IDOCK:    0.36 KCAL/MOL
REMARK 927      BINDING AFFINITY PREDICTED BY RF-SCORE:    0.00 PKD
ROOT
HETATM    1  O   UNL     1      -9.716   6.870  66.656  1.00  0.00    -0.177 OA 
HETATM    2  C   UNL     1      -9.176   7.604  67.656  1.00  0.00    -0.135 C  
HETATM    3  C   UNL     1     -10.043   7.710  68.906  1.00  0.00    -0.197 C  
HETATM    4  O   UNL     1      -8.078   8.134  67.541  1.00  0.00    -0.119 OA 
HETATM    5  S   UNL     1     -11.016   6.151  69.122  1.00  0.00    -0.373 SA 
HETATM    6  H   UNL     1     -11.807   6.248  70.262  1.00  0.00     0.000 H  
ENDROOT
BRANCH   3   7
HETATM    7  C   UNL     1      -9.217   8.031  70.164  1.00  0.00    -0.152 C  
HETATM    8  C   UNL     1      -8.798   9.497  70.170  1.00  0.00    -0.235 C  
HETATM    9  S   UNL     1      -7.765   6.920  70.443  1.00  0.00    -0.101 SA 
HETATM   10  O   UNL     1      -7.658   9.762  70.850  1.00  0.00    -0.319 OA 
HETATM   11  O   UNL     1      -9.483  10.393  69.690  1.00  0.00    -0.187 OA 
HETATM   12  H   UNL     1      -7.020   7.210  71.580  1.00  0.00     0.000 H  
ENDBRANCH   3   7
TORSDOF 1
ENDMDL
MODEL      196
REMARK 921   NORMALIZED FREE ENERGY PREDICTED BY IDOCK:   -2.04 KCAL/MOL
REMARK 922        TOTAL FREE ENERGY PREDICTED BY IDOCK:   -1.63 KCAL/MOL
REMARK 923 INTER-LIGAND FREE ENERGY PREDICTED BY IDOCK:   -1.99 KCAL/MOL
REMARK 924 INTRA-LIGAND FREE ENERGY PREDICTED BY IDOCK:    0.36 KCAL/MOL
REMARK 927      BINDING AFFINITY PREDICTED BY RF-SCORE:    0.00 PKD
ROOT
HETATM    1  O   UNL     1      -7.483   6.894  68.784  1.00  0.00    -0.094 OA 
HETATM    2  C   UNL     1      -8.567   7.498  69.326  1.00  0.00    -0.136 C  
HETATM    3  C   UNL     1      -8.301   8.885  69.900  1.00  0.00    -0.128 C  
HETATM    4  O   UNL     1      -9.663   6.951  69.343  1.00  0.00    -0.157 OA 
HETATM    5  S   UNL     1      -6.986   9.728  68.907  1.00  0.00    -0.063 SA 
HETATM    6  H   UNL     1      -6.743  10.992  69.432  1.00  0.00     0.000 H  
ENDROOT
BRANCH   3   7
HETATM    7  C   UNL     1      -9.577   9.741  69.975  1.00  0.00    -0.241 C  
HETATM    8  C   UNL     1     -10.462   9.283  71.129  1.00  0.00    -0.331 C  
HETATM    9  S   UNL     1     -10.538   9.841  68.397  1.00  0.00    -0.221 SA 
HETATM   10  O   UNL     1     -11.784   9.525  70.965  1.00  0.00    -0.295 OA 
HETATM   11  O   UNL     1     -10.017   8.826  72.175  1.00  0.00    -0.320 OA 
HETATM   12  H   UNL     1     -11.690  10.615  68.464  1.00  0.00     0.000 H  
ENDBRANCH   3   7
TORSDOF 1
ENDMDL
MODEL      197
REMARK 921   NORMALIZED FREE ENERGY PREDICTED BY IDOCK:   -2.04 KCAL/MOL
REMARK 922        TOTAL FREE ENERGY PREDICTED BY IDOCK:   -1.62 KCAL/MOL
REMARK 923 INTER-LIGAND FREE ENERGY PREDICTED BY IDOCK:   -1.99 KCAL/MOL
REMARK 924 INTRA-LIGAND FREE ENERGY PREDICTED BY IDOCK:    0.37 KCAL/MOL
REMARK 927      BINDING AFFINITY PREDICTED BY RF-SCORE:    0.00 PKD
ROOT
HETATM    1  O   UNL     1      -8.668   9.567  66.239  1.00  0.00    -0.137 OA 
HETATM    2  C   UNL     1      -9.584  10.075  67.097  1.00  0.00    -0.165 C  
HETATM    3  C   UNL     1      -9.008  10.990  68.171  1.00  0.00    -0.152 C  
HETATM    4  O   UNL     1     -10.773   9.802  66.998  1.00  0.00    -0.234 OA 
HETATM    5  S   UNL     1      -7.548  11.904  67.493  1.00  0.00    -0.150 SA 
HETATM    6  H   UNL     1      -7.023  12.739  68.473  1.00  0.00     0.000 H  
ENDROOT
BRANCH   3   7
HETATM    7  C   UNL     1     -10.059  11.961  68.736  1.00  0.00    -0.120 C  
HETATM    8  C   UNL     1     -11.042  11.221  69.637  1.00  0.00    -0.206 C  
HETATM    9  S   UNL     1     -10.948  12.969  67.464  1.00  0.00    -0.267 SA 
HETATM   10  O   UNL     1     -12.273  11.779  69.719  1.00  0.00    -0.269 OA 
HETATM   11  O   UNL     1     -10.727  10.255  70.322  1.00  0.00    -0.288 OA 
HETATM   12  H   UNL     1     -11.898  13.845  67.975  1.00  0.00     0.000 H  
ENDBRANCH   3   7
TORSDOF 1
ENDMDL
MODEL      198
REMARK 921   NORMALIZED FREE ENERGY PREDICTED BY IDOCK:   -2.02 KCAL/MOL
REMARK 922        TOTAL FREE ENERGY PREDICTED BY IDOCK:   -1.60 KCAL/MOL
REMARK 923 INTER-LIGAND FREE ENERGY PREDICTED BY IDOCK:   -2.13 KCAL/MOL
REMARK 924 INTRA-LIGAND FREE ENERGY PREDICTED BY IDOCK:    0.52 KCAL/MOL
REMARK 927      BINDING AFFINITY PREDICTED BY RF-SCORE:    0.00 PKD
ROOT
HETATM    1  O   UNL     1      -8.749   8.094  72.739  1.00  0.00    -0.177 OA 
HETATM    2  C   UNL     1      -9.865   8.378  72.027  1.00  0.00    -0.284 C  
HETATM    3  C   UNL     1      -9.695   9.485  70.993  1.00  0.00    -0.126 C  
HETATM    4  O   UNL     1     -10.916   7.780  72.221  1.00  0.00    -0.249 OA 
HETATM    5  S   UNL     1      -7.971   9.447  70.319  1.00  0.00    -0.173 SA 
HETATM    6  H   UNL     1      -7.816  10.457  69.376  1.00  0.00     0.000 H  
ENDROOT
BRANCH   3   7
HETATM    7  C   UNL     1     -10.737   9.395  69.865  1.00  0.00    -0.234 C  
HETATM    8  C   UNL     1     -10.297   8.386  68.809  1.00  0.00    -0.206 C  
HETATM    9  S   UNL     1     -11.185  11.016  69.093  1.00  0.00    -0.281 SA 
HETATM   10  O   UNL     1     -10.774   8.619  67.564  1.00  0.00    -0.249 OA 
HETATM   11  O   UNL     1      -9.649   7.380  69.072  1.00  0.00    -0.148 OA 
HETATM   12  H   UNL     1     -12.126  10.935  68.074  1.00  0.00     0.000 H  
ENDBRANCH   3   7
TORSDOF 1
ENDMDL
MODEL      199
REMARK 921   NORMALIZED FREE ENERGY PREDICTED BY IDOCK:   -2.00 KCAL/MOL
REMARK 922        TOTAL FREE ENERGY PREDICTED BY IDOCK:   -1.58 KCAL/MOL
REMARK 923 INTER-LIGAND FREE ENERGY PREDICTED BY IDOCK:   -2.91 KCAL/MOL
REMARK 924 INTRA-LIGAND FREE ENERGY PREDICTED BY IDOCK:    1.33 KCAL/MOL
REMARK 927      BINDING AFFINITY PREDICTED BY RF-SCORE:    0.00 PKD
ROOT
HETATM    1  O   UNL     1     -10.135   7.146  68.843  1.00  0.00    -0.167 OA 
HETATM    2  C   UNL     1     -10.627   8.386  69.068  1.00  0.00    -0.154 C  
HETATM    3  C   UNL     1     -11.465   8.517  70.334  1.00  0.00    -0.126 C  
HETATM    4  O   UNL     1     -10.405   9.312  68.298  1.00  0.00    -0.200 OA 
HETATM    5  S   UNL     1     -10.816   7.367  71.632  1.00  0.00    -0.221 SA 
HETATM    6  H   UNL     1     -11.581   7.486  72.786  1.00  0.00     0.000 H  
ENDROOT
BRANCH   3   7
HETATM    7  C   UNL     1     -11.522   9.965  70.851  1.00  0.00    -0.376 C  
HETATM    8  C   UNL     1     -12.698  10.148  71.804  1.00  0.00    -0.434 C  
HETATM    9  S   UNL     1     -11.524  11.261  69.530  1.00  0.00    -0.332 SA 
HETATM   10  O   UNL     1     -13.193  11.407  71.864  1.00  0.00    -0.484 OA 
HETATM   11  O   UNL     1     -13.108   9.260  72.542  1.00  0.00    -0.418 OA 
HETATM   12  H   UNL     1     -11.575  12.568  69.998  1.00  0.00     0.000 H  
ENDBRANCH   3   7
TORSDOF 1
ENDMDL
MODEL      200
REMARK 921   NORMALIZED FREE ENERGY PREDICTED BY IDOCK:   -1.99 KCAL/MOL
REMARK 922        TOTAL FREE ENERGY PREDICTED BY IDOCK:   -1.57 KCAL/MOL
REMARK 923 INTER-LIGAND FREE ENERGY PREDICTED BY IDOCK:   -2.12 KCAL/MOL
REMARK 924 INTRA-LIGAND FREE ENERGY PREDICTED BY IDOCK:    0.54 KCAL/MOL
REMARK 927      BINDING AFFINITY PREDICTED BY RF-SCORE:    0.00 PKD
ROOT
HETATM    1  O   UNL     1      -8.696   8.143  65.412  1.00  0.00    -0.160 OA 
HETATM    2  C   UNL     1      -8.834   9.468  65.172  1.00  0.00    -0.186 C  
HETATM    3  C   UNL     1     -10.066  10.103  65.806  1.00  0.00    -0.254 C  
HETATM    4  O   UNL     1      -8.021  10.083  64.494  1.00  0.00    -0.139 OA 
HETATM    5  S   UNL     1     -10.451   9.256  67.406  1.00  0.00    -0.253 SA 
HETATM    6  H   UNL     1     -11.574   9.835  67.983  1.00  0.00     0.000 H  
ENDROOT
BRANCH   3   7
HETATM    7  C   UNL     1      -9.905  11.621  66.004  1.00  0.00    -0.230 C  
HETATM    8  C   UNL     1      -9.176  11.915  67.311  1.00  0.00    -0.179 C  
HETATM    9  S   UNL     1     -11.476  12.590  65.882  1.00  0.00    -0.392 SA 
HETATM   10  O   UNL     1      -9.468  13.114  67.869  1.00  0.00    -0.203 OA 
HETATM   11  O   UNL     1      -8.313  11.181  67.777  1.00  0.00    -0.118 OA 
HETATM   12  H   UNL     1     -11.330  13.960  66.061  1.00  0.00     0.000 H  
ENDBRANCH   3   7
TORSDOF 1
ENDMDL
MODEL      201
REMARK 921   NORMALIZED FREE ENERGY PREDICTED BY IDOCK:   -1.99 KCAL/MOL
REMARK 922        TOTAL FREE ENERGY PREDICTED BY IDOCK:   -1.57 KCAL/MOL
REMARK 923 INTER-LIGAND FREE ENERGY PREDICTED BY IDOCK:   -2.08 KCAL/MOL
REMARK 924 INTRA-LIGAND FREE ENERGY PREDICTED BY IDOCK:    0.51 KCAL/MOL
REMARK 927      BINDING AFFINITY PREDICTED BY RF-SCORE:    0.00 PKD
ROOT
HETATM    1  O   UNL     1      -9.616   8.839  65.771  1.00  0.00    -0.219 OA 
HETATM    2  C   UNL     1     -10.200   9.227  66.929  1.00  0.00    -0.256 C  
HETATM    3  C   UNL     1     -10.273   8.144  67.999  1.00  0.00    -0.212 C  
HETATM    4  O   UNL     1     -10.631  10.364  67.078  1.00  0.00    -0.243 OA 
HETATM    5  S   UNL     1      -8.799   7.032  67.860  1.00  0.00    -0.122 SA 
HETATM    6  H   UNL     1      -8.865   6.045  68.835  1.00  0.00     0.000 H  
ENDROOT
BRANCH   3   7
HETATM    7  C   UNL     1     -10.396   8.730  69.416  1.00  0.00    -0.214 C  
HETATM    8  C   UNL     1      -9.041   9.223  69.912  1.00  0.00    -0.191 C  
HETATM    9  S   UNL     1     -11.192   7.607  70.653  1.00  0.00    -0.257 SA 
HETATM   10  O   UNL     1      -8.888   9.213  71.257  1.00  0.00    -0.257 OA 
HETATM   11  O   UNL     1      -8.186   9.692  69.170  1.00  0.00    -0.107 OA 
HETATM   12  H   UNL     1     -11.304   8.137  71.933  1.00  0.00     0.000 H  
ENDBRANCH   3   7
TORSDOF 1
ENDMDL
MODEL      202
REMARK 921   NORMALIZED FREE ENERGY PREDICTED BY IDOCK:   -1.96 KCAL/MOL
REMARK 922        TOTAL FREE ENERGY PREDICTED BY IDOCK:   -1.54 KCAL/MOL
REMARK 923 INTER-LIGAND FREE ENERGY PREDICTED BY IDOCK:   -2.15 KCAL/MOL
REMARK 924 INTRA-LIGAND FREE ENERGY PREDICTED BY IDOCK:    0.61 KCAL/MOL
REMARK 927      BINDING AFFINITY PREDICTED BY RF-SCORE:    0.00 PKD
ROOT
HETATM    1  O   UNL     1      -9.843  10.901  66.569  1.00  0.00    -0.193 OA 
HETATM    2  C   UNL     1     -10.182   9.842  67.342  1.00  0.00    -0.222 C  
HETATM    3  C   UNL     1      -9.624   8.505  66.868  1.00  0.00    -0.197 C  
HETATM    4  O   UNL     1     -10.886   9.974  68.335  1.00  0.00    -0.226 OA 
HETATM    5  S   UNL     1      -7.975   8.768  66.069  1.00  0.00    -0.110 SA 
HETATM    6  H   UNL     1      -7.466   7.549  65.637  1.00  0.00     0.000 H  
ENDROOT
BRANCH   3   7
HETATM    7  C   UNL     1      -9.533   7.473  68.006  1.00  0.00    -0.142 C  
HETATM    8  C   UNL     1     -10.760   6.568  68.006  1.00  0.00    -0.283 C  
HETATM    9  S   UNL     1      -9.235   8.193  69.684  1.00  0.00    -0.155 SA 
HETATM   10  O   UNL     1     -11.084   6.046  69.212  1.00  0.00    -0.364 OA 
HETATM   11  O   UNL     1     -11.355   6.244  66.984  1.00  0.00    -0.263 OA 
HETATM   12  H   UNL     1      -9.154   7.261  70.711  1.00  0.00     0.000 H  
ENDBRANCH   3   7
TORSDOF 1
ENDMDL
MODEL      203
REMARK 921   NORMALIZED FREE ENERGY PREDICTED BY IDOCK:   -1.96 KCAL/MOL
REMARK 922        TOTAL FREE ENERGY PREDICTED BY IDOCK:   -1.54 KCAL/MOL
REMARK 923 INTER-LIGAND FREE ENERGY PREDICTED BY IDOCK:   -1.99 KCAL/MOL
REMARK 924 INTRA-LIGAND FREE ENERGY PREDICTED BY IDOCK:    0.45 KCAL/MOL
REMARK 927      BINDING AFFINITY PREDICTED BY RF-SCORE:    0.00 PKD
ROOT
HETATM    1  O   UNL     1      -9.186   7.667  71.335  1.00  0.00    -0.136 OA 
HETATM    2  C   UNL     1      -9.172   7.076  70.117  1.00  0.00    -0.152 C  
HETATM    3  C   UNL     1     -10.398   6.223  69.812  1.00  0.00    -0.207 C  
HETATM    4  O   UNL     1      -8.236   7.228  69.343  1.00  0.00    -0.127 OA 
HETATM    5  S   UNL     1     -11.886   6.955  70.635  1.00  0.00    -0.337 SA 
HETATM    6  H   UNL     1     -13.004   6.176  70.357  1.00  0.00     0.000 H  
ENDROOT
BRANCH   3   7
HETATM    7  C   UNL     1     -10.627   6.049  68.301  1.00  0.00    -0.261 C  
HETATM    8  C   UNL     1      -9.836   4.857  67.773  1.00  0.00    -0.147 C  
HETATM    9  S   UNL     1     -10.307   7.564  67.288  1.00  0.00    -0.324 SA 
HETATM   10  O   UNL     1      -9.489   4.935  66.467  1.00  0.00    -0.132 OA 
HETATM   11  O   UNL     1      -9.613   3.852  68.439  1.00  0.00    -0.162 OA 
HETATM   12  H   UNL     1     -10.514   7.406  65.923  1.00  0.00     0.000 H  
ENDBRANCH   3   7
TORSDOF 1
ENDMDL
MODEL      204
REMARK 921   NORMALIZED FREE ENERGY PREDICTED BY IDOCK:   -1.96 KCAL/MOL
REMARK 922        TOTAL FREE ENERGY PREDICTED BY IDOCK:   -1.54 KCAL/MOL
REMARK 923 INTER-LIGAND FREE ENERGY PREDICTED BY IDOCK:   -2.05 KCAL/MOL
REMARK 924 INTRA-LIGAND FREE ENERGY PREDICTED BY IDOCK:    0.51 KCAL/MOL
REMARK 927      BINDING AFFINITY PREDICTED BY RF-SCORE:    0.00 PKD
ROOT
HETATM    1  O   UNL     1     -10.021  13.177  66.409  1.00  0.00    -0.269 OA 
HETATM    2  C   UNL     1      -9.788  12.080  67.168  1.00  0.00    -0.196 C  
HETATM    3  C   UNL     1     -10.249  10.767  66.545  1.00  0.00    -0.235 C  
HETATM    4  O   UNL     1      -9.251  12.163  68.265  1.00  0.00    -0.194 OA 
HETATM    5  S   UNL     1     -10.076  10.857  64.704  1.00  0.00    -0.350 SA 
HETATM    6  H   UNL     1     -10.496   9.660  64.136  1.00  0.00     0.000 H  
ENDROOT
BRANCH   3   7
HETATM    7  C   UNL     1      -9.497   9.553  67.117  1.00  0.00    -0.149 C  
HETATM    8  C   UNL     1      -8.109   9.442  66.495  1.00  0.00    -0.111 C  
HETATM    9  S   UNL     1     -10.411   7.949  67.001  1.00  0.00    -0.340 SA 
HETATM   10  O   UNL     1      -7.601   8.188  66.454  1.00  0.00    -0.088 OA 
HETATM   11  O   UNL     1      -7.449  10.415  66.150  1.00  0.00    -0.118 OA 
HETATM   12  H   UNL     1      -9.731   6.852  67.518  1.00  0.00     0.000 H  
ENDBRANCH   3   7
TORSDOF 1
ENDMDL
MODEL      205
REMARK 921   NORMALIZED FREE ENERGY PREDICTED BY IDOCK:   -1.95 KCAL/MOL
REMARK 922        TOTAL FREE ENERGY PREDICTED BY IDOCK:   -1.53 KCAL/MOL
REMARK 923 INTER-LIGAND FREE ENERGY PREDICTED BY IDOCK:   -1.88 KCAL/MOL
REMARK 924 INTRA-LIGAND FREE ENERGY PREDICTED BY IDOCK:    0.36 KCAL/MOL
REMARK 927      BINDING AFFINITY PREDICTED BY RF-SCORE:    0.00 PKD
ROOT
HETATM    1  O   UNL     1     -10.049   9.843  65.252  1.00  0.00    -0.313 OA 
HETATM    2  C   UNL     1      -9.931   9.777  66.599  1.00  0.00    -0.229 C  
HETATM    3  C   UNL     1      -9.344   8.471  67.122  1.00  0.00    -0.152 C  
HETATM    4  O   UNL     1     -10.278  10.705  67.318  1.00  0.00    -0.190 OA 
HETATM    5  S   UNL     1      -8.121   7.805  65.902  1.00  0.00    -0.128 SA 
HETATM    6  H   UNL     1      -7.586   6.614  66.379  1.00  0.00     0.000 H  
ENDROOT
BRANCH   3   7
HETATM    7  C   UNL     1      -8.711   8.631  68.515  1.00  0.00    -0.139 C  
HETATM    8  C   UNL     1      -9.792   8.729  69.586  1.00  0.00    -0.183 C  
HETATM    9  S   UNL     1      -7.497  10.019  68.661  1.00  0.00    -0.086 SA 
HETATM   10  O   UNL     1      -9.434   9.418  70.695  1.00  0.00    -0.251 OA 
HETATM   11  O   UNL     1     -10.867   8.148  69.509  1.00  0.00    -0.213 OA 
HETATM   12  H   UNL     1      -6.925  10.163  69.919  1.00  0.00     0.000 H  
ENDBRANCH   3   7
TORSDOF 1
ENDMDL
MODEL      206
REMARK 921   NORMALIZED FREE ENERGY PREDICTED BY IDOCK:   -1.93 KCAL/MOL
REMARK 922        TOTAL FREE ENERGY PREDICTED BY IDOCK:   -1.51 KCAL/MOL
REMARK 923 INTER-LIGAND FREE ENERGY PREDICTED BY IDOCK:   -1.92 KCAL/MOL
REMARK 924 INTRA-LIGAND FREE ENERGY PREDICTED BY IDOCK:    0.40 KCAL/MOL
REMARK 927      BINDING AFFINITY PREDICTED BY RF-SCORE:    0.00 PKD
ROOT
HETATM    1  O   UNL     1      -7.207   7.540  72.469  1.00  0.00    -0.070 OA 
HETATM    2  C   UNL     1      -8.219   8.168  71.825  1.00  0.00    -0.130 C  
HETATM    3  C   UNL     1      -8.343   7.822  70.346  1.00  0.00    -0.123 C  
HETATM    4  O   UNL     1      -8.959   8.951  72.407  1.00  0.00    -0.383 OA 
HETATM    5  S   UNL     1      -7.820   6.067  70.072  1.00  0.00    -0.106 SA 
HETATM    6  H   UNL     1      -7.933   5.752  68.722  1.00  0.00     0.000 H  
ENDROOT
BRANCH   3   7
HETATM    7  C   UNL     1      -9.761   8.072  69.804  1.00  0.00    -0.176 C  
HETATM    8  C   UNL     1     -10.047   9.568  69.723  1.00  0.00    -0.216 C  
HETATM    9  S   UNL     1     -11.106   7.182  70.710  1.00  0.00    -0.279 SA 
HETATM   10  O   UNL     1     -11.354   9.905  69.827  1.00  0.00    -0.239 OA 
HETATM   11  O   UNL     1      -9.185  10.403  69.480  1.00  0.00    -0.194 OA 
HETATM   12  H   UNL     1     -12.387   7.408  70.221  1.00  0.00     0.000 H  
ENDBRANCH   3   7
TORSDOF 1
ENDMDL
MODEL      207
REMARK 921   NORMALIZED FREE ENERGY PREDICTED BY IDOCK:   -1.92 KCAL/MOL
REMARK 922        TOTAL FREE ENERGY PREDICTED BY IDOCK:   -1.49 KCAL/MOL
REMARK 923 INTER-LIGAND FREE ENERGY PREDICTED BY IDOCK:   -1.86 KCAL/MOL
REMARK 924 INTRA-LIGAND FREE ENERGY PREDICTED BY IDOCK:    0.36 KCAL/MOL
REMARK 927      BINDING AFFINITY PREDICTED BY RF-SCORE:    0.00 PKD
ROOT
HETATM    1  O   UNL     1     -11.088   6.994  69.963  1.00  0.00    -0.265 OA 
HETATM    2  C   UNL     1      -9.829   7.215  70.409  1.00  0.00    -0.176 C  
HETATM    3  C   UNL     1      -9.737   8.127  71.626  1.00  0.00    -0.179 C  
HETATM    4  O   UNL     1      -8.858   6.712  69.857  1.00  0.00    -0.142 OA 
HETATM    5  S   UNL     1     -11.229   7.890  72.696  1.00  0.00    -0.398 SA 
HETATM    6  H   UNL     1     -11.145   8.722  73.806  1.00  0.00     0.000 H  
ENDROOT
BRANCH   3   7
HETATM    7  C   UNL     1      -8.439   7.908  72.424  1.00  0.00    -0.141 C  
HETATM    8  C   UNL     1      -7.270   8.619  71.750  1.00  0.00    -0.080 C  
HETATM    9  S   UNL     1      -8.033   6.137  72.773  1.00  0.00    -0.106 SA 
HETATM   10  O   UNL     1      -6.056   8.067  71.983  1.00  0.00    -0.039 OA 
HETATM   11  O   UNL     1      -7.391   9.668  71.130  1.00  0.00    -0.332 OA 
HETATM   12  H   UNL     1      -6.861   5.940  73.493  1.00  0.00     0.000 H  
ENDBRANCH   3   7
TORSDOF 1
ENDMDL
MODEL      208
REMARK 921   NORMALIZED FREE ENERGY PREDICTED BY IDOCK:   -1.90 KCAL/MOL
REMARK 922        TOTAL FREE ENERGY PREDICTED BY IDOCK:   -1.47 KCAL/MOL
REMARK 923 INTER-LIGAND FREE ENERGY PREDICTED BY IDOCK:   -2.27 KCAL/MOL
REMARK 924 INTRA-LIGAND FREE ENERGY PREDICTED BY IDOCK:    0.80 KCAL/MOL
REMARK 927      BINDING AFFINITY PREDICTED BY RF-SCORE:    0.00 PKD
ROOT
HETATM    1  O   UNL     1     -13.887  12.434  72.588  1.00  0.00    -0.200 OA 
HETATM    2  C   UNL     1     -13.083  12.829  71.573  1.00  0.00    -0.286 C  
HETATM    3  C   UNL     1     -13.542  14.093  70.855  1.00  0.00    -0.005 C  
HETATM    4  O   UNL     1     -12.075  12.202  71.273  1.00  0.00    -0.046 OA 
HETATM    5  S   UNL     1     -14.389  15.219  72.056  1.00  0.00    -0.553 SA 
HETATM    6  H   UNL     1     -14.807  16.371  71.401  1.00  0.00     0.000 H  
ENDROOT
BRANCH   3   7
HETATM    7  C   UNL     1     -12.385  14.811  70.138  1.00  0.00    -0.330 C  
HETATM    8  C   UNL     1     -11.744  13.893  69.103  1.00  0.00    -0.338 C  
HETATM    9  S   UNL     1     -11.111  15.542  71.263  1.00  0.00    -0.173 SA 
HETATM   10  O   UNL     1     -10.442  14.153  68.840  1.00  0.00    -0.242 OA 
HETATM   11  O   UNL     1     -12.372  13.050  68.474  1.00  0.00    -0.099 OA 
HETATM   12  H   UNL     1     -10.066  16.191  70.616  1.00  0.00     0.000 H  
ENDBRANCH   3   7
TORSDOF 1
ENDMDL
MODEL      209
REMARK 921   NORMALIZED FREE ENERGY PREDICTED BY IDOCK:   -1.89 KCAL/MOL
REMARK 922        TOTAL FREE ENERGY PREDICTED BY IDOCK:   -1.46 KCAL/MOL
REMARK 923 INTER-LIGAND FREE ENERGY PREDICTED BY IDOCK:   -2.00 KCAL/MOL
REMARK 924 INTRA-LIGAND FREE ENERGY PREDICTED BY IDOCK:    0.54 KCAL/MOL
REMARK 927      BINDING AFFINITY PREDICTED BY RF-SCORE:    0.00 PKD
ROOT
HETATM    1  O   UNL     1      -7.878   8.747  73.664  1.00  0.00    -0.411 OA 
HETATM    2  C   UNL     1      -8.958   8.002  73.328  1.00  0.00    -0.272 C  
HETATM    3  C   UNL     1      -9.345   8.073  71.856  1.00  0.00    -0.167 C  
HETATM    4  O   UNL     1      -9.560   7.336  74.161  1.00  0.00    -0.265 OA 
HETATM    5  S   UNL     1      -7.824   8.289  70.822  1.00  0.00    -0.099 SA 
HETATM    6  H   UNL     1      -8.177   8.354  69.479  1.00  0.00     0.000 H  
ENDROOT
BRANCH   3   7
HETATM    7  C   UNL     1     -10.156   6.846  71.404  1.00  0.00    -0.185 C  
HETATM    8  C   UNL     1      -9.225   5.697  71.030  1.00  0.00    -0.152 C  
HETATM    9  S   UNL     1     -11.381   7.178  70.058  1.00  0.00    -0.161 SA 
HETATM   10  O   UNL     1      -9.726   4.830  70.120  1.00  0.00    -0.177 OA 
HETATM   11  O   UNL     1      -8.147   5.502  71.579  1.00  0.00    -0.113 OA 
HETATM   12  H   UNL     1     -12.113   6.069  69.651  1.00  0.00     0.000 H  
ENDBRANCH   3   7
TORSDOF 1
ENDMDL
MODEL      210
REMARK 921   NORMALIZED FREE ENERGY PREDICTED BY IDOCK:   -1.88 KCAL/MOL
REMARK 922        TOTAL FREE ENERGY PREDICTED BY IDOCK:   -1.45 KCAL/MOL
REMARK 923 INTER-LIGAND FREE ENERGY PREDICTED BY IDOCK:   -1.96 KCAL/MOL
REMARK 924 INTRA-LIGAND FREE ENERGY PREDICTED BY IDOCK:    0.51 KCAL/MOL
REMARK 927      BINDING AFFINITY PREDICTED BY RF-SCORE:    0.00 PKD
ROOT
HETATM    1  O   UNL     1      -6.331   7.211  69.086  1.00  0.00    -0.033 OA 
HETATM    2  C   UNL     1      -7.612   7.641  69.002  1.00  0.00    -0.104 C  
HETATM    3  C   UNL     1      -8.599   6.870  69.870  1.00  0.00    -0.141 C  
HETATM    4  O   UNL     1      -7.926   8.576  68.275  1.00  0.00    -0.111 OA 
HETATM    5  S   UNL     1      -7.757   6.302  71.417  1.00  0.00    -0.101 SA 
HETATM    6  H   UNL     1      -8.658   5.599  72.208  1.00  0.00     0.000 H  
ENDROOT
BRANCH   3   7
HETATM    7  C   UNL     1      -9.860   7.692  70.191  1.00  0.00    -0.184 C  
HETATM    8  C   UNL     1      -9.585   8.672  71.326  1.00  0.00    -0.225 C  
HETATM    9  S   UNL     1     -11.376   6.686  70.530  1.00  0.00    -0.381 SA 
HETATM   10  O   UNL     1     -10.669   9.011  72.063  1.00  0.00    -0.349 OA 
HETATM   11  O   UNL     1      -8.495   9.202  71.505  1.00  0.00    -0.333 OA 
HETATM   12  H   UNL     1     -12.514   7.428  70.820  1.00  0.00     0.000 H  
ENDBRANCH   3   7
TORSDOF 1
ENDMDL
MODEL      211
REMARK 921   NORMALIZED FREE ENERGY PREDICTED BY IDOCK:   -1.88 KCAL/MOL
REMARK 922        TOTAL FREE ENERGY PREDICTED BY IDOCK:   -1.45 KCAL/MOL
REMARK 923 INTER-LIGAND FREE ENERGY PREDICTED BY IDOCK:   -1.81 KCAL/MOL
REMARK 924 INTRA-LIGAND FREE ENERGY PREDICTED BY IDOCK:    0.36 KCAL/MOL
REMARK 927      BINDING AFFINITY PREDICTED BY RF-SCORE:    0.00 PKD
ROOT
HETATM    1  O   UNL     1     -10.047   8.381  70.281  1.00  0.00    -0.185 OA 
HETATM    2  C   UNL     1     -10.085   7.063  70.587  1.00  0.00    -0.191 C  
HETATM    3  C   UNL     1      -9.088   6.630  71.656  1.00  0.00    -0.142 C  
HETATM    4  O   UNL     1     -10.866   6.300  70.033  1.00  0.00    -0.260 OA 
HETATM    5  S   UNL     1      -8.837   8.007  72.867  1.00  0.00    -0.248 SA 
HETATM    6  H   UNL     1      -7.928   7.612  73.842  1.00  0.00     0.000 H  
ENDROOT
BRANCH   3   7
HETATM    7  C   UNL     1      -9.519   5.335  72.367  1.00  0.00    -0.140 C  
HETATM    8  C   UNL     1      -9.258   4.124  71.477  1.00  0.00    -0.134 C  
HETATM    9  S   UNL     1     -11.258   5.338  72.997  1.00  0.00    -0.304 SA 
HETATM   10  O   UNL     1     -10.071   3.065  71.703  1.00  0.00    -0.139 OA 
HETATM   11  O   UNL     1      -8.323   4.061  70.688  1.00  0.00    -0.068 OA 
HETATM   12  H   UNL     1     -11.647   4.168  73.639  1.00  0.00     0.000 H  
ENDBRANCH   3   7
TORSDOF 1
ENDMDL
MODEL      212
REMARK 921   NORMALIZED FREE ENERGY PREDICTED BY IDOCK:   -1.88 KCAL/MOL
REMARK 922        TOTAL FREE ENERGY PREDICTED BY IDOCK:   -1.45 KCAL/MOL
REMARK 923 INTER-LIGAND FREE ENERGY PREDICTED BY IDOCK:   -1.96 KCAL/MOL
REMARK 924 INTRA-LIGAND FREE ENERGY PREDICTED BY IDOCK:    0.51 KCAL/MOL
REMARK 927      BINDING AFFINITY PREDICTED BY RF-SCORE:    0.00 PKD
ROOT
HETATM    1  O   UNL     1     -11.763   9.878  70.510  1.00  0.00    -0.272 OA 
HETATM    2  C   UNL     1     -10.638   9.963  69.761  1.00  0.00    -0.264 C  
HETATM    3  C   UNL     1      -9.761   8.717  69.790  1.00  0.00    -0.176 C  
HETATM    4  O   UNL     1     -10.368  10.973  69.124  1.00  0.00    -0.214 OA 
HETATM    5  S   UNL     1     -10.824   7.211  69.965  1.00  0.00    -0.259 SA 
HETATM    6  H   UNL     1     -10.024   6.075  69.991  1.00  0.00     0.000 H  
ENDROOT
BRANCH   3   7
HETATM    7  C   UNL     1      -8.850   8.615  68.554  1.00  0.00    -0.142 C  
HETATM    8  C   UNL     1      -9.629   8.077  67.358  1.00  0.00    -0.153 C  
HETATM    9  S   UNL     1      -7.288   7.659  68.818  1.00  0.00    -0.093 SA 
HETATM   10  O   UNL     1      -8.882   7.419  66.440  1.00  0.00    -0.143 OA 
HETATM   11  O   UNL     1     -10.819   8.304  67.176  1.00  0.00    -0.244 OA 
HETATM   12  H   UNL     1      -6.466   7.567  67.701  1.00  0.00     0.000 H  
ENDBRANCH   3   7
TORSDOF 1
ENDMDL
MODEL      213
REMARK 921   NORMALIZED FREE ENERGY PREDICTED BY IDOCK:   -1.87 KCAL/MOL
REMARK 922        TOTAL FREE ENERGY PREDICTED BY IDOCK:   -1.44 KCAL/MOL
REMARK 923 INTER-LIGAND FREE ENERGY PREDICTED BY IDOCK:   -1.95 KCAL/MOL
REMARK 924 INTRA-LIGAND FREE ENERGY PREDICTED BY IDOCK:    0.51 KCAL/MOL
REMARK 927      BINDING AFFINITY PREDICTED BY RF-SCORE:    0.00 PKD
ROOT
HETATM    1  O   UNL     1      -9.122   8.595  72.091  1.00  0.00    -0.242 OA 
HETATM    2  C   UNL     1      -8.720   8.090  70.901  1.00  0.00    -0.138 C  
HETATM    3  C   UNL     1      -9.554   6.920  70.392  1.00  0.00    -0.169 C  
HETATM    4  O   UNL     1      -7.756   8.553  70.303  1.00  0.00    -0.071 OA 
HETATM    5  S   UNL     1     -11.313   7.130  70.930  1.00  0.00    -0.299 SA 
HETATM    6  H   UNL     1     -12.073   6.063  70.466  1.00  0.00     0.000 H  
ENDROOT
BRANCH   3   7
HETATM    7  C   UNL     1      -9.455   6.752  68.866  1.00  0.00    -0.128 C  
HETATM    8  C   UNL     1     -10.348   7.764  68.157  1.00  0.00    -0.200 C  
HETATM    9  S   UNL     1      -9.771   5.036  68.253  1.00  0.00    -0.142 SA 
HETATM   10  O   UNL     1     -10.792   7.377  66.937  1.00  0.00    -0.357 OA 
HETATM   11  O   UNL     1     -10.572   8.886  68.597  1.00  0.00    -0.209 OA 
HETATM   12  H   UNL     1      -9.682   4.884  66.874  1.00  0.00     0.000 H  
ENDBRANCH   3   7
TORSDOF 1
ENDMDL
MODEL      214
REMARK 921   NORMALIZED FREE ENERGY PREDICTED BY IDOCK:   -1.86 KCAL/MOL
REMARK 922        TOTAL FREE ENERGY PREDICTED BY IDOCK:   -1.44 KCAL/MOL
REMARK 923 INTER-LIGAND FREE ENERGY PREDICTED BY IDOCK:   -1.98 KCAL/MOL
REMARK 924 INTRA-LIGAND FREE ENERGY PREDICTED BY IDOCK:    0.54 KCAL/MOL
REMARK 927      BINDING AFFINITY PREDICTED BY RF-SCORE:    0.00 PKD
ROOT
HETATM    1  O   UNL     1      -9.521  14.028  68.446  1.00  0.00    -0.209 OA 
HETATM    2  C   UNL     1      -8.435  14.533  67.815  1.00  0.00    -0.174 C  
HETATM    3  C   UNL     1      -8.558  15.999  67.415  1.00  0.00    -0.178 C  
HETATM    4  O   UNL     1      -7.446  13.846  67.593  1.00  0.00    -0.148 OA 
HETATM    5  S   UNL     1      -9.594  16.899  68.657  1.00  0.00    -0.272 SA 
HETATM    6  H   UNL     1      -9.706  18.235  68.292  1.00  0.00     0.000 H  
ENDROOT
BRANCH   3   7
HETATM    7  C   UNL     1      -7.186  16.674  67.241  1.00  0.00    -0.166 C  
HETATM    8  C   UNL     1      -6.556  16.964  68.599  1.00  0.00    -0.173 C  
HETATM    9  S   UNL     1      -7.195  18.184  66.173  1.00  0.00    -0.277 SA 
HETATM   10  O   UNL     1      -5.696  18.009  68.617  1.00  0.00    -0.174 OA 
HETATM   11  O   UNL     1      -6.723  16.251  69.582  1.00  0.00    -0.206 OA 
HETATM   12  H   UNL     1      -5.956  18.794  66.016  1.00  0.00     0.000 H  
ENDBRANCH   3   7
TORSDOF 1
ENDMDL
MODEL      215
REMARK 921   NORMALIZED FREE ENERGY PREDICTED BY IDOCK:   -1.86 KCAL/MOL
REMARK 922        TOTAL FREE ENERGY PREDICTED BY IDOCK:   -1.44 KCAL/MOL
REMARK 923 INTER-LIGAND FREE ENERGY PREDICTED BY IDOCK:   -1.95 KCAL/MOL
REMARK 924 INTRA-LIGAND FREE ENERGY PREDICTED BY IDOCK:    0.51 KCAL/MOL
REMARK 927      BINDING AFFINITY PREDICTED BY RF-SCORE:    0.00 PKD
ROOT
HETATM    1  O   UNL     1      -8.214  11.047  66.137  1.00  0.00    -0.167 OA 
HETATM    2  C   UNL     1      -9.332  10.324  66.384  1.00  0.00    -0.165 C  
HETATM    3  C   UNL     1      -9.087   9.003  67.103  1.00  0.00    -0.137 C  
HETATM    4  O   UNL     1     -10.439  10.721  66.043  1.00  0.00    -0.250 OA 
HETATM    5  S   UNL     1      -7.645   9.176  68.251  1.00  0.00    -0.083 SA 
HETATM    6  H   UNL     1      -7.422   7.971  68.907  1.00  0.00     0.000 H  
ENDROOT
BRANCH   3   7
HETATM    7  C   UNL     1     -10.337   8.505  67.851  1.00  0.00    -0.223 C  
HETATM    8  C   UNL     1     -10.496   9.241  69.177  1.00  0.00    -0.217 C  
HETATM    9  S   UNL     1     -10.418   6.672  68.090  1.00  0.00    -0.239 SA 
HETATM   10  O   UNL     1     -11.151   8.549  70.139  1.00  0.00    -0.248 OA 
HETATM   11  O   UNL     1     -10.155  10.406  69.342  1.00  0.00    -0.218 OA 
HETATM   12  H   UNL     1     -11.547   6.223  68.765  1.00  0.00     0.000 H  
ENDBRANCH   3   7
TORSDOF 1
ENDMDL
MODEL      216
REMARK 921   NORMALIZED FREE ENERGY PREDICTED BY IDOCK:   -1.86 KCAL/MOL
REMARK 922        TOTAL FREE ENERGY PREDICTED BY IDOCK:   -1.43 KCAL/MOL
REMARK 923 INTER-LIGAND FREE ENERGY PREDICTED BY IDOCK:   -1.94 KCAL/MOL
REMARK 924 INTRA-LIGAND FREE ENERGY PREDICTED BY IDOCK:    0.51 KCAL/MOL
REMARK 927      BINDING AFFINITY PREDICTED BY RF-SCORE:    0.00 PKD
ROOT
HETATM    1  O   UNL     1      -9.810  10.084  67.658  1.00  0.00    -0.155 OA 
HETATM    2  C   UNL     1      -9.480   9.153  66.733  1.00  0.00    -0.175 C  
HETATM    3  C   UNL     1      -8.739   7.941  67.287  1.00  0.00    -0.131 C  
HETATM    4  O   UNL     1      -9.762   9.298  65.550  1.00  0.00    -0.277 OA 
HETATM    5  S   UNL     1      -9.326   7.586  69.007  1.00  0.00    -0.145 SA 
HETATM    6  H   UNL     1      -8.650   6.482  69.512  1.00  0.00     0.000 H  
ENDROOT
BRANCH   3   7
HETATM    7  C   UNL     1      -8.883   6.704  66.383  1.00  0.00    -0.144 C  
HETATM    8  C   UNL     1     -10.233   6.031  66.608  1.00  0.00    -0.189 C  
HETATM    9  S   UNL     1      -7.498   5.484  66.513  1.00  0.00    -0.088 SA 
HETATM   10  O   UNL     1     -10.258   4.703  66.348  1.00  0.00    -0.244 OA 
HETATM   11  O   UNL     1     -11.250   6.649  66.900  1.00  0.00    -0.391 OA 
HETATM   12  H   UNL     1      -7.629   4.367  65.696  1.00  0.00     0.000 H  
ENDBRANCH   3   7
TORSDOF 1
ENDMDL
MODEL      217
REMARK 921   NORMALIZED FREE ENERGY PREDICTED BY IDOCK:   -1.86 KCAL/MOL
REMARK 922        TOTAL FREE ENERGY PREDICTED BY IDOCK:   -1.43 KCAL/MOL
REMARK 923 INTER-LIGAND FREE ENERGY PREDICTED BY IDOCK:   -2.03 KCAL/MOL
REMARK 924 INTRA-LIGAND FREE ENERGY PREDICTED BY IDOCK:    0.60 KCAL/MOL
REMARK 927      BINDING AFFINITY PREDICTED BY RF-SCORE:    0.00 PKD
ROOT
HETATM    1  O   UNL     1     -10.803   9.209  69.377  1.00  0.00    -0.219 OA 
HETATM    2  C   UNL     1      -9.848   8.291  69.656  1.00  0.00    -0.184 C  
HETATM    3  C   UNL     1      -9.960   7.659  71.039  1.00  0.00    -0.182 C  
HETATM    4  O   UNL     1      -8.973   8.011  68.847  1.00  0.00    -0.141 OA 
HETATM    5  S   UNL     1     -11.742   7.538  71.526  1.00  0.00    -0.293 SA 
HETATM    6  H   UNL     1     -11.843   6.962  72.787  1.00  0.00     0.000 H  
ENDROOT
BRANCH   3   7
HETATM    7  C   UNL     1      -9.267   6.287  71.112  1.00  0.00    -0.153 C  
HETATM    8  C   UNL     1     -10.073   5.240  70.350  1.00  0.00    -0.254 C  
HETATM    9  S   UNL     1      -8.870   5.709  72.824  1.00  0.00    -0.120 SA 
HETATM   10  O   UNL     1      -9.920   3.969  70.792  1.00  0.00    -0.188 OA 
HETATM   11  O   UNL     1     -10.730   5.498  69.349  1.00  0.00    -0.295 OA 
HETATM   12  H   UNL     1      -8.246   4.469  72.890  1.00  0.00     0.000 H  
ENDBRANCH   3   7
TORSDOF 1
ENDMDL
MODEL      218
REMARK 921   NORMALIZED FREE ENERGY PREDICTED BY IDOCK:   -1.85 KCAL/MOL
REMARK 922        TOTAL FREE ENERGY PREDICTED BY IDOCK:   -1.42 KCAL/MOL
REMARK 923 INTER-LIGAND FREE ENERGY PREDICTED BY IDOCK:   -1.78 KCAL/MOL
REMARK 924 INTRA-LIGAND FREE ENERGY PREDICTED BY IDOCK:    0.36 KCAL/MOL
REMARK 927      BINDING AFFINITY PREDICTED BY RF-SCORE:    0.00 PKD
ROOT
HETATM    1  O   UNL     1      -8.025   8.955  68.960  1.00  0.00    -0.102 OA 
HETATM    2  C   UNL     1      -8.443   7.690  69.203  1.00  0.00    -0.138 C  
HETATM    3  C   UNL     1      -8.980   7.458  70.610  1.00  0.00    -0.155 C  
HETATM    4  O   UNL     1      -8.380   6.819  68.344  1.00  0.00    -0.121 OA 
HETATM    5  S   UNL     1      -9.804   8.997  71.224  1.00  0.00    -0.301 SA 
HETATM    6  H   UNL     1     -10.294   8.785  72.508  1.00  0.00     0.000 H  
ENDROOT
BRANCH   3   7
HETATM    7  C   UNL     1      -9.931   6.250  70.681  1.00  0.00    -0.186 C  
HETATM    8  C   UNL     1      -9.142   4.945  70.667  1.00  0.00    -0.128 C  
HETATM    9  S   UNL     1     -11.265   6.238  69.398  1.00  0.00    -0.365 SA 
HETATM   10  O   UNL     1      -9.808   3.882  70.159  1.00  0.00    -0.200 OA 
HETATM   11  O   UNL     1      -8.031   4.829  71.168  1.00  0.00    -0.084 OA 
HETATM   12  H   UNL     1     -12.124   5.148  69.462  1.00  0.00     0.000 H  
ENDBRANCH   3   7
TORSDOF 1
ENDMDL
MODEL      219
REMARK 921   NORMALIZED FREE ENERGY PREDICTED BY IDOCK:   -1.85 KCAL/MOL
REMARK 922        TOTAL FREE ENERGY PREDICTED BY IDOCK:   -1.42 KCAL/MOL
REMARK 923 INTER-LIGAND FREE ENERGY PREDICTED BY IDOCK:   -1.93 KCAL/MOL
REMARK 924 INTRA-LIGAND FREE ENERGY PREDICTED BY IDOCK:    0.51 KCAL/MOL
REMARK 927      BINDING AFFINITY PREDICTED BY RF-SCORE:    0.00 PKD
ROOT
HETATM    1  O   UNL     1      -5.605   7.360  72.282  1.00  0.00    -0.037 OA 
HETATM    2  C   UNL     1      -6.636   8.238  72.315  1.00  0.00    -0.080 C  
HETATM    3  C   UNL     1      -7.809   7.873  71.414  1.00  0.00    -0.089 C  
HETATM    4  O   UNL     1      -6.601   9.239  73.019  1.00  0.00    -0.297 OA 
HETATM    5  S   UNL     1      -7.969   6.031  71.315  1.00  0.00    -0.114 SA 
HETATM    6  H   UNL     1      -9.040   5.698  70.493  1.00  0.00     0.000 H  
ENDROOT
BRANCH   3   7
HETATM    7  C   UNL     1      -9.126   8.522  71.876  1.00  0.00    -0.244 C  
HETATM    8  C   UNL     1      -9.728   7.740  73.039  1.00  0.00    -0.267 C  
HETATM    9  S   UNL     1     -10.371   8.791  70.535  1.00  0.00    -0.215 SA 
HETATM   10  O   UNL     1     -11.074   7.831  73.150  1.00  0.00    -0.409 OA 
HETATM   11  O   UNL     1      -9.051   7.157  73.877  1.00  0.00    -0.177 OA 
HETATM   12  H   UNL     1     -11.560   9.377  70.954  1.00  0.00     0.000 H  
ENDBRANCH   3   7
TORSDOF 1
ENDMDL
MODEL      220
REMARK 921   NORMALIZED FREE ENERGY PREDICTED BY IDOCK:   -1.82 KCAL/MOL
REMARK 922        TOTAL FREE ENERGY PREDICTED BY IDOCK:   -1.39 KCAL/MOL
REMARK 923 INTER-LIGAND FREE ENERGY PREDICTED BY IDOCK:   -2.74 KCAL/MOL
REMARK 924 INTRA-LIGAND FREE ENERGY PREDICTED BY IDOCK:    1.34 KCAL/MOL
REMARK 927      BINDING AFFINITY PREDICTED BY RF-SCORE:    0.00 PKD
ROOT
HETATM    1  O   UNL     1     -11.820  13.199  66.235  1.00  0.00    -0.363 OA 
HETATM    2  C   UNL     1     -11.875  12.698  67.491  1.00  0.00    -0.334 C  
HETATM    3  C   UNL     1     -11.490  11.228  67.606  1.00  0.00    -0.264 C  
HETATM    4  O   UNL     1     -12.213  13.392  68.442  1.00  0.00    -0.293 OA 
HETATM    5  S   UNL     1     -10.200  10.822  66.342  1.00  0.00    -0.242 SA 
HETATM    6  H   UNL     1      -9.849   9.481  66.447  1.00  0.00     0.000 H  
ENDROOT
BRANCH   3   7
HETATM    7  C   UNL     1     -11.019  10.856  69.023  1.00  0.00    -0.235 C  
HETATM    8  C   UNL     1     -10.737   9.360  69.118  1.00  0.00    -0.197 C  
HETATM    9  S   UNL     1     -12.141  11.412  70.384  1.00  0.00    -0.377 SA 
HETATM   10  O   UNL     1     -10.882   8.830  70.355  1.00  0.00    -0.219 OA 
HETATM   11  O   UNL     1     -10.312   8.697  68.180  1.00  0.00    -0.211 OA 
HETATM   12  H   UNL     1     -11.715  11.076  71.664  1.00  0.00     0.000 H  
ENDBRANCH   3   7
TORSDOF 1
ENDMDL
MODEL      221
REMARK 921   NORMALIZED FREE ENERGY PREDICTED BY IDOCK:   -1.80 KCAL/MOL
REMARK 922        TOTAL FREE ENERGY PREDICTED BY IDOCK:   -1.37 KCAL/MOL
REMARK 923 INTER-LIGAND FREE ENERGY PREDICTED BY IDOCK:   -1.73 KCAL/MOL
REMARK 924 INTRA-LIGAND FREE ENERGY PREDICTED BY IDOCK:    0.36 KCAL/MOL
REMARK 927      BINDING AFFINITY PREDICTED BY RF-SCORE:    0.00 PKD
ROOT
HETATM    1  O   UNL     1      -7.897   4.128  70.789  1.00  0.00    -0.051 OA 
HETATM    2  C   UNL     1      -7.914   5.226  71.581  1.00  0.00    -0.115 C  
HETATM    3  C   UNL     1      -8.892   6.310  71.144  1.00  0.00    -0.142 C  
HETATM    4  O   UNL     1      -7.188   5.317  72.564  1.00  0.00    -0.087 OA 
HETATM    5  S   UNL     1     -10.375   5.530  70.357  1.00  0.00    -0.285 SA 
HETATM    6  H   UNL     1     -11.267   6.519  69.958  1.00  0.00     0.000 H  
ENDROOT
BRANCH   3   7
HETATM    7  C   UNL     1      -9.298   7.234  72.305  1.00  0.00    -0.138 C  
HETATM    8  C   UNL     1      -8.168   8.200  72.642  1.00  0.00    -0.170 C  
HETATM    9  S   UNL     1      -9.900   6.357  73.819  1.00  0.00    -0.241 SA 
HETATM   10  O   UNL     1      -8.149   8.632  73.924  1.00  0.00    -0.398 OA 
HETATM   11  O   UNL     1      -7.391   8.642  71.803  1.00  0.00    -0.102 OA 
HETATM   12  H   UNL     1     -10.267   7.192  74.868  1.00  0.00     0.000 H  
ENDBRANCH   3   7
TORSDOF 1
ENDMDL
MODEL      222
REMARK 921   NORMALIZED FREE ENERGY PREDICTED BY IDOCK:   -1.79 KCAL/MOL
REMARK 922        TOTAL FREE ENERGY PREDICTED BY IDOCK:   -1.36 KCAL/MOL
REMARK 923 INTER-LIGAND FREE ENERGY PREDICTED BY IDOCK:   -1.87 KCAL/MOL
REMARK 924 INTRA-LIGAND FREE ENERGY PREDICTED BY IDOCK:    0.51 KCAL/MOL
REMARK 927      BINDING AFFINITY PREDICTED BY RF-SCORE:    0.00 PKD
ROOT
HETATM    1  O   UNL     1      -9.824   2.919  72.843  1.00  0.00    -0.110 OA 
HETATM    2  C   UNL     1     -10.027   4.117  73.439  1.00  0.00    -0.130 C  
HETATM    3  C   UNL     1      -9.420   5.305  72.701  1.00  0.00    -0.147 C  
HETATM    4  O   UNL     1     -10.650   4.212  74.489  1.00  0.00    -0.233 OA 
HETATM    5  S   UNL     1      -9.461   4.992  70.877  1.00  0.00    -0.172 SA 
HETATM    6  H   UNL     1      -8.907   6.075  70.204  1.00  0.00     0.000 H  
ENDROOT
BRANCH   3   7
HETATM    7  C   UNL     1     -10.117   6.631  73.054  1.00  0.00    -0.186 C  
HETATM    8  C   UNL     1     -11.412   6.782  72.263  1.00  0.00    -0.276 C  
HETATM    9  S   UNL     1      -9.053   8.135  72.887  1.00  0.00    -0.267 SA 
HETATM   10  O   UNL     1     -11.796   8.060  72.036  1.00  0.00    -0.291 OA 
HETATM   11  O   UNL     1     -12.116   5.832  71.941  1.00  0.00    -0.057 OA 
HETATM   12  H   UNL     1      -9.683   9.332  73.206  1.00  0.00     0.000 H  
ENDBRANCH   3   7
TORSDOF 1
ENDMDL
MODEL      223
REMARK 921   NORMALIZED FREE ENERGY PREDICTED BY IDOCK:   -1.79 KCAL/MOL
REMARK 922        TOTAL FREE ENERGY PREDICTED BY IDOCK:   -1.36 KCAL/MOL
REMARK 923 INTER-LIGAND FREE ENERGY PREDICTED BY IDOCK:   -1.71 KCAL/MOL
REMARK 924 INTRA-LIGAND FREE ENERGY PREDICTED BY IDOCK:    0.36 KCAL/MOL
REMARK 927      BINDING AFFINITY PREDICTED BY RF-SCORE:    0.00 PKD
ROOT
HETATM    1  O   UNL     1      -9.485   9.838  69.553  1.00  0.00    -0.185 OA 
HETATM    2  C   UNL     1      -9.551   8.912  70.540  1.00  0.00    -0.202 C  
HETATM    3  C   UNL     1      -9.025   7.535  70.154  1.00  0.00    -0.147 C  
HETATM    4  O   UNL     1     -10.004   9.185  71.644  1.00  0.00    -0.316 OA 
HETATM    5  S   UNL     1      -7.639   7.715  68.940  1.00  0.00    -0.103 SA 
HETATM    6  H   UNL     1      -7.160   6.458  68.588  1.00  0.00     0.000 H  
ENDROOT
BRANCH   3   7
HETATM    7  C   UNL     1      -8.589   6.711  71.378  1.00  0.00    -0.125 C  
HETATM    8  C   UNL     1      -9.804   6.130  72.092  1.00  0.00    -0.157 C  
HETATM    9  S   UNL     1      -7.484   7.607  72.562  1.00  0.00    -0.086 SA 
HETATM   10  O   UNL     1      -9.634   5.903  73.416  1.00  0.00    -0.142 OA 
HETATM   11  O   UNL     1     -10.827   5.791  71.508  1.00  0.00    -0.251 OA 
HETATM   12  H   UNL     1      -7.091   6.863  73.668  1.00  0.00     0.000 H  
ENDBRANCH   3   7
TORSDOF 1
ENDMDL
MODEL      224
REMARK 921   NORMALIZED FREE ENERGY PREDICTED BY IDOCK:   -1.76 KCAL/MOL
REMARK 922        TOTAL FREE ENERGY PREDICTED BY IDOCK:   -1.33 KCAL/MOL
REMARK 923 INTER-LIGAND FREE ENERGY PREDICTED BY IDOCK:   -1.84 KCAL/MOL
REMARK 924 INTRA-LIGAND FREE ENERGY PREDICTED BY IDOCK:    0.51 KCAL/MOL
REMARK 927      BINDING AFFINITY PREDICTED BY RF-SCORE:    0.00 PKD
ROOT
HETATM    1  O   UNL     1      -7.560  16.398  69.312  1.00  0.00    -0.234 OA 
HETATM    2  C   UNL     1      -7.551  15.057  69.495  1.00  0.00    -0.181 C  
HETATM    3  C   UNL     1      -8.546  14.291  68.630  1.00  0.00    -0.149 C  
HETATM    4  O   UNL     1      -6.797  14.526  70.300  1.00  0.00    -0.120 OA 
HETATM    5  S   UNL     1      -8.749  15.152  67.004  1.00  0.00    -0.253 SA 
HETATM    6  H   UNL     1      -9.656  14.454  66.215  1.00  0.00     0.000 H  
ENDROOT
BRANCH   3   7
HETATM    7  C   UNL     1      -8.139  12.820  68.434  1.00  0.00    -0.129 C  
HETATM    8  C   UNL     1      -7.040  12.704  67.383  1.00  0.00    -0.138 C  
HETATM    9  S   UNL     1      -9.541  11.670  68.065  1.00  0.00    -0.189 SA 
HETATM   10  O   UNL     1      -7.005  11.522  66.723  1.00  0.00    -0.137 OA 
HETATM   11  O   UNL     1      -6.184  13.563  67.210  1.00  0.00    -0.313 OA 
HETATM   12  H   UNL     1      -9.173  10.342  67.888  1.00  0.00     0.000 H  
ENDBRANCH   3   7
TORSDOF 1
ENDMDL
MODEL      225
REMARK 921   NORMALIZED FREE ENERGY PREDICTED BY IDOCK:   -1.76 KCAL/MOL
REMARK 922        TOTAL FREE ENERGY PREDICTED BY IDOCK:   -1.33 KCAL/MOL
REMARK 923 INTER-LIGAND FREE ENERGY PREDICTED BY IDOCK:   -2.05 KCAL/MOL
REMARK 924 INTRA-LIGAND FREE ENERGY PREDICTED BY IDOCK:    0.72 KCAL/MOL
REMARK 927      BINDING AFFINITY PREDICTED BY RF-SCORE:    0.00 PKD
ROOT
HETATM    1  O   UNL     1      -8.014  14.236  67.049  1.00  0.00    -0.142 OA 
HETATM    2  C   UNL     1      -9.047  13.407  66.764  1.00  0.00    -0.212 C  
HETATM    3  C   UNL     1     -10.355  14.114  66.432  1.00  0.00    -0.287 C  
HETATM    4  O   UNL     1      -8.914  12.190  66.782  1.00  0.00    -0.195 OA 
HETATM    5  S   UNL     1      -9.998  15.717  65.578  1.00  0.00    -0.247 SA 
HETATM    6  H   UNL     1     -11.192  16.362  65.276  1.00  0.00     0.000 H  
ENDROOT
BRANCH   3   7
HETATM    7  C   UNL     1     -11.298  13.234  65.592  1.00  0.00    -0.304 C  
HETATM    8  C   UNL     1     -10.727  13.019  64.195  1.00  0.00    -0.402 C  
HETATM    9  S   UNL     1     -13.049  13.828  65.514  1.00  0.00     0.096 SA 
HETATM   10  O   UNL     1     -11.649  12.788  63.231  1.00  0.00    -0.498 OA 
HETATM   11  O   UNL     1      -9.525  12.954  63.965  1.00  0.00     0.138 OA 
HETATM   12  H   UNL     1     -13.900  13.033  64.756  1.00  0.00     0.000 H  
ENDBRANCH   3   7
TORSDOF 1
ENDMDL
MODEL      226
REMARK 921   NORMALIZED FREE ENERGY PREDICTED BY IDOCK:   -1.76 KCAL/MOL
REMARK 922        TOTAL FREE ENERGY PREDICTED BY IDOCK:   -1.33 KCAL/MOL
REMARK 923 INTER-LIGAND FREE ENERGY PREDICTED BY IDOCK:   -1.85 KCAL/MOL
REMARK 924 INTRA-LIGAND FREE ENERGY PREDICTED BY IDOCK:    0.52 KCAL/MOL
REMARK 927      BINDING AFFINITY PREDICTED BY RF-SCORE:    0.00 PKD
ROOT
HETATM    1  O   UNL     1     -10.322   9.493  70.623  1.00  0.00    -0.263 OA 
HETATM    2  C   UNL     1     -10.570   8.369  71.335  1.00  0.00    -0.234 C  
HETATM    3  C   UNL     1      -9.946   7.103  70.759  1.00  0.00    -0.189 C  
HETATM    4  O   UNL     1     -11.247   8.393  72.355  1.00  0.00    -0.353 OA 
HETATM    5  S   UNL     1      -8.343   7.519  69.932  1.00  0.00    -0.134 SA 
HETATM    6  H   UNL     1      -7.775   6.364  69.407  1.00  0.00     0.000 H  
ENDROOT
BRANCH   3   7
HETATM    7  C   UNL     1      -9.756   6.009  71.825  1.00  0.00    -0.151 C  
HETATM    8  C   UNL     1      -8.544   6.318  72.698  1.00  0.00    -0.123 C  
HETATM    9  S   UNL     1      -9.677   4.284  71.160  1.00  0.00    -0.189 SA 
HETATM   10  O   UNL     1      -7.944   5.234  73.245  1.00  0.00    -0.106 OA 
HETATM   11  O   UNL     1      -8.193   7.457  72.978  1.00  0.00    -0.105 OA 
HETATM   12  H   UNL     1      -9.505   3.296  72.122  1.00  0.00     0.000 H  
ENDBRANCH   3   7
TORSDOF 1
ENDMDL
MODEL      227
REMARK 921   NORMALIZED FREE ENERGY PREDICTED BY IDOCK:   -1.74 KCAL/MOL
REMARK 922        TOTAL FREE ENERGY PREDICTED BY IDOCK:   -1.30 KCAL/MOL
REMARK 923 INTER-LIGAND FREE ENERGY PREDICTED BY IDOCK:   -1.81 KCAL/MOL
REMARK 924 INTRA-LIGAND FREE ENERGY PREDICTED BY IDOCK:    0.51 KCAL/MOL
REMARK 927      BINDING AFFINITY PREDICTED BY RF-SCORE:    0.00 PKD
ROOT
HETATM    1  O   UNL     1     -11.090   6.285  68.216  1.00  0.00    -0.324 OA 
HETATM    2  C   UNL     1     -10.305   6.883  67.289  1.00  0.00    -0.251 C  
HETATM    3  C   UNL     1     -10.243   8.402  67.393  1.00  0.00    -0.260 C  
HETATM    4  O   UNL     1      -9.704   6.232  66.443  1.00  0.00    -0.160 OA 
HETATM    5  S   UNL     1     -10.389   8.911  69.167  1.00  0.00    -0.218 SA 
HETATM    6  H   UNL     1     -10.334  10.297  69.262  1.00  0.00     0.000 H  
ENDROOT
BRANCH   3   7
HETATM    7  C   UNL     1      -8.971   8.981  66.751  1.00  0.00    -0.135 C  
HETATM    8  C   UNL     1      -7.776   8.811  67.683  1.00  0.00    -0.101 C  
HETATM    9  S   UNL     1      -9.122  10.732  66.171  1.00  0.00    -0.181 SA 
HETATM   10  O   UNL     1      -6.794   9.731  67.526  1.00  0.00    -0.080 OA 
HETATM   11  O   UNL     1      -7.651   7.862  68.447  1.00  0.00    -0.103 OA 
HETATM   12  H   UNL     1      -7.972  11.254  65.591  1.00  0.00     0.000 H  
ENDBRANCH   3   7
TORSDOF 1
ENDMDL
MODEL      228
REMARK 921   NORMALIZED FREE ENERGY PREDICTED BY IDOCK:   -1.72 KCAL/MOL
REMARK 922        TOTAL FREE ENERGY PREDICTED BY IDOCK:   -1.29 KCAL/MOL
REMARK 923 INTER-LIGAND FREE ENERGY PREDICTED BY IDOCK:   -1.98 KCAL/MOL
REMARK 924 INTRA-LIGAND FREE ENERGY PREDICTED BY IDOCK:    0.69 KCAL/MOL
REMARK 927      BINDING AFFINITY PREDICTED BY RF-SCORE:    0.00 PKD
ROOT
HETATM    1  O   UNL     1     -10.785   8.781  69.678  1.00  0.00    -0.231 OA 
HETATM    2  C   UNL     1     -10.199   9.129  68.508  1.00  0.00    -0.198 C  
HETATM    3  C   UNL     1     -10.994  10.124  67.670  1.00  0.00    -0.268 C  
HETATM    4  O   UNL     1      -9.117   8.665  68.173  1.00  0.00    -0.140 OA 
HETATM    5  S   UNL     1     -11.931  11.267  68.784  1.00  0.00    -0.187 SA 
HETATM    6  H   UNL     1     -12.656  12.174  68.020  1.00  0.00     0.000 H  
ENDROOT
BRANCH   3   7
HETATM    7  C   UNL     1     -10.102  10.907  66.691  1.00  0.00    -0.219 C  
HETATM    8  C   UNL     1      -9.632  12.213  67.322  1.00  0.00    -0.185 C  
HETATM    9  S   UNL     1     -10.852  11.201  65.025  1.00  0.00    -0.109 SA 
HETATM   10  O   UNL     1      -9.359  13.206  66.443  1.00  0.00    -0.246 OA 
HETATM   11  O   UNL     1      -9.414  12.338  68.521  1.00  0.00    -0.192 OA 
HETATM   12  H   UNL     1     -10.046  11.909  64.141  1.00  0.00     0.000 H  
ENDBRANCH   3   7
TORSDOF 1
ENDMDL
MODEL      229
REMARK 921   NORMALIZED FREE ENERGY PREDICTED BY IDOCK:   -1.71 KCAL/MOL
REMARK 922        TOTAL FREE ENERGY PREDICTED BY IDOCK:   -1.27 KCAL/MOL
REMARK 923 INTER-LIGAND FREE ENERGY PREDICTED BY IDOCK:   -2.60 KCAL/MOL
REMARK 924 INTRA-LIGAND FREE ENERGY PREDICTED BY IDOCK:    1.33 KCAL/MOL
REMARK 927      BINDING AFFINITY PREDICTED BY RF-SCORE:    0.00 PKD
ROOT
HETATM    1  O   UNL     1      -7.456  14.469  67.228  1.00  0.00    -0.191 OA 
HETATM    2  C   UNL     1      -8.402  15.193  67.871  1.00  0.00    -0.149 C  
HETATM    3  C   UNL     1      -8.163  16.699  67.862  1.00  0.00    -0.180 C  
HETATM    4  O   UNL     1      -9.361  14.657  68.412  1.00  0.00    -0.189 OA 
HETATM    5  S   UNL     1      -7.323  17.186  66.286  1.00  0.00    -0.248 SA 
HETATM    6  H   UNL     1      -7.106  18.559  66.278  1.00  0.00     0.000 H  
ENDROOT
BRANCH   3   7
HETATM    7  C   UNL     1      -9.462  17.497  68.071  1.00  0.00    -0.280 C  
HETATM    8  C   UNL     1      -9.148  18.941  68.447  1.00  0.00    -0.343 C  
HETATM    9  S   UNL     1     -10.655  16.740  69.265  1.00  0.00    -0.300 SA 
HETATM   10  O   UNL     1     -10.099  19.557  69.188  1.00  0.00    -0.424 OA 
HETATM   11  O   UNL     1      -8.165  19.544  68.032  1.00  0.00    -0.301 OA 
HETATM   12  H   UNL     1     -11.827  17.461  69.454  1.00  0.00     0.000 H  
ENDBRANCH   3   7
TORSDOF 1
ENDMDL
MODEL      230
REMARK 921   NORMALIZED FREE ENERGY PREDICTED BY IDOCK:   -1.69 KCAL/MOL
REMARK 922        TOTAL FREE ENERGY PREDICTED BY IDOCK:   -1.26 KCAL/MOL
REMARK 923 INTER-LIGAND FREE ENERGY PREDICTED BY IDOCK:   -1.77 KCAL/MOL
REMARK 924 INTRA-LIGAND FREE ENERGY PREDICTED BY IDOCK:    0.51 KCAL/MOL
REMARK 927      BINDING AFFINITY PREDICTED BY RF-SCORE:    0.00 PKD
ROOT
HETATM    1  O   UNL     1     -11.754   6.247  69.885  1.00  0.00    -0.408 OA 
HETATM    2  C   UNL     1     -10.789   6.379  68.944  1.00  0.00    -0.325 C  
HETATM    3  C   UNL     1      -9.393   5.980  69.407  1.00  0.00    -0.131 C  
HETATM    4  O   UNL     1     -11.044   6.791  67.820  1.00  0.00    -0.255 OA 
HETATM    5  S   UNL     1      -9.514   4.601  70.636  1.00  0.00    -0.188 SA 
HETATM    6  H   UNL     1      -8.240   4.238  71.058  1.00  0.00     0.000 H  
ENDROOT
BRANCH   3   7
HETATM    7  C   UNL     1      -8.474   5.600  68.232  1.00  0.00    -0.105 C  
HETATM    8  C   UNL     1      -8.780   4.186  67.750  1.00  0.00    -0.107 C  
HETATM    9  S   UNL     1      -6.666   5.818  68.559  1.00  0.00    -0.059 SA 
HETATM   10  O   UNL     1      -7.739   3.544  67.169  1.00  0.00    -0.078 OA 
HETATM   11  O   UNL     1      -9.901   3.694  67.783  1.00  0.00    -0.110 OA 
HETATM   12  H   UNL     1      -5.837   5.475  67.498  1.00  0.00     0.000 H  
ENDBRANCH   3   7
TORSDOF 1
ENDMDL
MODEL      231
REMARK 921   NORMALIZED FREE ENERGY PREDICTED BY IDOCK:   -1.68 KCAL/MOL
REMARK 922        TOTAL FREE ENERGY PREDICTED BY IDOCK:   -1.24 KCAL/MOL
REMARK 923 INTER-LIGAND FREE ENERGY PREDICTED BY IDOCK:   -1.60 KCAL/MOL
REMARK 924 INTRA-LIGAND FREE ENERGY PREDICTED BY IDOCK:    0.36 KCAL/MOL
REMARK 927      BINDING AFFINITY PREDICTED BY RF-SCORE:    0.00 PKD
ROOT
HETATM    1  O   UNL     1      -6.786  12.162  67.085  1.00  0.00    -0.144 OA 
HETATM    2  C   UNL     1      -7.795  11.259  67.082  1.00  0.00    -0.151 C  
HETATM    3  C   UNL     1      -7.387   9.849  67.495  1.00  0.00    -0.090 C  
HETATM    4  O   UNL     1      -8.935  11.574  66.765  1.00  0.00    -0.169 OA 
HETATM    5  S   UNL     1      -6.028   9.937  68.749  1.00  0.00    -0.037 SA 
HETATM    6  H   UNL     1      -5.656   8.651  69.125  1.00  0.00     0.000 H  
ENDROOT
BRANCH   3   7
HETATM    7  C   UNL     1      -8.577   9.027  68.020  1.00  0.00    -0.129 C  
HETATM    8  C   UNL     1      -9.479   8.595  66.868  1.00  0.00    -0.180 C  
HETATM    9  S   UNL     1      -9.552   9.844  69.362  1.00  0.00    -0.227 SA 
HETATM   10  O   UNL     1     -10.775   8.396  67.203  1.00  0.00    -0.291 OA 
HETATM   11  O   UNL     1      -9.058   8.343  65.745  1.00  0.00    -0.185 OA 
HETATM   12  H   UNL     1     -10.627   9.101  69.836  1.00  0.00     0.000 H  
ENDBRANCH   3   7
TORSDOF 1
ENDMDL
MODEL      232
REMARK 921   NORMALIZED FREE ENERGY PREDICTED BY IDOCK:   -1.68 KCAL/MOL
REMARK 922        TOTAL FREE ENERGY PREDICTED BY IDOCK:   -1.24 KCAL/MOL
REMARK 923 INTER-LIGAND FREE ENERGY PREDICTED BY IDOCK:   -1.66 KCAL/MOL
REMARK 924 INTRA-LIGAND FREE ENERGY PREDICTED BY IDOCK:    0.42 KCAL/MOL
REMARK 927      BINDING AFFINITY PREDICTED BY RF-SCORE:    0.00 PKD
ROOT
HETATM    1  O   UNL     1      -9.736  10.572  68.163  1.00  0.00    -0.149 OA 
HETATM    2  C   UNL     1      -8.869   9.767  68.820  1.00  0.00    -0.129 C  
HETATM    3  C   UNL     1      -9.123   9.648  70.318  1.00  0.00    -0.225 C  
HETATM    4  O   UNL     1      -7.959   9.194  68.234  1.00  0.00    -0.102 OA 
HETATM    5  S   UNL     1     -10.940   9.771  70.652  1.00  0.00    -0.350 SA 
HETATM    6  H   UNL     1     -11.172   9.662  72.019  1.00  0.00     0.000 H  
ENDROOT
BRANCH   3   7
HETATM    7  C   UNL     1      -8.534   8.356  70.910  1.00  0.00    -0.140 C  
HETATM    8  C   UNL     1      -7.066   8.553  71.271  1.00  0.00    -0.078 C  
HETATM    9  S   UNL     1      -8.768   6.847  69.865  1.00  0.00    -0.142 SA 
HETATM   10  O   UNL     1      -6.315   7.426  71.244  1.00  0.00    -0.036 OA 
HETATM   11  O   UNL     1      -6.609   9.622  71.659  1.00  0.00    -0.307 OA 
HETATM   12  H   UNL     1      -8.236   5.680  70.400  1.00  0.00     0.000 H  
ENDBRANCH   3   7
TORSDOF 1
ENDMDL
MODEL      233
REMARK 921   NORMALIZED FREE ENERGY PREDICTED BY IDOCK:   -1.67 KCAL/MOL
REMARK 922        TOTAL FREE ENERGY PREDICTED BY IDOCK:   -1.24 KCAL/MOL
REMARK 923 INTER-LIGAND FREE ENERGY PREDICTED BY IDOCK:   -1.61 KCAL/MOL
REMARK 924 INTRA-LIGAND FREE ENERGY PREDICTED BY IDOCK:    0.38 KCAL/MOL
REMARK 927      BINDING AFFINITY PREDICTED BY RF-SCORE:    0.00 PKD
ROOT
HETATM    1  O   UNL     1      -7.402   5.686  68.718  1.00  0.00    -0.078 OA 
HETATM    2  C   UNL     1      -8.311   6.668  68.922  1.00  0.00    -0.120 C  
HETATM    3  C   UNL     1      -8.584   6.986  70.388  1.00  0.00    -0.142 C  
HETATM    4  O   UNL     1      -8.858   7.237  67.987  1.00  0.00    -0.130 OA 
HETATM    5  S   UNL     1      -7.042   6.727  71.379  1.00  0.00    -0.077 SA 
HETATM    6  H   UNL     1      -7.291   7.017  72.715  1.00  0.00     0.000 H  
ENDROOT
BRANCH   3   7
HETATM    7  C   UNL     1      -9.139   8.408  70.583  1.00  0.00    -0.156 C  
HETATM    8  C   UNL     1     -10.637   8.441  70.302  1.00  0.00    -0.227 C  
HETATM    9  S   UNL     1      -8.251   9.725  69.634  1.00  0.00    -0.172 SA 
HETATM   10  O   UNL     1     -11.112   9.637  69.882  1.00  0.00    -0.236 OA 
HETATM   11  O   UNL     1     -11.384   7.498  70.533  1.00  0.00    -0.275 OA 
HETATM   12  H   UNL     1      -8.753  11.009  69.810  1.00  0.00     0.000 H  
ENDBRANCH   3   7
TORSDOF 1
ENDMDL
MODEL      234
REMARK 921   NORMALIZED FREE ENERGY PREDICTED BY IDOCK:   -1.64 KCAL/MOL
REMARK 922        TOTAL FREE ENERGY PREDICTED BY IDOCK:   -1.20 KCAL/MOL
REMARK 923 INTER-LIGAND FREE ENERGY PREDICTED BY IDOCK:   -1.71 KCAL/MOL
REMARK 924 INTRA-LIGAND FREE ENERGY PREDICTED BY IDOCK:    0.51 KCAL/MOL
REMARK 927      BINDING AFFINITY PREDICTED BY RF-SCORE:    0.00 PKD
ROOT
HETATM    1  O   UNL     1     -10.883   5.775  66.581  1.00  0.00    -0.297 OA 
HETATM    2  C   UNL     1      -9.957   5.272  67.430  1.00  0.00    -0.174 C  
HETATM    3  C   UNL     1      -9.125   6.323  68.156  1.00  0.00    -0.112 C  
HETATM    4  O   UNL     1      -9.816   4.065  67.583  1.00  0.00    -0.151 OA 
HETATM    5  S   UNL     1     -10.153   7.832  68.459  1.00  0.00    -0.203 SA 
HETATM    6  H   UNL     1      -9.394   8.790  69.120  1.00  0.00     0.000 H  
ENDROOT
BRANCH   3   7
HETATM    7  C   UNL     1      -8.522   5.787  69.466  1.00  0.00    -0.112 C  
HETATM    8  C   UNL     1      -9.570   5.780  70.574  1.00  0.00    -0.173 C  
HETATM    9  S   UNL     1      -6.976   6.643  70.015  1.00  0.00    -0.064 SA 
HETATM   10  O   UNL     1      -9.075   5.894  71.829  1.00  0.00    -0.142 OA 
HETATM   11  O   UNL     1     -10.761   5.582  70.368  1.00  0.00    -0.285 OA 
HETATM   12  H   UNL     1      -6.432   6.159  71.199  1.00  0.00     0.000 H  
ENDBRANCH   3   7
TORSDOF 1
ENDMDL
MODEL      235
REMARK 921   NORMALIZED FREE ENERGY PREDICTED BY IDOCK:   -1.64 KCAL/MOL
REMARK 922        TOTAL FREE ENERGY PREDICTED BY IDOCK:   -1.20 KCAL/MOL
REMARK 923 INTER-LIGAND FREE ENERGY PREDICTED BY IDOCK:   -1.56 KCAL/MOL
REMARK 924 INTRA-LIGAND FREE ENERGY PREDICTED BY IDOCK:    0.36 KCAL/MOL
REMARK 927      BINDING AFFINITY PREDICTED BY RF-SCORE:    0.00 PKD
ROOT
HETATM    1  O   UNL     1     -10.391  10.938  64.146  1.00  0.00    -0.347 OA 
HETATM    2  C   UNL     1      -9.191  10.315  64.072  1.00  0.00    -0.271 C  
HETATM    3  C   UNL     1      -8.533  10.042  65.420  1.00  0.00    -0.151 C  
HETATM    4  O   UNL     1      -8.694  10.011  62.996  1.00  0.00    -0.173 OA 
HETATM    5  S   UNL     1      -9.837   9.714  66.694  1.00  0.00    -0.242 SA 
HETATM    6  H   UNL     1      -9.237   9.465  67.922  1.00  0.00     0.000 H  
ENDROOT
BRANCH   3   7
HETATM    7  C   UNL     1      -7.519   8.886  65.351  1.00  0.00    -0.086 C  
HETATM    8  C   UNL     1      -6.202   9.365  64.750  1.00  0.00    -0.077 C  
HETATM    9  S   UNL     1      -8.132   7.366  64.493  1.00  0.00    -0.026 SA 
HETATM   10  O   UNL     1      -5.480   8.407  64.123  1.00  0.00    -0.053 OA 
HETATM   11  O   UNL     1      -5.768  10.501  64.905  1.00  0.00    -0.133 OA 
HETATM   12  H   UNL     1      -7.216   6.323  64.431  1.00  0.00     0.000 H  
ENDBRANCH   3   7
TORSDOF 1
ENDMDL
MODEL      236
REMARK 921   NORMALIZED FREE ENERGY PREDICTED BY IDOCK:   -1.63 KCAL/MOL
REMARK 922        TOTAL FREE ENERGY PREDICTED BY IDOCK:   -1.19 KCAL/MOL
REMARK 923 INTER-LIGAND FREE ENERGY PREDICTED BY IDOCK:   -1.73 KCAL/MOL
REMARK 924 INTRA-LIGAND FREE ENERGY PREDICTED BY IDOCK:    0.54 KCAL/MOL
REMARK 927      BINDING AFFINITY PREDICTED BY RF-SCORE:    0.00 PKD
ROOT
HETATM    1  O   UNL     1      -7.522  14.278  67.392  1.00  0.00    -0.182 OA 
HETATM    2  C   UNL     1      -7.298  12.947  67.495  1.00  0.00    -0.154 C  
HETATM    3  C   UNL     1      -8.300  12.200  68.368  1.00  0.00    -0.143 C  
HETATM    4  O   UNL     1      -6.357  12.410  66.924  1.00  0.00    -0.169 OA 
HETATM    5  S   UNL     1      -9.963  13.002  68.233  1.00  0.00    -0.222 SA 
HETATM    6  H   UNL     1     -10.876  12.321  69.030  1.00  0.00     0.000 H  
ENDROOT
BRANCH   3   7
HETATM    7  C   UNL     1      -8.375  10.702  68.021  1.00  0.00    -0.118 C  
HETATM    8  C   UNL     1      -9.145  10.492  66.721  1.00  0.00    -0.151 C  
HETATM    9  S   UNL     1      -9.037   9.626  69.372  1.00  0.00    -0.203 SA 
HETATM   10  O   UNL     1      -9.760   9.291  66.611  1.00  0.00    -0.183 OA 
HETATM   11  O   UNL     1      -9.130  11.294  65.796  1.00  0.00    -0.208 OA 
HETATM   12  H   UNL     1      -9.105   8.273  69.058  1.00  0.00     0.000 H  
ENDBRANCH   3   7
TORSDOF 1
ENDMDL
MODEL      237
REMARK 921   NORMALIZED FREE ENERGY PREDICTED BY IDOCK:   -1.63 KCAL/MOL
REMARK 922        TOTAL FREE ENERGY PREDICTED BY IDOCK:   -1.19 KCAL/MOL
REMARK 923 INTER-LIGAND FREE ENERGY PREDICTED BY IDOCK:   -1.70 KCAL/MOL
REMARK 924 INTRA-LIGAND FREE ENERGY PREDICTED BY IDOCK:    0.51 KCAL/MOL
REMARK 927      BINDING AFFINITY PREDICTED BY RF-SCORE:    0.00 PKD
ROOT
HETATM    1  O   UNL     1     -10.511   8.561  66.606  1.00  0.00    -0.289 OA 
HETATM    2  C   UNL     1      -9.748   9.443  65.918  1.00  0.00    -0.285 C  
HETATM    3  C   UNL     1      -8.250   9.320  66.172  1.00  0.00    -0.111 C  
HETATM    4  O   UNL     1     -10.247  10.267  65.162  1.00  0.00    -0.314 OA 
HETATM    5  S   UNL     1      -7.817   7.549  66.497  1.00  0.00    -0.104 SA 
HETATM    6  H   UNL     1      -6.451   7.438  66.728  1.00  0.00     0.000 H  
ENDROOT
BRANCH   3   7
HETATM    7  C   UNL     1      -7.412   9.895  65.016  1.00  0.00    -0.134 C  
HETATM    8  C   UNL     1      -7.339   8.901  63.862  1.00  0.00    -0.098 C  
HETATM    9  S   UNL     1      -5.726  10.484  65.498  1.00  0.00    -0.136 SA 
HETATM   10  O   UNL     1      -6.234   9.008  63.087  1.00  0.00    -0.089 OA 
HETATM   11  O   UNL     1      -8.250   8.131  63.582  1.00  0.00    -0.139 OA 
HETATM   12  H   UNL     1      -4.970  11.003  64.454  1.00  0.00     0.000 H  
ENDBRANCH   3   7
TORSDOF 1
ENDMDL
MODEL      238
REMARK 921   NORMALIZED FREE ENERGY PREDICTED BY IDOCK:   -1.62 KCAL/MOL
REMARK 922        TOTAL FREE ENERGY PREDICTED BY IDOCK:   -1.18 KCAL/MOL
REMARK 923 INTER-LIGAND FREE ENERGY PREDICTED BY IDOCK:   -1.72 KCAL/MOL
REMARK 924 INTRA-LIGAND FREE ENERGY PREDICTED BY IDOCK:    0.54 KCAL/MOL
REMARK 927      BINDING AFFINITY PREDICTED BY RF-SCORE:    0.00 PKD
ROOT
HETATM    1  O   UNL     1      -7.470   3.371  71.726  1.00  0.00    -0.049 OA 
HETATM    2  C   UNL     1      -7.915   4.621  71.995  1.00  0.00    -0.100 C  
HETATM    3  C   UNL     1      -8.702   5.272  70.864  1.00  0.00    -0.132 C  
HETATM    4  O   UNL     1      -7.686   5.164  73.068  1.00  0.00    -0.095 OA 
HETATM    5  S   UNL     1      -9.639   3.976  69.931  1.00  0.00    -0.198 SA 
HETATM    6  H   UNL     1     -10.357   4.570  68.899  1.00  0.00     0.000 H  
ENDROOT
BRANCH   3   7
HETATM    7  C   UNL     1      -9.641   6.382  71.368  1.00  0.00    -0.162 C  
HETATM    8  C   UNL     1     -10.867   5.780  72.046  1.00  0.00    -0.251 C  
HETATM    9  S   UNL     1     -10.128   7.626  70.089  1.00  0.00    -0.202 SA 
HETATM   10  O   UNL     1     -11.977   6.554  72.009  1.00  0.00    -0.321 OA 
HETATM   11  O   UNL     1     -10.838   4.726  72.671  1.00  0.00    -0.210 OA 
HETATM   12  H   UNL     1     -10.976   8.629  70.545  1.00  0.00     0.000 H  
ENDBRANCH   3   7
TORSDOF 1
ENDMDL
MODEL      239
REMARK 921   NORMALIZED FREE ENERGY PREDICTED BY IDOCK:   -1.62 KCAL/MOL
REMARK 922        TOTAL FREE ENERGY PREDICTED BY IDOCK:   -1.18 KCAL/MOL
REMARK 923 INTER-LIGAND FREE ENERGY PREDICTED BY IDOCK:   -1.53 KCAL/MOL
REMARK 924 INTRA-LIGAND FREE ENERGY PREDICTED BY IDOCK:    0.36 KCAL/MOL
REMARK 927      BINDING AFFINITY PREDICTED BY RF-SCORE:    0.00 PKD
ROOT
HETATM    1  O   UNL     1      -7.188  12.630  67.210  1.00  0.00    -0.151 OA 
HETATM    2  C   UNL     1      -7.750  11.411  67.386  1.00  0.00    -0.135 C  
HETATM    3  C   UNL     1      -9.027  11.414  68.218  1.00  0.00    -0.175 C  
HETATM    4  O   UNL     1      -7.250  10.401  66.908  1.00  0.00    -0.092 OA 
HETATM    5  S   UNL     1      -9.952  12.992  67.931  1.00  0.00    -0.236 SA 
HETATM    6  H   UNL     1     -11.117  12.995  68.689  1.00  0.00     0.000 H  
ENDROOT
BRANCH   3   7
HETATM    7  C   UNL     1      -9.914  10.190  67.932  1.00  0.00    -0.162 C  
HETATM    8  C   UNL     1      -9.364   8.954  68.637  1.00  0.00    -0.140 C  
HETATM    9  S   UNL     1     -10.219   9.854  66.138  1.00  0.00    -0.161 SA 
HETATM   10  O   UNL     1      -9.667   7.776  68.044  1.00  0.00    -0.148 OA 
HETATM   11  O   UNL     1      -8.780   9.001  69.714  1.00  0.00    -0.133 OA 
HETATM   12  H   UNL     1     -11.019   8.748  65.881  1.00  0.00     0.000 H  
ENDBRANCH   3   7
TORSDOF 1
ENDMDL
MODEL      240
REMARK 921   NORMALIZED FREE ENERGY PREDICTED BY IDOCK:   -1.60 KCAL/MOL
REMARK 922        TOTAL FREE ENERGY PREDICTED BY IDOCK:   -1.16 KCAL/MOL
REMARK 923 INTER-LIGAND FREE ENERGY PREDICTED BY IDOCK:   -1.67 KCAL/MOL
REMARK 924 INTRA-LIGAND FREE ENERGY PREDICTED BY IDOCK:    0.52 KCAL/MOL
REMARK 927      BINDING AFFINITY PREDICTED BY RF-SCORE:    0.00 PKD
ROOT
HETATM    1  O   UNL     1      -9.202   9.508  70.393  1.00  0.00    -0.242 OA 
HETATM    2  C   UNL     1      -9.730   8.356  69.916  1.00  0.00    -0.179 C  
HETATM    3  C   UNL     1      -8.825   7.137  70.057  1.00  0.00    -0.142 C  
HETATM    4  O   UNL     1     -10.845   8.323  69.412  1.00  0.00    -0.193 OA 
HETATM    5  S   UNL     1      -7.802   7.295  71.592  1.00  0.00    -0.092 SA 
HETATM    6  H   UNL     1      -6.978   6.183  71.720  1.00  0.00     0.000 H  
ENDROOT
BRANCH   3   7
HETATM    7  C   UNL     1      -9.618   5.818  70.049  1.00  0.00    -0.164 C  
HETATM    8  C   UNL     1     -10.193   5.531  71.432  1.00  0.00    -0.215 C  
HETATM    9  S   UNL     1      -8.687   4.358  69.397  1.00  0.00    -0.090 SA 
HETATM   10  O   UNL     1     -10.388   4.219  71.708  1.00  0.00    -0.145 OA 
HETATM   11  O   UNL     1     -10.553   6.411  72.205  1.00  0.00    -0.211 OA 
HETATM   12  H   UNL     1      -9.403   3.167  69.390  1.00  0.00     0.000 H  
ENDBRANCH   3   7
TORSDOF 1
ENDMDL
MODEL      241
REMARK 921   NORMALIZED FREE ENERGY PREDICTED BY IDOCK:   -1.59 KCAL/MOL
REMARK 922        TOTAL FREE ENERGY PREDICTED BY IDOCK:   -1.15 KCAL/MOL
REMARK 923 INTER-LIGAND FREE ENERGY PREDICTED BY IDOCK:   -1.50 KCAL/MOL
REMARK 924 INTRA-LIGAND FREE ENERGY PREDICTED BY IDOCK:    0.36 KCAL/MOL
REMARK 927      BINDING AFFINITY PREDICTED BY RF-SCORE:    0.00 PKD
ROOT
HETATM    1  O   UNL     1     -11.469   5.660  71.209  1.00  0.00    -0.112 OA 
HETATM    2  C   UNL     1     -10.466   6.567  71.276  1.00  0.00    -0.215 C  
HETATM    3  C   UNL     1      -9.106   6.043  70.830  1.00  0.00    -0.153 C  
HETATM    4  O   UNL     1     -10.662   7.710  71.670  1.00  0.00    -0.210 OA 
HETATM    5  S   UNL     1      -9.332   4.787  69.489  1.00  0.00    -0.149 SA 
HETATM    6  H   UNL     1      -8.091   4.310  69.082  1.00  0.00     0.000 H  
ENDROOT
BRANCH   3   7
HETATM    7  C   UNL     1      -8.163   7.173  70.381  1.00  0.00    -0.126 C  
HETATM    8  C   UNL     1      -7.600   7.912  71.591  1.00  0.00    -0.080 C  
HETATM    9  S   UNL     1      -8.894   8.354  69.158  1.00  0.00    -0.143 SA 
HETATM   10  O   UNL     1      -7.259   9.202  71.363  1.00  0.00    -0.242 OA 
HETATM   11  O   UNL     1      -7.370   7.366  72.663  1.00  0.00    -0.074 OA 
HETATM   12  H   UNL     1      -8.042   9.374  68.753  1.00  0.00     0.000 H  
ENDBRANCH   3   7
TORSDOF 1
ENDMDL
MODEL      242
REMARK 921   NORMALIZED FREE ENERGY PREDICTED BY IDOCK:   -1.58 KCAL/MOL
REMARK 922        TOTAL FREE ENERGY PREDICTED BY IDOCK:   -1.14 KCAL/MOL
REMARK 923 INTER-LIGAND FREE ENERGY PREDICTED BY IDOCK:   -1.50 KCAL/MOL
REMARK 924 INTRA-LIGAND FREE ENERGY PREDICTED BY IDOCK:    0.36 KCAL/MOL
REMARK 927      BINDING AFFINITY PREDICTED BY RF-SCORE:    0.00 PKD
ROOT
HETATM    1  O   UNL     1      -9.200   8.017  68.476  1.00  0.00    -0.137 OA 
HETATM    2  C   UNL     1      -9.235   6.784  67.918  1.00  0.00    -0.112 C  
HETATM    3  C   UNL     1      -9.125   6.772  66.397  1.00  0.00    -0.152 C  
HETATM    4  O   UNL     1      -9.351   5.775  68.602  1.00  0.00    -0.120 OA 
HETATM    5  S   UNL     1      -8.051   8.173  65.840  1.00  0.00    -0.122 SA 
HETATM    6  H   UNL     1      -7.951   8.162  64.454  1.00  0.00     0.000 H  
ENDROOT
BRANCH   3   7
HETATM    7  C   UNL     1      -8.608   5.426  65.860  1.00  0.00    -0.131 C  
HETATM    8  C   UNL     1      -9.732   4.396  65.826  1.00  0.00    -0.209 C  
HETATM    9  S   UNL     1      -7.119   4.762  66.734  1.00  0.00    -0.073 SA 
HETATM   10  O   UNL     1      -9.329   3.108  65.936  1.00  0.00    -0.154 OA 
HETATM   11  O   UNL     1     -10.903   4.688  65.611  1.00  0.00    -0.292 OA 
HETATM   12  H   UNL     1      -6.653   3.546  66.248  1.00  0.00     0.000 H  
ENDBRANCH   3   7
TORSDOF 1
ENDMDL
MODEL      243
REMARK 921   NORMALIZED FREE ENERGY PREDICTED BY IDOCK:   -1.55 KCAL/MOL
REMARK 922        TOTAL FREE ENERGY PREDICTED BY IDOCK:   -1.10 KCAL/MOL
REMARK 923 INTER-LIGAND FREE ENERGY PREDICTED BY IDOCK:   -1.47 KCAL/MOL
REMARK 924 INTRA-LIGAND FREE ENERGY PREDICTED BY IDOCK:    0.37 KCAL/MOL
REMARK 927      BINDING AFFINITY PREDICTED BY RF-SCORE:    0.00 PKD
ROOT
HETATM    1  O   UNL     1      -8.230   7.452  66.331  1.00  0.00    -0.113 OA 
HETATM    2  C   UNL     1      -8.286   6.111  66.155  1.00  0.00    -0.119 C  
HETATM    3  C   UNL     1      -9.382   5.412  66.950  1.00  0.00    -0.127 C  
HETATM    4  O   UNL     1      -7.504   5.530  65.414  1.00  0.00    -0.071 OA 
HETATM    5  S   UNL     1     -10.844   6.535  67.116  1.00  0.00    -0.405 SA 
HETATM    6  H   UNL     1     -11.844   5.897  67.841  1.00  0.00     0.000 H  
ENDROOT
BRANCH   3   7
HETATM    7  C   UNL     1      -9.784   4.062  66.329  1.00  0.00    -0.187 C  
HETATM    8  C   UNL     1      -8.788   2.975  66.719  1.00  0.00    -0.147 C  
HETATM    9  S   UNL     1     -10.051   4.100  64.499  1.00  0.00    -0.118 SA 
HETATM   10  O   UNL     1      -8.682   1.956  65.834  1.00  0.00    -0.108 OA 
HETATM   11  O   UNL     1      -8.200   2.959  67.793  1.00  0.00    -0.077 OA 
HETATM   12  H   UNL     1     -10.414   2.881  63.938  1.00  0.00     0.000 H  
ENDBRANCH   3   7
TORSDOF 1
ENDMDL
MODEL      244
REMARK 921   NORMALIZED FREE ENERGY PREDICTED BY IDOCK:   -1.53 KCAL/MOL
REMARK 922        TOTAL FREE ENERGY PREDICTED BY IDOCK:   -1.09 KCAL/MOL
REMARK 923 INTER-LIGAND FREE ENERGY PREDICTED BY IDOCK:   -2.02 KCAL/MOL
REMARK 924 INTRA-LIGAND FREE ENERGY PREDICTED BY IDOCK:    0.93 KCAL/MOL
REMARK 927      BINDING AFFINITY PREDICTED BY RF-SCORE:    0.00 PKD
ROOT
HETATM    1  O   UNL     1      -6.625  14.407  67.338  1.00  0.00    -0.287 OA 
HETATM    2  C   UNL     1      -7.456  13.339  67.283  1.00  0.00    -0.055 C  
HETATM    3  C   UNL     1      -8.939  13.685  67.340  1.00  0.00    -0.218 C  
HETATM    4  O   UNL     1      -7.024  12.196  67.199  1.00  0.00    -0.143 OA 
HETATM    5  S   UNL     1      -9.231  15.315  66.513  1.00  0.00    -0.309 SA 
HETATM    6  H   UNL     1     -10.583  15.630  66.565  1.00  0.00     0.000 H  
ENDROOT
BRANCH   3   7
HETATM    7  C   UNL     1      -9.820  12.583  66.724  1.00  0.00    -0.229 C  
HETATM    8  C   UNL     1     -10.607  11.858  67.811  1.00  0.00    -0.203 C  
HETATM    9  S   UNL     1      -8.919  11.385  65.640  1.00  0.00    -0.060 SA 
HETATM   10  O   UNL     1     -10.939  10.579  67.517  1.00  0.00    -0.284 OA 
HETATM   11  O   UNL     1     -11.006  12.408  68.830  1.00  0.00    -0.229 OA 
HETATM   12  H   UNL     1      -9.715  10.391  65.084  1.00  0.00     0.000 H  
ENDBRANCH   3   7
TORSDOF 1
ENDMDL
MODEL      245
REMARK 921   NORMALIZED FREE ENERGY PREDICTED BY IDOCK:   -1.51 KCAL/MOL
REMARK 922        TOTAL FREE ENERGY PREDICTED BY IDOCK:   -1.06 KCAL/MOL
REMARK 923 INTER-LIGAND FREE ENERGY PREDICTED BY IDOCK:   -2.23 KCAL/MOL
REMARK 924 INTRA-LIGAND FREE ENERGY PREDICTED BY IDOCK:    1.16 KCAL/MOL
REMARK 927      BINDING AFFINITY PREDICTED BY RF-SCORE:    0.00 PKD
ROOT
HETATM    1  O   UNL     1      -7.610   9.529  68.597  1.00  0.00    -0.078 OA 
HETATM    2  C   UNL     1      -8.151  10.663  68.093  1.00  0.00    -0.114 C  
HETATM    3  C   UNL     1      -9.638  10.839  68.379  1.00  0.00    -0.176 C  
HETATM    4  O   UNL     1      -7.479  11.467  67.459  1.00  0.00    -0.101 OA 
HETATM    5  S   UNL     1     -10.050  10.089  70.021  1.00  0.00    -0.192 SA 
HETATM    6  H   UNL     1     -11.406  10.249  70.281  1.00  0.00     0.000 H  
ENDROOT
BRANCH   3   7
HETATM    7  C   UNL     1     -10.076  12.312  68.314  1.00  0.00    -0.218 C  
HETATM    8  C   UNL     1     -11.158  12.504  67.256  1.00  0.00    -0.274 C  
HETATM    9  S   UNL     1      -8.695  13.522  68.084  1.00  0.00    -0.175 SA 
HETATM   10  O   UNL     1     -11.209  13.742  66.710  1.00  0.00    -0.303 OA 
HETATM   11  O   UNL     1     -11.990  11.646  66.986  1.00  0.00    -0.593 OA 
HETATM   12  H   UNL     1      -9.091  14.853  68.026  1.00  0.00     0.000 H  
ENDBRANCH   3   7
TORSDOF 1
ENDMDL
MODEL      246
REMARK 921   NORMALIZED FREE ENERGY PREDICTED BY IDOCK:   -1.50 KCAL/MOL
REMARK 922        TOTAL FREE ENERGY PREDICTED BY IDOCK:   -1.05 KCAL/MOL
REMARK 923 INTER-LIGAND FREE ENERGY PREDICTED BY IDOCK:   -1.43 KCAL/MOL
REMARK 924 INTRA-LIGAND FREE ENERGY PREDICTED BY IDOCK:    0.38 KCAL/MOL
REMARK 927      BINDING AFFINITY PREDICTED BY RF-SCORE:    0.00 PKD
ROOT
HETATM    1  O   UNL     1      -7.101   7.718  70.845  1.00  0.00    -0.052 OA 
HETATM    2  C   UNL     1      -7.970   6.818  71.362  1.00  0.00    -0.109 C  
HETATM    3  C   UNL     1      -9.158   6.494  70.463  1.00  0.00    -0.152 C  
HETATM    4  O   UNL     1      -7.795   6.321  72.467  1.00  0.00    -0.102 OA 
HETATM    5  S   UNL     1      -8.641   6.591  68.688  1.00  0.00    -0.123 SA 
HETATM    6  H   UNL     1      -9.724   6.295  67.869  1.00  0.00     0.000 H  
ENDROOT
BRANCH   3   7
HETATM    7  C   UNL     1      -9.779   5.124  70.787  1.00  0.00    -0.190 C  
HETATM    8  C   UNL     1     -10.537   5.179  72.110  1.00  0.00    -0.211 C  
HETATM    9  S   UNL     1      -8.591   3.706  70.757  1.00  0.00    -0.074 SA 
HETATM   10  O   UNL     1     -10.621   3.999  72.769  1.00  0.00    -0.176 OA 
HETATM   11  O   UNL     1     -11.118   6.181  72.508  1.00  0.00    -0.246 OA 
HETATM   12  H   UNL     1      -9.153   2.469  71.050  1.00  0.00     0.000 H  
ENDBRANCH   3   7
TORSDOF 1
ENDMDL
MODEL      247
REMARK 921   NORMALIZED FREE ENERGY PREDICTED BY IDOCK:   -1.48 KCAL/MOL
REMARK 922        TOTAL FREE ENERGY PREDICTED BY IDOCK:   -1.04 KCAL/MOL
REMARK 923 INTER-LIGAND FREE ENERGY PREDICTED BY IDOCK:   -1.40 KCAL/MOL
REMARK 924 INTRA-LIGAND FREE ENERGY PREDICTED BY IDOCK:    0.36 KCAL/MOL
REMARK 927      BINDING AFFINITY PREDICTED BY RF-SCORE:    0.00 PKD
ROOT
HETATM    1  O   UNL     1     -10.615  10.650  68.545  1.00  0.00    -0.178 OA 
HETATM    2  C   UNL     1      -9.939   9.831  67.706  1.00  0.00    -0.168 C  
HETATM    3  C   UNL     1      -8.966   8.881  68.395  1.00  0.00    -0.134 C  
HETATM    4  O   UNL     1     -10.111   9.872  66.495  1.00  0.00    -0.214 OA 
HETATM    5  S   UNL     1      -9.628   8.407  70.057  1.00  0.00    -0.169 SA 
HETATM    6  H   UNL     1      -8.741   7.541  70.684  1.00  0.00     0.000 H  
ENDROOT
BRANCH   3   7
HETATM    7  C   UNL     1      -8.661   7.637  67.541  1.00  0.00    -0.119 C  
HETATM    8  C   UNL     1      -7.642   7.969  66.456  1.00  0.00    -0.092 C  
HETATM    9  S   UNL     1     -10.150   6.803  66.827  1.00  0.00    -0.159 SA 
HETATM   10  O   UNL     1      -7.721   7.199  65.345  1.00  0.00    -0.097 OA 
HETATM   11  O   UNL     1      -6.750   8.795  66.604  1.00  0.00    -0.069 OA 
HETATM   12  H   UNL     1      -9.874   5.680  66.057  1.00  0.00     0.000 H  
ENDBRANCH   3   7
TORSDOF 1
ENDMDL
MODEL      248
REMARK 921   NORMALIZED FREE ENERGY PREDICTED BY IDOCK:   -1.48 KCAL/MOL
REMARK 922        TOTAL FREE ENERGY PREDICTED BY IDOCK:   -1.03 KCAL/MOL
REMARK 923 INTER-LIGAND FREE ENERGY PREDICTED BY IDOCK:   -1.39 KCAL/MOL
REMARK 924 INTRA-LIGAND FREE ENERGY PREDICTED BY IDOCK:    0.36 KCAL/MOL
REMARK 927      BINDING AFFINITY PREDICTED BY RF-SCORE:    0.00 PKD
ROOT
HETATM    1  O   UNL     1     -10.069  10.026  65.149  1.00  0.00    -0.325 OA 
HETATM    2  C   UNL     1      -8.897   9.763  65.775  1.00  0.00    -0.153 C  
HETATM    3  C   UNL     1      -9.034   8.990  67.081  1.00  0.00    -0.130 C  
HETATM    4  O   UNL     1      -7.827  10.131  65.308  1.00  0.00    -0.133 OA 
HETATM    5  S   UNL     1     -10.477   7.836  66.973  1.00  0.00    -0.312 SA 
HETATM    6  H   UNL     1     -10.602   7.131  68.165  1.00  0.00     0.000 H  
ENDROOT
BRANCH   3   7
HETATM    7  C   UNL     1      -7.745   8.237  67.452  1.00  0.00    -0.102 C  
HETATM    8  C   UNL     1      -6.697   9.204  67.993  1.00  0.00    -0.068 C  
HETATM    9  S   UNL     1      -7.047   7.181  66.102  1.00  0.00    -0.075 SA 
HETATM   10  O   UNL     1      -5.413   8.813  67.811  1.00  0.00    -0.034 OA 
HETATM   11  O   UNL     1      -6.979  10.208  68.635  1.00  0.00    -0.060 OA 
HETATM   12  H   UNL     1      -5.883   6.501  66.438  1.00  0.00     0.000 H  
ENDBRANCH   3   7
TORSDOF 1
ENDMDL
MODEL      249
REMARK 921   NORMALIZED FREE ENERGY PREDICTED BY IDOCK:   -1.48 KCAL/MOL
REMARK 922        TOTAL FREE ENERGY PREDICTED BY IDOCK:   -1.03 KCAL/MOL
REMARK 923 INTER-LIGAND FREE ENERGY PREDICTED BY IDOCK:   -1.54 KCAL/MOL
REMARK 924 INTRA-LIGAND FREE ENERGY PREDICTED BY IDOCK:    0.51 KCAL/MOL
REMARK 927      BINDING AFFINITY PREDICTED BY RF-SCORE:    0.00 PKD
ROOT
HETATM    1  O   UNL     1      -7.098   6.597  69.647  1.00  0.00    -0.064 OA 
HETATM    2  C   UNL     1      -8.419   6.894  69.614  1.00  0.00    -0.133 C  
HETATM    3  C   UNL     1      -8.739   8.381  69.708  1.00  0.00    -0.133 C  
HETATM    4  O   UNL     1      -9.269   6.018  69.518  1.00  0.00    -0.135 OA 
HETATM    5  S   UNL     1      -7.397   9.359  68.889  1.00  0.00    -0.074 SA 
HETATM    6  H   UNL     1      -7.689  10.716  68.976  1.00  0.00     0.000 H  
ENDROOT
BRANCH   3   7
HETATM    7  C   UNL     1     -10.117   8.721  69.115  1.00  0.00    -0.198 C  
HETATM    8  C   UNL     1     -10.050   8.757  67.592  1.00  0.00    -0.216 C  
HETATM    9  S   UNL     1     -10.891  10.262  69.786  1.00  0.00    -0.303 SA 
HETATM   10  O   UNL     1     -10.962   9.564  67.000  1.00  0.00    -0.138 OA 
HETATM   11  O   UNL     1      -9.306   8.037  66.936  1.00  0.00    -0.145 OA 
HETATM   12  H   UNL     1     -12.136  10.569  69.250  1.00  0.00     0.000 H  
ENDBRANCH   3   7
TORSDOF 1
ENDMDL
MODEL      250
REMARK 921   NORMALIZED FREE ENERGY PREDICTED BY IDOCK:   -1.48 KCAL/MOL
REMARK 922        TOTAL FREE ENERGY PREDICTED BY IDOCK:   -1.03 KCAL/MOL
REMARK 923 INTER-LIGAND FREE ENERGY PREDICTED BY IDOCK:   -1.38 KCAL/MOL
REMARK 924 INTRA-LIGAND FREE ENERGY PREDICTED BY IDOCK:    0.36 KCAL/MOL
REMARK 927      BINDING AFFINITY PREDICTED BY RF-SCORE:    0.00 PKD
ROOT
HETATM    1  O   UNL     1     -10.783   4.771  65.970  1.00  0.00    -0.319 OA 
HETATM    2  C   UNL     1      -9.556   5.309  66.164  1.00  0.00    -0.161 C  
HETATM    3  C   UNL     1      -9.504   6.412  67.215  1.00  0.00    -0.123 C  
HETATM    4  O   UNL     1      -8.582   4.925  65.530  1.00  0.00    -0.125 OA 
HETATM    5  S   UNL     1     -10.747   6.065  68.543  1.00  0.00    -0.283 SA 
HETATM    6  H   UNL     1     -10.700   7.071  69.501  1.00  0.00     0.000 H  
ENDROOT
BRANCH   3   7
HETATM    7  C   UNL     1      -8.095   6.592  67.805  1.00  0.00    -0.115 C  
HETATM    8  C   UNL     1      -7.205   7.367  66.839  1.00  0.00    -0.088 C  
HETATM    9  S   UNL     1      -7.278   5.025  68.353  1.00  0.00    -0.063 SA 
HETATM   10  O   UNL     1      -5.882   7.104  66.946  1.00  0.00    -0.025 OA 
HETATM   11  O   UNL     1      -7.629   8.240  66.091  1.00  0.00    -0.083 OA 
HETATM   12  H   UNL     1      -6.004   5.188  68.886  1.00  0.00     0.000 H  
ENDBRANCH   3   7
TORSDOF 1
ENDMDL
MODEL      251
REMARK 921   NORMALIZED FREE ENERGY PREDICTED BY IDOCK:   -1.45 KCAL/MOL
REMARK 922        TOTAL FREE ENERGY PREDICTED BY IDOCK:   -1.00 KCAL/MOL
REMARK 923 INTER-LIGAND FREE ENERGY PREDICTED BY IDOCK:   -2.34 KCAL/MOL
REMARK 924 INTRA-LIGAND FREE ENERGY PREDICTED BY IDOCK:    1.33 KCAL/MOL
REMARK 927      BINDING AFFINITY PREDICTED BY RF-SCORE:    0.00 PKD
ROOT
HETATM    1  O   UNL     1      -6.180  13.035  67.539  1.00  0.00    -0.154 OA 
HETATM    2  C   UNL     1      -7.464  13.427  67.364  1.00  0.00    -0.123 C  
HETATM    3  C   UNL     1      -8.418  12.311  66.955  1.00  0.00    -0.181 C  
HETATM    4  O   UNL     1      -7.804  14.592  67.525  1.00  0.00    -0.162 OA 
HETATM    5  S   UNL     1      -7.876  10.716  67.723  1.00  0.00    -0.110 SA 
HETATM    6  H   UNL     1      -8.747   9.699  67.350  1.00  0.00     0.000 H  
ENDROOT
BRANCH   3   7
HETATM    7  C   UNL     1      -9.880  12.633  67.312  1.00  0.00    -0.206 C  
HETATM    8  C   UNL     1     -10.820  11.603  66.695  1.00  0.00    -0.283 C  
HETATM    9  S   UNL     1     -10.417  14.356  66.904  1.00  0.00    -0.271 SA 
HETATM   10  O   UNL     1     -12.071  12.053  66.439  1.00  0.00    -0.610 OA 
HETATM   11  O   UNL     1     -10.515  10.427  66.535  1.00  0.00    -0.236 OA 
HETATM   12  H   UNL     1     -11.737  14.646  67.226  1.00  0.00     0.000 H  
ENDBRANCH   3   7
TORSDOF 1
ENDMDL
MODEL      252
REMARK 921   NORMALIZED FREE ENERGY PREDICTED BY IDOCK:   -1.45 KCAL/MOL
REMARK 922        TOTAL FREE ENERGY PREDICTED BY IDOCK:   -1.00 KCAL/MOL
REMARK 923 INTER-LIGAND FREE ENERGY PREDICTED BY IDOCK:   -1.51 KCAL/MOL
REMARK 924 INTRA-LIGAND FREE ENERGY PREDICTED BY IDOCK:    0.52 KCAL/MOL
REMARK 927      BINDING AFFINITY PREDICTED BY RF-SCORE:    0.00 PKD
ROOT
HETATM    1  O   UNL     1     -10.850   4.639  65.674  1.00  0.00    -0.292 OA 
HETATM    2  C   UNL     1      -9.579   5.009  65.957  1.00  0.00    -0.168 C  
HETATM    3  C   UNL     1      -9.455   6.324  66.717  1.00  0.00    -0.144 C  
HETATM    4  O   UNL     1      -8.622   4.325  65.615  1.00  0.00    -0.116 OA 
HETATM    5  S   UNL     1     -10.910   6.533  67.842  1.00  0.00    -0.302 SA 
HETATM    6  H   UNL     1     -10.796   7.733  68.534  1.00  0.00     0.000 H  
ENDROOT
BRANCH   3   7
HETATM    7  C   UNL     1      -8.131   6.427  67.494  1.00  0.00    -0.117 C  
HETATM    8  C   UNL     1      -8.196   5.600  68.774  1.00  0.00    -0.103 C  
HETATM    9  S   UNL     1      -7.568   8.155  67.843  1.00  0.00    -0.103 SA 
HETATM   10  O   UNL     1      -7.396   6.036  69.776  1.00  0.00    -0.074 OA 
HETATM   11  O   UNL     1      -8.836   4.560  68.868  1.00  0.00    -0.094 OA 
HETATM   12  H   UNL     1      -6.373   8.248  68.545  1.00  0.00     0.000 H  
ENDBRANCH   3   7
TORSDOF 1
ENDMDL
MODEL      253
REMARK 921   NORMALIZED FREE ENERGY PREDICTED BY IDOCK:   -1.45 KCAL/MOL
REMARK 922        TOTAL FREE ENERGY PREDICTED BY IDOCK:   -1.00 KCAL/MOL
REMARK 923 INTER-LIGAND FREE ENERGY PREDICTED BY IDOCK:   -1.38 KCAL/MOL
REMARK 924 INTRA-LIGAND FREE ENERGY PREDICTED BY IDOCK:    0.38 KCAL/MOL
REMARK 927      BINDING AFFINITY PREDICTED BY RF-SCORE:    0.00 PKD
ROOT
HETATM    1  O   UNL     1      -7.379   7.600  71.410  1.00  0.00    -0.071 OA 
HETATM    2  C   UNL     1      -8.201   7.740  70.342  1.00  0.00    -0.121 C  
HETATM    3  C   UNL     1      -7.604   7.280  69.017  1.00  0.00    -0.099 C  
HETATM    4  O   UNL     1      -9.327   8.204  70.459  1.00  0.00    -0.153 OA 
HETATM    5  S   UNL     1      -6.457   5.857  69.312  1.00  0.00    -0.044 SA 
HETATM    6  H   UNL     1      -5.913   5.438  68.103  1.00  0.00     0.000 H  
ENDROOT
BRANCH   3   7
HETATM    7  C   UNL     1      -8.685   6.920  67.983  1.00  0.00    -0.125 C  
HETATM    8  C   UNL     1      -9.373   8.179  67.467  1.00  0.00    -0.140 C  
HETATM    9  S   UNL     1      -9.922   5.670  68.558  1.00  0.00    -0.170 SA 
HETATM   10  O   UNL     1     -10.645   7.999  67.040  1.00  0.00    -0.335 OA 
HETATM   11  O   UNL     1      -8.799   9.255  67.346  1.00  0.00    -0.118 OA 
HETATM   12  H   UNL     1     -10.898   5.345  67.624  1.00  0.00     0.000 H  
ENDBRANCH   3   7
TORSDOF 1
ENDMDL
MODEL      254
REMARK 921   NORMALIZED FREE ENERGY PREDICTED BY IDOCK:   -1.44 KCAL/MOL
REMARK 922        TOTAL FREE ENERGY PREDICTED BY IDOCK:   -0.99 KCAL/MOL
REMARK 923 INTER-LIGAND FREE ENERGY PREDICTED BY IDOCK:   -1.35 KCAL/MOL
REMARK 924 INTRA-LIGAND FREE ENERGY PREDICTED BY IDOCK:    0.36 KCAL/MOL
REMARK 927      BINDING AFFINITY PREDICTED BY RF-SCORE:    0.00 PKD
ROOT
HETATM    1  O   UNL     1     -11.133   5.694  66.446  1.00  0.00    -0.160 OA 
HETATM    2  C   UNL     1     -10.068   5.111  67.045  1.00  0.00    -0.217 C  
HETATM    3  C   UNL     1      -9.256   6.039  67.940  1.00  0.00    -0.111 C  
HETATM    4  O   UNL     1      -9.799   3.930  66.863  1.00  0.00    -0.205 OA 
HETATM    5  S   UNL     1     -10.376   7.289  68.721  1.00  0.00    -0.201 SA 
HETATM    6  H   UNL     1      -9.634   8.136  69.537  1.00  0.00     0.000 H  
ENDROOT
BRANCH   3   7
HETATM    7  C   UNL     1      -8.452   5.270  69.004  1.00  0.00    -0.095 C  
HETATM    8  C   UNL     1      -7.195   4.664  68.390  1.00  0.00    -0.064 C  
HETATM    9  S   UNL     1      -9.419   3.999  69.937  1.00  0.00    -0.204 SA 
HETATM   10  O   UNL     1      -6.738   3.550  69.009  1.00  0.00    -0.042 OA 
HETATM   11  O   UNL     1      -6.575   5.191  67.474  1.00  0.00    -0.050 OA 
HETATM   12  H   UNL     1      -8.693   3.304  70.898  1.00  0.00     0.000 H  
ENDBRANCH   3   7
TORSDOF 1
ENDMDL
MODEL      255
REMARK 921   NORMALIZED FREE ENERGY PREDICTED BY IDOCK:   -1.43 KCAL/MOL
REMARK 922        TOTAL FREE ENERGY PREDICTED BY IDOCK:   -0.98 KCAL/MOL
REMARK 923 INTER-LIGAND FREE ENERGY PREDICTED BY IDOCK:   -1.33 KCAL/MOL
REMARK 924 INTRA-LIGAND FREE ENERGY PREDICTED BY IDOCK:    0.36 KCAL/MOL
REMARK 927      BINDING AFFINITY PREDICTED BY RF-SCORE:    0.00 PKD
ROOT
HETATM    1  O   UNL     1      -8.765   9.048  63.255  1.00  0.00    -0.188 OA 
HETATM    2  C   UNL     1      -8.536   9.385  64.546  1.00  0.00    -0.198 C  
HETATM    3  C   UNL     1      -8.540   8.211  65.519  1.00  0.00    -0.149 C  
HETATM    4  O   UNL     1      -8.348  10.548  64.880  1.00  0.00    -0.170 OA 
HETATM    5  S   UNL     1      -7.890   6.699  64.673  1.00  0.00    -0.113 SA 
HETATM    6  H   UNL     1      -7.894   5.629  65.560  1.00  0.00     0.000 H  
ENDROOT
BRANCH   3   7
HETATM    7  C   UNL     1      -7.748   8.514  66.803  1.00  0.00    -0.091 C  
HETATM    8  C   UNL     1      -8.574   9.380  67.750  1.00  0.00    -0.116 C  
HETATM    9  S   UNL     1      -6.070   9.241  66.526  1.00  0.00    -0.065 SA 
HETATM   10  O   UNL     1      -7.850  10.162  68.584  1.00  0.00    -0.090 OA 
HETATM   11  O   UNL     1      -9.794   9.307  67.833  1.00  0.00    -0.155 OA 
HETATM   12  H   UNL     1      -5.355   9.515  67.686  1.00  0.00     0.000 H  
ENDBRANCH   3   7
TORSDOF 1
ENDMDL
MODEL      256
REMARK 921   NORMALIZED FREE ENERGY PREDICTED BY IDOCK:   -1.40 KCAL/MOL
REMARK 922        TOTAL FREE ENERGY PREDICTED BY IDOCK:   -0.95 KCAL/MOL
REMARK 923 INTER-LIGAND FREE ENERGY PREDICTED BY IDOCK:   -1.46 KCAL/MOL
REMARK 924 INTRA-LIGAND FREE ENERGY PREDICTED BY IDOCK:    0.51 KCAL/MOL
REMARK 927      BINDING AFFINITY PREDICTED BY RF-SCORE:    0.00 PKD
ROOT
HETATM    1  O   UNL     1     -11.146   5.491  70.648  1.00  0.00    -0.198 OA 
HETATM    2  C   UNL     1     -10.347   6.578  70.536  1.00  0.00    -0.201 C  
HETATM    3  C   UNL     1      -8.987   6.304  69.904  1.00  0.00    -0.141 C  
HETATM    4  O   UNL     1     -10.710   7.682  70.922  1.00  0.00    -0.229 OA 
HETATM    5  S   UNL     1      -9.144   4.952  68.650  1.00  0.00    -0.119 SA 
HETATM    6  H   UNL     1      -7.904   4.702  68.074  1.00  0.00     0.000 H  
ENDROOT
BRANCH   3   7
HETATM    7  C   UNL     1      -8.364   7.568  69.286  1.00  0.00    -0.132 C  
HETATM    8  C   UNL     1      -8.984   7.858  67.923  1.00  0.00    -0.129 C  
HETATM    9  S   UNL     1      -6.517   7.555  69.191  1.00  0.00    -0.041 SA 
HETATM   10  O   UNL     1      -8.184   8.532  67.064  1.00  0.00    -0.105 OA 
HETATM   11  O   UNL     1     -10.150   7.600  67.648  1.00  0.00    -0.166 OA 
HETATM   12  H   UNL     1      -5.955   8.697  68.632  1.00  0.00     0.000 H  
ENDBRANCH   3   7
TORSDOF 1
ENDMDL
MODEL      257
REMARK 921   NORMALIZED FREE ENERGY PREDICTED BY IDOCK:   -1.38 KCAL/MOL
REMARK 922        TOTAL FREE ENERGY PREDICTED BY IDOCK:   -0.93 KCAL/MOL
REMARK 923 INTER-LIGAND FREE ENERGY PREDICTED BY IDOCK:   -1.29 KCAL/MOL
REMARK 924 INTRA-LIGAND FREE ENERGY PREDICTED BY IDOCK:    0.36 KCAL/MOL
REMARK 927      BINDING AFFINITY PREDICTED BY RF-SCORE:    0.00 PKD
ROOT
HETATM    1  O   UNL     1      -8.588   6.745  65.507  1.00  0.00    -0.147 OA 
HETATM    2  C   UNL     1      -8.526   5.563  64.849  1.00  0.00    -0.139 C  
HETATM    3  C   UNL     1      -8.850   4.343  65.703  1.00  0.00    -0.124 C  
HETATM    4  O   UNL     1      -8.227   5.507  63.663  1.00  0.00    -0.119 OA 
HETATM    5  S   UNL     1     -10.110   4.795  66.982  1.00  0.00    -0.159 SA 
HETATM    6  H   UNL     1     -10.405   3.682  67.761  1.00  0.00     0.000 H  
ENDROOT
BRANCH   3   7
HETATM    7  C   UNL     1      -9.320   3.146  64.857  1.00  0.00    -0.149 C  
HETATM    8  C   UNL     1      -8.128   2.442  64.218  1.00  0.00    -0.081 C  
HETATM    9  S   UNL     1     -10.613   3.547  63.597  1.00  0.00    -0.261 SA 
HETATM   10  O   UNL     1      -8.402   1.794  63.061  1.00  0.00    -0.066 OA 
HETATM   11  O   UNL     1      -7.027   2.370  64.751  1.00  0.00    -0.045 OA 
HETATM   12  H   UNL     1     -11.037   2.466  62.833  1.00  0.00     0.000 H  
ENDBRANCH   3   7
TORSDOF 1
ENDMDL
MODEL      258
REMARK 921   NORMALIZED FREE ENERGY PREDICTED BY IDOCK:   -1.37 KCAL/MOL
REMARK 922        TOTAL FREE ENERGY PREDICTED BY IDOCK:   -0.92 KCAL/MOL
REMARK 923 INTER-LIGAND FREE ENERGY PREDICTED BY IDOCK:   -1.43 KCAL/MOL
REMARK 924 INTRA-LIGAND FREE ENERGY PREDICTED BY IDOCK:    0.51 KCAL/MOL
REMARK 927      BINDING AFFINITY PREDICTED BY RF-SCORE:    0.00 PKD
ROOT
HETATM    1  O   UNL     1     -10.452   8.596  66.581  1.00  0.00    -0.277 OA 
HETATM    2  C   UNL     1      -9.536   8.183  67.488  1.00  0.00    -0.152 C  
HETATM    3  C   UNL     1      -9.868   6.862  68.171  1.00  0.00    -0.136 C  
HETATM    4  O   UNL     1      -8.530   8.840  67.725  1.00  0.00    -0.124 OA 
HETATM    5  S   UNL     1     -10.783   5.765  66.994  1.00  0.00    -0.246 SA 
HETATM    6  H   UNL     1     -11.086   4.560  67.617  1.00  0.00     0.000 H  
ENDROOT
BRANCH   3   7
HETATM    7  C   UNL     1      -8.617   6.161  68.728  1.00  0.00    -0.120 C  
HETATM    8  C   UNL     1      -7.888   5.408  67.620  1.00  0.00    -0.100 C  
HETATM    9  S   UNL     1      -8.925   5.066  70.187  1.00  0.00    -0.114 SA 
HETATM   10  O   UNL     1      -7.167   4.340  68.035  1.00  0.00    -0.062 OA 
HETATM   11  O   UNL     1      -7.861   5.789  66.456  1.00  0.00    -0.099 OA 
HETATM   12  H   UNL     1      -7.795   4.433  70.690  1.00  0.00     0.000 H  
ENDBRANCH   3   7
TORSDOF 1
ENDMDL
MODEL      259
REMARK 921   NORMALIZED FREE ENERGY PREDICTED BY IDOCK:   -1.37 KCAL/MOL
REMARK 922        TOTAL FREE ENERGY PREDICTED BY IDOCK:   -0.92 KCAL/MOL
REMARK 923 INTER-LIGAND FREE ENERGY PREDICTED BY IDOCK:   -1.28 KCAL/MOL
REMARK 924 INTRA-LIGAND FREE ENERGY PREDICTED BY IDOCK:    0.36 KCAL/MOL
REMARK 927      BINDING AFFINITY PREDICTED BY RF-SCORE:    0.00 PKD
ROOT
HETATM    1  O   UNL     1      -8.903   8.467  72.134  1.00  0.00    -0.181 OA 
HETATM    2  C   UNL     1      -8.420   8.084  70.928  1.00  0.00    -0.124 C  
HETATM    3  C   UNL     1      -9.139   6.892  70.306  1.00  0.00    -0.153 C  
HETATM    4  O   UNL     1      -7.478   8.663  70.403  1.00  0.00    -0.059 OA 
HETATM    5  S   UNL     1     -10.926   6.922  70.787  1.00  0.00    -0.273 SA 
HETATM    6  H   UNL     1     -11.581   5.835  70.220  1.00  0.00     0.000 H  
ENDROOT
BRANCH   3   7
HETATM    7  C   UNL     1      -8.975   6.844  68.777  1.00  0.00    -0.130 C  
HETATM    8  C   UNL     1      -7.612   6.272  68.402  1.00  0.00    -0.096 C  
HETATM    9  S   UNL     1      -9.284   8.451  67.913  1.00  0.00    -0.135 SA 
HETATM   10  O   UNL     1      -7.124   6.691  67.211  1.00  0.00    -0.075 OA 
HETATM   11  O   UNL     1      -7.038   5.418  69.068  1.00  0.00    -0.055 OA 
HETATM   12  H   UNL     1      -9.136   8.407  66.532  1.00  0.00     0.000 H  
ENDBRANCH   3   7
TORSDOF 1
ENDMDL
MODEL      260
REMARK 921   NORMALIZED FREE ENERGY PREDICTED BY IDOCK:   -1.36 KCAL/MOL
REMARK 922        TOTAL FREE ENERGY PREDICTED BY IDOCK:   -0.90 KCAL/MOL
REMARK 923 INTER-LIGAND FREE ENERGY PREDICTED BY IDOCK:   -1.42 KCAL/MOL
REMARK 924 INTRA-LIGAND FREE ENERGY PREDICTED BY IDOCK:    0.52 KCAL/MOL
REMARK 927      BINDING AFFINITY PREDICTED BY RF-SCORE:    0.00 PKD
ROOT
HETATM    1  O   UNL     1      -7.817   8.514  71.212  1.00  0.00    -0.096 OA 
HETATM    2  C   UNL     1      -8.688   9.193  70.429  1.00  0.00    -0.215 C  
HETATM    3  C   UNL     1      -8.045  10.233  69.518  1.00  0.00    -0.162 C  
HETATM    4  O   UNL     1      -9.892   8.973  70.470  1.00  0.00    -0.185 OA 
HETATM    5  S   UNL     1      -6.363   9.656  69.005  1.00  0.00    -0.041 SA 
HETATM    6  H   UNL     1      -5.777  10.605  68.174  1.00  0.00     0.000 H  
ENDROOT
BRANCH   3   7
HETATM    7  C   UNL     1      -8.920  10.559  68.295  1.00  0.00    -0.139 C  
HETATM    8  C   UNL     1      -8.810   9.455  67.249  1.00  0.00    -0.128 C  
HETATM    9  S   UNL     1      -8.615  12.223  67.545  1.00  0.00    -0.185 SA 
HETATM   10  O   UNL     1      -9.030   9.853  65.974  1.00  0.00    -0.141 OA 
HETATM   11  O   UNL     1      -8.640   8.276  67.534  1.00  0.00    -0.128 OA 
HETATM   12  H   UNL     1      -9.405  12.517  66.440  1.00  0.00     0.000 H  
ENDBRANCH   3   7
TORSDOF 1
ENDMDL
MODEL      261
REMARK 921   NORMALIZED FREE ENERGY PREDICTED BY IDOCK:   -1.33 KCAL/MOL
REMARK 922        TOTAL FREE ENERGY PREDICTED BY IDOCK:   -0.88 KCAL/MOL
REMARK 923 INTER-LIGAND FREE ENERGY PREDICTED BY IDOCK:   -1.23 KCAL/MOL
REMARK 924 INTRA-LIGAND FREE ENERGY PREDICTED BY IDOCK:    0.36 KCAL/MOL
REMARK 927      BINDING AFFINITY PREDICTED BY RF-SCORE:    0.00 PKD
ROOT
HETATM    1  O   UNL     1      -9.463   8.021  66.181  1.00  0.00    -0.190 OA 
HETATM    2  C   UNL     1      -9.182   7.547  67.418  1.00  0.00    -0.132 C  
HETATM    3  C   UNL     1      -7.907   8.107  68.038  1.00  0.00    -0.122 C  
HETATM    4  O   UNL     1      -9.908   6.732  67.971  1.00  0.00    -0.133 OA 
HETATM    5  S   UNL     1      -7.654   9.852  67.472  1.00  0.00    -0.091 SA 
HETATM    6  H   UNL     1      -6.491  10.362  68.037  1.00  0.00     0.000 H  
ENDROOT
BRANCH   3   7
HETATM    7  C   UNL     1      -7.914   8.015  69.574  1.00  0.00    -0.115 C  
HETATM    8  C   UNL     1      -7.631   6.587  70.026  1.00  0.00    -0.100 C  
HETATM    9  S   UNL     1      -9.438   8.682  70.383  1.00  0.00    -0.180 SA 
HETATM   10  O   UNL     1      -8.156   6.254  71.228  1.00  0.00    -0.114 OA 
HETATM   11  O   UNL     1      -6.900   5.821  69.409  1.00  0.00    -0.057 OA 
HETATM   12  H   UNL     1      -9.445   8.599  71.770  1.00  0.00     0.000 H  
ENDBRANCH   3   7
TORSDOF 1
ENDMDL
MODEL      262
REMARK 921   NORMALIZED FREE ENERGY PREDICTED BY IDOCK:   -1.28 KCAL/MOL
REMARK 922        TOTAL FREE ENERGY PREDICTED BY IDOCK:   -0.82 KCAL/MOL
REMARK 923 INTER-LIGAND FREE ENERGY PREDICTED BY IDOCK:   -1.33 KCAL/MOL
REMARK 924 INTRA-LIGAND FREE ENERGY PREDICTED BY IDOCK:    0.51 KCAL/MOL
REMARK 927      BINDING AFFINITY PREDICTED BY RF-SCORE:    0.00 PKD
ROOT
HETATM    1  O   UNL     1      -9.584   7.261  68.626  1.00  0.00    -0.141 OA 
HETATM    2  C   UNL     1      -9.593   7.669  67.335  1.00  0.00    -0.147 C  
HETATM    3  C   UNL     1      -8.213   7.798  66.701  1.00  0.00    -0.123 C  
HETATM    4  O   UNL     1     -10.640   7.913  66.749  1.00  0.00    -0.326 OA 
HETATM    5  S   UNL     1      -7.077   6.524  67.416  1.00  0.00    -0.082 SA 
HETATM    6  H   UNL     1      -5.819   6.642  66.837  1.00  0.00     0.000 H  
ENDROOT
BRANCH   3   7
HETATM    7  C   UNL     1      -8.264   7.700  65.166  1.00  0.00    -0.128 C  
HETATM    8  C   UNL     1      -8.349   6.242  64.726  1.00  0.00    -0.051 C  
HETATM    9  S   UNL     1      -6.899   8.585  64.286  1.00  0.00    -0.074 SA 
HETATM   10  O   UNL     1      -7.837   5.987  63.499  1.00  0.00    -0.095 OA 
HETATM   11  O   UNL     1      -8.926   5.378  65.375  1.00  0.00    -0.160 OA 
HETATM   12  H   UNL     1      -6.946   8.496  62.900  1.00  0.00     0.000 H  
ENDBRANCH   3   7
TORSDOF 1
ENDMDL
MODEL      263
REMARK 921   NORMALIZED FREE ENERGY PREDICTED BY IDOCK:   -1.24 KCAL/MOL
REMARK 922        TOTAL FREE ENERGY PREDICTED BY IDOCK:   -0.78 KCAL/MOL
REMARK 923 INTER-LIGAND FREE ENERGY PREDICTED BY IDOCK:   -1.14 KCAL/MOL
REMARK 924 INTRA-LIGAND FREE ENERGY PREDICTED BY IDOCK:    0.36 KCAL/MOL
REMARK 927      BINDING AFFINITY PREDICTED BY RF-SCORE:    0.00 PKD
ROOT
HETATM    1  O   UNL     1     -10.774   5.201  66.531  1.00  0.00    -0.300 OA 
HETATM    2  C   UNL     1      -9.594   5.183  65.867  1.00  0.00    -0.148 C  
HETATM    3  C   UNL     1      -8.664   6.345  66.195  1.00  0.00    -0.146 C  
HETATM    4  O   UNL     1      -9.322   4.295  65.070  1.00  0.00    -0.149 OA 
HETATM    5  S   UNL     1      -8.896   6.850  67.961  1.00  0.00    -0.122 SA 
HETATM    6  H   UNL     1      -8.047   7.910  68.259  1.00  0.00     0.000 H  
ENDROOT
BRANCH   3   7
HETATM    7  C   UNL     1      -7.190   6.015  65.899  1.00  0.00    -0.075 C  
HETATM    8  C   UNL     1      -6.918   6.080  64.400  1.00  0.00    -0.051 C  
HETATM    9  S   UNL     1      -6.593   4.419  66.618  1.00  0.00    -0.051 SA 
HETATM   10  O   UNL     1      -5.903   5.294  63.970  1.00  0.00    -0.020 OA 
HETATM   11  O   UNL     1      -7.494   6.856  63.647  1.00  0.00    -0.077 OA 
HETATM   12  H   UNL     1      -5.263   4.121  66.350  1.00  0.00     0.000 H  
ENDBRANCH   3   7
TORSDOF 1
ENDMDL
MODEL      264
REMARK 921   NORMALIZED FREE ENERGY PREDICTED BY IDOCK:   -1.19 KCAL/MOL
REMARK 922        TOTAL FREE ENERGY PREDICTED BY IDOCK:   -0.72 KCAL/MOL
REMARK 923 INTER-LIGAND FREE ENERGY PREDICTED BY IDOCK:   -2.05 KCAL/MOL
REMARK 924 INTRA-LIGAND FREE ENERGY PREDICTED BY IDOCK:    1.33 KCAL/MOL
REMARK 927      BINDING AFFINITY PREDICTED BY RF-SCORE:    0.00 PKD
ROOT
HETATM    1  O   UNL     1      -8.493   5.776  71.056  1.00  0.00    -0.120 OA 
HETATM    2  C   UNL     1      -8.908   7.019  70.712  1.00  0.00    -0.149 C  
HETATM    3  C   UNL     1      -9.438   7.140  69.288  1.00  0.00    -0.152 C  
HETATM    4  O   UNL     1      -8.848   7.954  71.500  1.00  0.00    -0.124 OA 
HETATM    5  S   UNL     1     -10.260   5.557  68.793  1.00  0.00    -0.194 SA 
HETATM    6  H   UNL     1     -10.743   5.668  67.494  1.00  0.00     0.000 H  
ENDROOT
BRANCH   3   7
HETATM    7  C   UNL     1     -10.388   8.338  69.118  1.00  0.00    -0.217 C  
HETATM    8  C   UNL     1     -10.527   8.706  67.645  1.00  0.00    -0.244 C  
HETATM    9  S   UNL     1      -9.958   9.820  70.139  1.00  0.00    -0.243 SA 
HETATM   10  O   UNL     1     -10.828  10.005  67.407  1.00  0.00    -0.282 OA 
HETATM   11  O   UNL     1     -10.477   7.881  66.740  1.00  0.00    -0.327 OA 
HETATM   12  H   UNL     1     -10.816  10.902  69.985  1.00  0.00     0.000 H  
ENDBRANCH   3   7
TORSDOF 1
ENDMDL
MODEL      265
REMARK 921   NORMALIZED FREE ENERGY PREDICTED BY IDOCK:   -1.18 KCAL/MOL
REMARK 922        TOTAL FREE ENERGY PREDICTED BY IDOCK:   -0.71 KCAL/MOL
REMARK 923 INTER-LIGAND FREE ENERGY PREDICTED BY IDOCK:   -1.29 KCAL/MOL
REMARK 924 INTRA-LIGAND FREE ENERGY PREDICTED BY IDOCK:    0.58 KCAL/MOL
REMARK 927      BINDING AFFINITY PREDICTED BY RF-SCORE:    0.00 PKD
ROOT
HETATM    1  O   UNL     1      -7.729   7.532  69.253  1.00  0.00    -0.107 OA 
HETATM    2  C   UNL     1      -7.891   7.744  70.581  1.00  0.00    -0.096 C  
HETATM    3  C   UNL     1      -9.142   7.109  71.177  1.00  0.00    -0.152 C  
HETATM    4  O   UNL     1      -7.085   8.401  71.227  1.00  0.00    -0.057 OA 
HETATM    5  S   UNL     1      -9.523   5.531  70.286  1.00  0.00    -0.172 SA 
HETATM    6  H   UNL     1     -10.664   4.952  70.830  1.00  0.00     0.000 H  
ENDROOT
BRANCH   3   7
HETATM    7  C   UNL     1      -9.013   6.875  72.692  1.00  0.00    -0.128 C  
HETATM    8  C   UNL     1      -8.351   5.530  72.972  1.00  0.00    -0.119 C  
HETATM    9  S   UNL     1     -10.591   7.054  73.641  1.00  0.00    -0.256 SA 
HETATM   10  O   UNL     1      -8.687   4.965  74.156  1.00  0.00    -0.113 OA 
HETATM   11  O   UNL     1      -7.500   5.037  72.242  1.00  0.00    -0.088 OA 
HETATM   12  H   UNL     1     -10.474   6.843  75.010  1.00  0.00     0.000 H  
ENDBRANCH   3   7
TORSDOF 1
ENDMDL
MODEL      266
REMARK 921   NORMALIZED FREE ENERGY PREDICTED BY IDOCK:   -1.16 KCAL/MOL
REMARK 922        TOTAL FREE ENERGY PREDICTED BY IDOCK:   -0.69 KCAL/MOL
REMARK 923 INTER-LIGAND FREE ENERGY PREDICTED BY IDOCK:   -1.05 KCAL/MOL
REMARK 924 INTRA-LIGAND FREE ENERGY PREDICTED BY IDOCK:    0.37 KCAL/MOL
REMARK 927      BINDING AFFINITY PREDICTED BY RF-SCORE:    0.00 PKD
ROOT
HETATM    1  O   UNL     1      -9.081   3.054  71.548  1.00  0.00    -0.088 OA 
HETATM    2  C   UNL     1      -8.794   4.344  71.255  1.00  0.00    -0.116 C  
HETATM    3  C   UNL     1      -8.506   4.612  69.783  1.00  0.00    -0.073 C  
HETATM    4  O   UNL     1      -8.772   5.207  72.123  1.00  0.00    -0.127 OA 
HETATM    5  S   UNL     1      -9.517   3.471  68.733  1.00  0.00    -0.082 SA 
HETATM    6  H   UNL     1      -9.254   3.715  67.390  1.00  0.00     0.000 H  
ENDROOT
BRANCH   3   7
HETATM    7  C   UNL     1      -8.746   6.082  69.398  1.00  0.00    -0.121 C  
HETATM    8  C   UNL     1      -7.561   6.946  69.818  1.00  0.00    -0.104 C  
HETATM    9  S   UNL     1     -10.341   6.794  70.010  1.00  0.00    -0.207 SA 
HETATM   10  O   UNL     1      -7.860   8.242  70.068  1.00  0.00    -0.099 OA 
HETATM   11  O   UNL     1      -6.406   6.538  69.830  1.00  0.00    -0.036 OA 
HETATM   12  H   UNL     1     -10.557   8.122  69.663  1.00  0.00     0.000 H  
ENDBRANCH   3   7
TORSDOF 1
ENDMDL
MODEL      267
REMARK 921   NORMALIZED FREE ENERGY PREDICTED BY IDOCK:   -1.14 KCAL/MOL
REMARK 922        TOTAL FREE ENERGY PREDICTED BY IDOCK:   -0.67 KCAL/MOL
REMARK 923 INTER-LIGAND FREE ENERGY PREDICTED BY IDOCK:   -1.25 KCAL/MOL
REMARK 924 INTRA-LIGAND FREE ENERGY PREDICTED BY IDOCK:    0.58 KCAL/MOL
REMARK 927      BINDING AFFINITY PREDICTED BY RF-SCORE:    0.00 PKD
ROOT
HETATM    1  O   UNL     1      -6.348   7.755  70.376  1.00  0.00    -0.037 OA 
HETATM    2  C   UNL     1      -7.568   8.339  70.444  1.00  0.00    -0.075 C  
HETATM    3  C   UNL     1      -8.471   8.065  69.248  1.00  0.00    -0.136 C  
HETATM    4  O   UNL     1      -7.893   9.031  71.401  1.00  0.00    -0.257 OA 
HETATM    5  S   UNL     1      -8.127   6.371  68.583  1.00  0.00    -0.114 SA 
HETATM    6  H   UNL     1      -8.951   6.121  67.492  1.00  0.00     0.000 H  
ENDROOT
BRANCH   3   7
HETATM    7  C   UNL     1      -9.962   8.236  69.590  1.00  0.00    -0.193 C  
HETATM    8  C   UNL     1     -10.535   6.939  70.152  1.00  0.00    -0.209 C  
HETATM    9  S   UNL     1     -11.006   8.883  68.206  1.00  0.00     0.237 SA 
HETATM   10  O   UNL     1     -11.863   6.768  69.952  1.00  0.00    -0.283 OA 
HETATM   11  O   UNL     1      -9.879   6.152  70.825  1.00  0.00    -0.181 OA 
HETATM   12  H   UNL     1     -12.352   9.037  68.516  1.00  0.00     0.000 H  
ENDBRANCH   3   7
TORSDOF 1
ENDMDL
MODEL      268
REMARK 921   NORMALIZED FREE ENERGY PREDICTED BY IDOCK:   -1.07 KCAL/MOL
REMARK 922        TOTAL FREE ENERGY PREDICTED BY IDOCK:   -0.60 KCAL/MOL
REMARK 923 INTER-LIGAND FREE ENERGY PREDICTED BY IDOCK:   -1.27 KCAL/MOL
REMARK 924 INTRA-LIGAND FREE ENERGY PREDICTED BY IDOCK:    0.67 KCAL/MOL
REMARK 927      BINDING AFFINITY PREDICTED BY RF-SCORE:    0.00 PKD
ROOT
HETATM    1  O   UNL     1      -7.983  10.058  65.460  1.00  0.00    -0.127 OA 
HETATM    2  C   UNL     1      -7.631   9.314  66.535  1.00  0.00    -0.093 C  
HETATM    3  C   UNL     1      -7.283  10.123  67.780  1.00  0.00    -0.087 C  
HETATM    4  O   UNL     1      -7.599   8.091  66.485  1.00  0.00    -0.089 OA 
HETATM    5  S   UNL     1      -8.309  11.664  67.828  1.00  0.00    -0.151 SA 
HETATM    6  H   UNL     1      -7.991  12.401  68.962  1.00  0.00     0.000 H  
ENDROOT
BRANCH   3   7
HETATM    7  C   UNL     1      -7.447   9.305  69.073  1.00  0.00    -0.073 C  
HETATM    8  C   UNL     1      -8.848   9.485  69.647  1.00  0.00    -0.187 C  
HETATM    9  S   UNL     1      -6.153   9.619  70.358  1.00  0.00    -0.075 SA 
HETATM   10  O   UNL     1      -8.940   9.323  70.988  1.00  0.00    -0.225 OA 
HETATM   11  O   UNL     1      -9.841   9.661  68.950  1.00  0.00    -0.165 OA 
HETATM   12  H   UNL     1      -6.301   8.880  71.525  1.00  0.00     0.000 H  
ENDBRANCH   3   7
TORSDOF 1
ENDMDL
MODEL      269
REMARK 921   NORMALIZED FREE ENERGY PREDICTED BY IDOCK:   -1.04 KCAL/MOL
REMARK 922        TOTAL FREE ENERGY PREDICTED BY IDOCK:   -0.57 KCAL/MOL
REMARK 923 INTER-LIGAND FREE ENERGY PREDICTED BY IDOCK:   -1.90 KCAL/MOL
REMARK 924 INTRA-LIGAND FREE ENERGY PREDICTED BY IDOCK:    1.33 KCAL/MOL
REMARK 927      BINDING AFFINITY PREDICTED BY RF-SCORE:    0.00 PKD
ROOT
HETATM    1  O   UNL     1     -10.167  11.495  65.017  1.00  0.00    -0.252 OA 
HETATM    2  C   UNL     1      -9.936  12.675  65.639  1.00  0.00    -0.242 C  
HETATM    3  C   UNL     1      -9.028  12.583  66.859  1.00  0.00    -0.212 C  
HETATM    4  O   UNL     1     -10.432  13.719  65.234  1.00  0.00    -0.325 OA 
HETATM    5  S   UNL     1      -7.780  11.239  66.607  1.00  0.00    -0.124 SA 
HETATM    6  H   UNL     1      -6.952  11.156  67.720  1.00  0.00     0.000 H  
ENDROOT
BRANCH   3   7
HETATM    7  C   UNL     1      -8.346  13.924  67.183  1.00  0.00    -0.154 C  
HETATM    8  C   UNL     1      -7.619  13.845  68.521  1.00  0.00    -0.134 C  
HETATM    9  S   UNL     1      -9.461  15.398  67.113  1.00  0.00    -0.218 SA 
HETATM   10  O   UNL     1      -7.489  15.027  69.169  1.00  0.00    -0.142 OA 
HETATM   11  O   UNL     1      -7.096  12.820  68.941  1.00  0.00    -0.100 OA 
HETATM   12  H   UNL     1      -8.844  16.609  67.405  1.00  0.00     0.000 H  
ENDBRANCH   3   7
TORSDOF 1
ENDMDL
MODEL      270
REMARK 921   NORMALIZED FREE ENERGY PREDICTED BY IDOCK:   -0.82 KCAL/MOL
REMARK 922        TOTAL FREE ENERGY PREDICTED BY IDOCK:   -0.33 KCAL/MOL
REMARK 923 INTER-LIGAND FREE ENERGY PREDICTED BY IDOCK:   -1.66 KCAL/MOL
REMARK 924 INTRA-LIGAND FREE ENERGY PREDICTED BY IDOCK:    1.33 KCAL/MOL
REMARK 927      BINDING AFFINITY PREDICTED BY RF-SCORE:    0.00 PKD
ROOT
HETATM    1  O   UNL     1      -6.856   9.441  71.478  1.00  0.00    -0.295 OA 
HETATM    2  C   UNL     1      -7.832   8.565  71.816  1.00  0.00    -0.120 C  
HETATM    3  C   UNL     1      -8.007   7.404  70.844  1.00  0.00    -0.097 C  
HETATM    4  O   UNL     1      -8.508   8.719  72.825  1.00  0.00    -0.414 OA 
HETATM    5  S   UNL     1      -6.369   6.955  70.108  1.00  0.00    -0.036 SA 
HETATM    6  H   UNL     1      -6.529   5.896  69.223  1.00  0.00     0.000 H  
ENDROOT
BRANCH   3   7
HETATM    7  C   UNL     1      -8.673   6.184  71.506  1.00  0.00    -0.135 C  
HETATM    8  C   UNL     1      -9.142   5.191  70.448  1.00  0.00    -0.134 C  
HETATM    9  S   UNL     1     -10.035   6.592  72.690  1.00  0.00    -0.173 SA 
HETATM   10  O   UNL     1     -10.194   4.421  70.814  1.00  0.00    -0.172 OA 
HETATM   11  O   UNL     1      -8.559   5.019  69.384  1.00  0.00    -0.087 OA 
HETATM   12  H   UNL     1     -10.637   5.491  73.287  1.00  0.00     0.000 H  
ENDBRANCH   3   7
TORSDOF 1
ENDMDL
MODEL      271
REMARK 921   NORMALIZED FREE ENERGY PREDICTED BY IDOCK:   -0.60 KCAL/MOL
REMARK 922        TOTAL FREE ENERGY PREDICTED BY IDOCK:   -0.10 KCAL/MOL
REMARK 923 INTER-LIGAND FREE ENERGY PREDICTED BY IDOCK:   -0.63 KCAL/MOL
REMARK 924 INTRA-LIGAND FREE ENERGY PREDICTED BY IDOCK:    0.53 KCAL/MOL
REMARK 927      BINDING AFFINITY PREDICTED BY RF-SCORE:    0.00 PKD
ROOT
HETATM    1  O   UNL     1      -6.623  14.826  70.737  1.00  0.00    -0.022 OA 
HETATM    2  C   UNL     1      -6.883  14.491  69.451  1.00  0.00    -0.149 C  
HETATM    3  C   UNL     1      -8.365  14.369  69.115  1.00  0.00     0.056 C  
HETATM    4  O   UNL     1      -5.982  14.303  68.644  1.00  0.00    -0.078 OA 
HETATM    5  S   UNL     1      -9.335  15.577  70.129  1.00  0.00     0.645 SA 
HETATM    6  H   UNL     1     -10.686  15.465  69.822  1.00  0.00     0.000 H  
ENDROOT
BRANCH   3   7
HETATM    7  C   UNL     1      -8.640  14.555  67.613  1.00  0.00    -0.179 C  
HETATM    8  C   UNL     1      -8.563  16.030  67.233  1.00  0.00    -0.184 C  
HETATM    9  S   UNL     1     -10.216  13.793  67.012  1.00  0.00    -0.256 SA 
HETATM   10  O   UNL     1      -9.311  16.384  66.161  1.00  0.00    -0.292 OA 
HETATM   11  O   UNL     1      -7.807  16.825  67.780  1.00  0.00    -0.171 OA 
HETATM   12  H   UNL     1     -10.464  13.962  65.655  1.00  0.00     0.000 H  
ENDBRANCH   3   7
TORSDOF 1
ENDMDL
