MODEL        1
REMARK 921   NORMALIZED FREE ENERGY PREDICTED BY IDOCK:   -4.32 KCAL/MOL
REMARK 922        TOTAL FREE ENERGY PREDICTED BY IDOCK:   -5.43 KCAL/MOL
REMARK 923 INTER-LIGAND FREE ENERGY PREDICTED BY IDOCK:   -5.33 KCAL/MOL
REMARK 924 INTRA-LIGAND FREE ENERGY PREDICTED BY IDOCK:   -0.10 KCAL/MOL
REMARK 927      BINDING AFFINITY PREDICTED BY RF-SCORE:    0.00 PKD
ROOT
HETATM    1  C   UNL     1     -11.823  14.199  64.956  1.00  0.00    -0.390 C  
HETATM    2  C   UNL     1     -11.262  15.131  65.739  1.00  0.00    -0.287 C  
ENDROOT
BRANCH   1   3
HETATM    3  C   UNL     1     -12.305  12.934  65.534  1.00  0.00    -0.461 C  
HETATM    4  O   UNL     1     -12.009  12.510  66.638  1.00  0.00    -0.527 OA 
BRANCH   3   5
HETATM    5  O   UNL     1     -13.121  12.345  64.626  1.00  0.00    -0.825 OA 
HETATM    6  C   UNL     1     -12.525  12.156  63.342  1.00  0.00    -0.512 C  
ENDBRANCH   3   5
ENDBRANCH   1   3
BRANCH   2   7
HETATM    7  C   UNL     1     -10.795  16.381  65.117  1.00  0.00    -0.275 C  
HETATM    8  O   UNL     1     -11.290  16.890  64.125  1.00  0.00    -1.208 OA 
BRANCH   7   9
HETATM    9  O   UNL     1      -9.741  16.854  65.825  1.00  0.00    -0.517 OA 
HETATM   10  C   UNL     1      -8.797  15.843  66.182  1.00  0.00    -0.328 C  
ENDBRANCH   7   9
ENDBRANCH   2   7
TORSDOF 4
ENDMDL
MODEL        2
REMARK 921   NORMALIZED FREE ENERGY PREDICTED BY IDOCK:   -4.28 KCAL/MOL
REMARK 922        TOTAL FREE ENERGY PREDICTED BY IDOCK:   -5.38 KCAL/MOL
REMARK 923 INTER-LIGAND FREE ENERGY PREDICTED BY IDOCK:   -5.25 KCAL/MOL
REMARK 924 INTRA-LIGAND FREE ENERGY PREDICTED BY IDOCK:   -0.12 KCAL/MOL
REMARK 927      BINDING AFFINITY PREDICTED BY RF-SCORE:    0.00 PKD
ROOT
HETATM    1  C   UNL     1     -11.251  14.977  65.393  1.00  0.00    -0.356 C  
HETATM    2  C   UNL     1     -12.242  14.258  64.850  1.00  0.00    -0.449 C  
ENDROOT
BRANCH   1   3
HETATM    3  C   UNL     1     -11.001  16.357  64.944  1.00  0.00    -0.263 C  
HETATM    4  O   UNL     1     -11.500  16.874  63.960  1.00  0.00    -1.130 OA 
BRANCH   3   5
HETATM    5  O   UNL     1     -10.132  16.927  65.813  1.00  0.00    -0.502 OA 
HETATM    6  C   UNL     1      -9.045  16.082  66.190  1.00  0.00    -0.351 C  
ENDBRANCH   3   5
ENDBRANCH   1   3
BRANCH   2   7
HETATM    7  C   UNL     1     -12.455  12.882  65.331  1.00  0.00    -0.454 C  
HETATM    8  O   UNL     1     -12.004  12.433  66.373  1.00  0.00    -0.559 OA 
BRANCH   7   9
HETATM    9  O   UNL     1     -13.222  12.219  64.433  1.00  0.00    -0.806 OA 
HETATM   10  C   UNL     1     -12.522  11.868  63.237  1.00  0.00    -0.384 C  
ENDBRANCH   7   9
ENDBRANCH   2   7
TORSDOF 4
ENDMDL
MODEL        3
REMARK 921   NORMALIZED FREE ENERGY PREDICTED BY IDOCK:   -4.07 KCAL/MOL
REMARK 922        TOTAL FREE ENERGY PREDICTED BY IDOCK:   -5.12 KCAL/MOL
REMARK 923 INTER-LIGAND FREE ENERGY PREDICTED BY IDOCK:   -5.01 KCAL/MOL
REMARK 924 INTRA-LIGAND FREE ENERGY PREDICTED BY IDOCK:   -0.11 KCAL/MOL
REMARK 927      BINDING AFFINITY PREDICTED BY RF-SCORE:    0.00 PKD
ROOT
HETATM    1  C   UNL     1     -12.199  14.186  65.176  1.00  0.00    -0.439 C  
HETATM    2  C   UNL     1     -11.079  14.752  64.708  1.00  0.00    -0.393 C  
ENDROOT
BRANCH   1   3
HETATM    3  C   UNL     1     -12.439  12.745  64.987  1.00  0.00    -0.506 C  
HETATM    4  O   UNL     1     -12.808  12.226  63.948  1.00  0.00    -0.720 OA 
BRANCH   3   5
HETATM    5  O   UNL     1     -12.177  12.123  66.162  1.00  0.00    -0.611 OA 
HETATM    6  C   UNL     1     -11.014  11.295  66.137  1.00  0.00    -0.191 C  
ENDBRANCH   3   5
ENDBRANCH   1   3
BRANCH   2   7
HETATM    7  C   UNL     1     -10.882  16.196  64.919  1.00  0.00    -0.334 C  
HETATM    8  O   UNL     1     -11.296  17.070  64.176  1.00  0.00    -1.164 OA 
BRANCH   7   9
HETATM    9  O   UNL     1     -10.175  16.377  66.061  1.00  0.00    -0.322 OA 
HETATM   10  C   UNL     1     -10.336  17.679  66.628  1.00  0.00    -0.333 C  
ENDBRANCH   7   9
ENDBRANCH   2   7
TORSDOF 4
ENDMDL
MODEL        4
REMARK 921   NORMALIZED FREE ENERGY PREDICTED BY IDOCK:   -4.00 KCAL/MOL
REMARK 922        TOTAL FREE ENERGY PREDICTED BY IDOCK:   -5.03 KCAL/MOL
REMARK 923 INTER-LIGAND FREE ENERGY PREDICTED BY IDOCK:   -4.92 KCAL/MOL
REMARK 924 INTRA-LIGAND FREE ENERGY PREDICTED BY IDOCK:   -0.12 KCAL/MOL
REMARK 927      BINDING AFFINITY PREDICTED BY RF-SCORE:    0.00 PKD
ROOT
HETATM    1  C   UNL     1     -11.712  14.874  64.495  1.00  0.00    -0.388 C  
HETATM    2  C   UNL     1     -11.246  13.622  64.596  1.00  0.00    -0.383 C  
ENDROOT
BRANCH   1   3
HETATM    3  C   UNL     1     -10.859  16.017  64.864  1.00  0.00    -0.372 C  
HETATM    4  O   UNL     1     -11.122  17.186  64.646  1.00  0.00    -1.036 OA 
BRANCH   3   5
HETATM    5  O   UNL     1      -9.753  15.530  65.478  1.00  0.00    -0.325 OA 
HETATM    6  C   UNL     1      -9.015  16.507  66.212  1.00  0.00    -0.324 C  
ENDBRANCH   3   5
ENDBRANCH   1   3
BRANCH   2   7
HETATM    7  C   UNL     1     -12.134  12.511  64.217  1.00  0.00    -0.428 C  
HETATM    8  O   UNL     1     -13.274  12.362  64.625  1.00  0.00    -0.822 OA 
BRANCH   7   9
HETATM    9  O   UNL     1     -11.476  11.701  63.352  1.00  0.00    -0.393 OA 
HETATM   10  C   UNL     1     -10.054  11.815  63.438  1.00  0.00    -0.446 C  
ENDBRANCH   7   9
ENDBRANCH   2   7
TORSDOF 4
ENDMDL
MODEL        5
REMARK 921   NORMALIZED FREE ENERGY PREDICTED BY IDOCK:   -3.94 KCAL/MOL
REMARK 922        TOTAL FREE ENERGY PREDICTED BY IDOCK:   -4.96 KCAL/MOL
REMARK 923 INTER-LIGAND FREE ENERGY PREDICTED BY IDOCK:   -4.84 KCAL/MOL
REMARK 924 INTRA-LIGAND FREE ENERGY PREDICTED BY IDOCK:   -0.12 KCAL/MOL
REMARK 927      BINDING AFFINITY PREDICTED BY RF-SCORE:    0.00 PKD
ROOT
HETATM    1  C   UNL     1     -11.388  14.977  64.907  1.00  0.00    -0.419 C  
HETATM    2  C   UNL     1     -11.969  14.260  65.879  1.00  0.00    -0.400 C  
ENDROOT
BRANCH   1   3
HETATM    3  C   UNL     1     -10.934  16.353  65.168  1.00  0.00    -0.232 C  
HETATM    4  O   UNL     1     -11.194  17.320  64.475  1.00  0.00    -1.083 OA 
BRANCH   3   5
HETATM    5  O   UNL     1     -10.189  16.338  66.301  1.00  0.00    -0.296 OA 
HETATM    6  C   UNL     1      -9.164  17.331  66.338  1.00  0.00    -0.253 C  
ENDBRANCH   3   5
ENDBRANCH   1   3
BRANCH   2   7
HETATM    7  C   UNL     1     -12.407  12.888  65.573  1.00  0.00    -0.461 C  
HETATM    8  O   UNL     1     -13.141  12.584  64.647  1.00  0.00    -0.845 OA 
BRANCH   7   9
HETATM    9  O   UNL     1     -11.861  12.043  66.481  1.00  0.00    -0.585 OA 
HETATM   10  C   UNL     1     -10.631  11.459  66.046  1.00  0.00    -0.266 C  
ENDBRANCH   7   9
ENDBRANCH   2   7
TORSDOF 4
ENDMDL
MODEL        6
REMARK 921   NORMALIZED FREE ENERGY PREDICTED BY IDOCK:   -3.88 KCAL/MOL
REMARK 922        TOTAL FREE ENERGY PREDICTED BY IDOCK:   -4.88 KCAL/MOL
REMARK 923 INTER-LIGAND FREE ENERGY PREDICTED BY IDOCK:   -4.79 KCAL/MOL
REMARK 924 INTRA-LIGAND FREE ENERGY PREDICTED BY IDOCK:   -0.10 KCAL/MOL
REMARK 927      BINDING AFFINITY PREDICTED BY RF-SCORE:    0.00 PKD
ROOT
HETATM    1  C   UNL     1     -13.157  15.271  70.970  1.00  0.00    -0.544 C  
HETATM    2  C   UNL     1     -12.428  14.400  70.259  1.00  0.00    -0.413 C  
ENDROOT
BRANCH   1   3
HETATM    3  C   UNL     1     -13.750  14.868  72.256  1.00  0.00    -0.458 C  
HETATM    4  O   UNL     1     -14.306  13.805  72.469  1.00  0.00    -0.696 OA 
BRANCH   3   5
HETATM    5  O   UNL     1     -13.565  15.883  73.135  1.00  0.00    -0.580 OA 
HETATM    6  C   UNL     1     -12.520  15.652  74.081  1.00  0.00    -0.661 C  
ENDBRANCH   3   5
ENDBRANCH   1   3
BRANCH   2   7
HETATM    7  C   UNL     1     -11.854  14.847  68.979  1.00  0.00    -0.301 C  
HETATM    8  O   UNL     1     -11.594  16.007  68.701  1.00  0.00    -0.386 OA 
BRANCH   7   9
HETATM    9  O   UNL     1     -11.668  13.766  68.182  1.00  0.00    -0.317 OA 
HETATM   10  C   UNL     1     -12.158  13.951  66.853  1.00  0.00    -0.430 C  
ENDBRANCH   7   9
ENDBRANCH   2   7
TORSDOF 4
ENDMDL
MODEL        7
REMARK 921   NORMALIZED FREE ENERGY PREDICTED BY IDOCK:   -3.86 KCAL/MOL
REMARK 922        TOTAL FREE ENERGY PREDICTED BY IDOCK:   -4.86 KCAL/MOL
REMARK 923 INTER-LIGAND FREE ENERGY PREDICTED BY IDOCK:   -4.73 KCAL/MOL
REMARK 924 INTRA-LIGAND FREE ENERGY PREDICTED BY IDOCK:   -0.13 KCAL/MOL
REMARK 927      BINDING AFFINITY PREDICTED BY RF-SCORE:    0.00 PKD
ROOT
HETATM    1  C   UNL     1     -12.441  13.664  65.615  1.00  0.00    -0.540 C  
HETATM    2  C   UNL     1     -11.882  14.205  66.706  1.00  0.00    -0.449 C  
ENDROOT
BRANCH   1   3
HETATM    3  C   UNL     1     -12.342  14.346  64.314  1.00  0.00    -0.373 C  
HETATM    4  O   UNL     1     -12.162  15.541  64.160  1.00  0.00    -0.588 OA 
BRANCH   3   5
HETATM    5  O   UNL     1     -12.486  13.411  63.342  1.00  0.00    -0.753 OA 
HETATM    6  C   UNL     1     -11.748  12.211  63.573  1.00  0.00    -0.490 C  
ENDBRANCH   3   5
ENDBRANCH   1   3
BRANCH   2   7
HETATM    7  C   UNL     1     -12.006  13.487  67.986  1.00  0.00    -0.337 C  
HETATM    8  O   UNL     1     -12.127  14.025  69.075  1.00  0.00    -0.346 OA 
BRANCH   7   9
HETATM    9  O   UNL     1     -11.963  12.154  67.746  1.00  0.00    -0.506 OA 
HETATM   10  C   UNL     1     -11.842  11.367  68.932  1.00  0.00    -0.347 C  
ENDBRANCH   7   9
ENDBRANCH   2   7
TORSDOF 4
ENDMDL
MODEL        8
REMARK 921   NORMALIZED FREE ENERGY PREDICTED BY IDOCK:   -3.79 KCAL/MOL
REMARK 922        TOTAL FREE ENERGY PREDICTED BY IDOCK:   -4.78 KCAL/MOL
REMARK 923 INTER-LIGAND FREE ENERGY PREDICTED BY IDOCK:   -4.70 KCAL/MOL
REMARK 924 INTRA-LIGAND FREE ENERGY PREDICTED BY IDOCK:   -0.08 KCAL/MOL
REMARK 927      BINDING AFFINITY PREDICTED BY RF-SCORE:    0.00 PKD
ROOT
HETATM    1  C   UNL     1     -12.051  12.760  65.449  1.00  0.00    -0.512 C  
HETATM    2  C   UNL     1     -11.801  13.459  66.565  1.00  0.00    -0.443 C  
ENDROOT
BRANCH   1   3
HETATM    3  C   UNL     1     -12.081  13.434  64.141  1.00  0.00    -0.433 C  
HETATM    4  O   UNL     1     -12.443  14.582  63.952  1.00  0.00    -0.814 OA 
BRANCH   3   5
HETATM    5  O   UNL     1     -11.640  12.554  63.209  1.00  0.00    -0.468 OA 
HETATM    6  C   UNL     1     -10.423  11.895  63.559  1.00  0.00    -0.459 C  
ENDBRANCH   3   5
ENDBRANCH   1   3
BRANCH   2   7
HETATM    7  C   UNL     1     -11.781  12.743  67.851  1.00  0.00    -0.357 C  
HETATM    8  O   UNL     1     -12.079  11.568  67.997  1.00  0.00    -0.617 OA 
BRANCH   7   9
HETATM    9  O   UNL     1     -11.380  13.599  68.822  1.00  0.00    -0.253 OA 
HETATM   10  C   UNL     1     -12.158  13.508  70.017  1.00  0.00    -0.341 C  
ENDBRANCH   7   9
ENDBRANCH   2   7
TORSDOF 4
ENDMDL
MODEL        9
REMARK 921   NORMALIZED FREE ENERGY PREDICTED BY IDOCK:   -3.76 KCAL/MOL
REMARK 922        TOTAL FREE ENERGY PREDICTED BY IDOCK:   -4.75 KCAL/MOL
REMARK 923 INTER-LIGAND FREE ENERGY PREDICTED BY IDOCK:   -4.64 KCAL/MOL
REMARK 924 INTRA-LIGAND FREE ENERGY PREDICTED BY IDOCK:   -0.11 KCAL/MOL
REMARK 927      BINDING AFFINITY PREDICTED BY RF-SCORE:    0.00 PKD
ROOT
HETATM    1  C   UNL     1     -10.976  15.022  65.734  1.00  0.00    -0.351 C  
HETATM    2  C   UNL     1     -12.079  14.282  65.911  1.00  0.00    -0.416 C  
ENDROOT
BRANCH   1   3
HETATM    3  C   UNL     1     -11.018  16.231  64.895  1.00  0.00    -0.307 C  
HETATM    4  O   UNL     1     -11.766  16.401  63.949  1.00  0.00    -1.085 OA 
BRANCH   3   5
HETATM    5  O   UNL     1     -10.088  17.097  65.366  1.00  0.00    -0.571 OA 
HETATM    6  C   UNL     1     -10.257  17.444  66.741  1.00  0.00    -0.318 C  
ENDBRANCH   3   5
ENDBRANCH   1   3
BRANCH   2   7
HETATM    7  C   UNL     1     -11.989  13.081  66.758  1.00  0.00    -0.369 C  
HETATM    8  O   UNL     1     -11.935  11.937  66.338  1.00  0.00    -0.572 OA 
BRANCH   7   9
HETATM    9  O   UNL     1     -11.977  13.464  68.058  1.00  0.00    -0.350 OA 
HETATM   10  C   UNL     1     -11.873  12.369  68.971  1.00  0.00    -0.300 C  
ENDBRANCH   7   9
ENDBRANCH   2   7
TORSDOF 4
ENDMDL
MODEL       10
REMARK 921   NORMALIZED FREE ENERGY PREDICTED BY IDOCK:   -3.76 KCAL/MOL
REMARK 922        TOTAL FREE ENERGY PREDICTED BY IDOCK:   -4.74 KCAL/MOL
REMARK 923 INTER-LIGAND FREE ENERGY PREDICTED BY IDOCK:   -4.60 KCAL/MOL
REMARK 924 INTRA-LIGAND FREE ENERGY PREDICTED BY IDOCK:   -0.14 KCAL/MOL
REMARK 927      BINDING AFFINITY PREDICTED BY RF-SCORE:    0.00 PKD
ROOT
HETATM    1  C   UNL     1     -13.430  12.383  72.056  1.00  0.00    -0.460 C  
HETATM    2  C   UNL     1     -12.806  13.459  71.558  1.00  0.00    -0.427 C  
ENDROOT
BRANCH   1   3
HETATM    3  C   UNL     1     -12.979  11.029  71.694  1.00  0.00    -0.456 C  
HETATM    4  O   UNL     1     -13.385   9.997  72.199  1.00  0.00    -0.444 OA 
BRANCH   3   5
HETATM    5  O   UNL     1     -12.048  11.148  70.716  1.00  0.00    -0.344 OA 
HETATM    6  C   UNL     1     -11.240   9.985  70.536  1.00  0.00    -0.336 C  
ENDBRANCH   3   5
ENDBRANCH   1   3
BRANCH   2   7
HETATM    7  C   UNL     1     -13.291  14.794  71.947  1.00  0.00    -0.359 C  
HETATM    8  O   UNL     1     -13.546  15.696  71.166  1.00  0.00    -0.582 OA 
BRANCH   7   9
HETATM    9  O   UNL     1     -13.402  14.842  73.297  1.00  0.00    -0.564 OA 
HETATM   10  C   UNL     1     -12.567  15.832  73.901  1.00  0.00    -0.627 C  
ENDBRANCH   7   9
ENDBRANCH   2   7
TORSDOF 4
ENDMDL
MODEL       11
REMARK 921   NORMALIZED FREE ENERGY PREDICTED BY IDOCK:   -3.76 KCAL/MOL
REMARK 922        TOTAL FREE ENERGY PREDICTED BY IDOCK:   -4.74 KCAL/MOL
REMARK 923 INTER-LIGAND FREE ENERGY PREDICTED BY IDOCK:   -4.64 KCAL/MOL
REMARK 924 INTRA-LIGAND FREE ENERGY PREDICTED BY IDOCK:   -0.09 KCAL/MOL
REMARK 927      BINDING AFFINITY PREDICTED BY RF-SCORE:    0.00 PKD
ROOT
HETATM    1  C   UNL     1     -10.756  15.806  65.923  1.00  0.00    -0.320 C  
HETATM    2  C   UNL     1     -11.310  15.334  64.797  1.00  0.00    -0.396 C  
ENDROOT
BRANCH   1   3
HETATM    3  C   UNL     1      -9.791  16.917  65.867  1.00  0.00    -0.215 C  
HETATM    4  O   UNL     1      -8.581  16.799  65.955  1.00  0.00    -0.500 OA 
BRANCH   3   5
HETATM    5  O   UNL     1     -10.489  18.067  65.704  1.00  0.00    -0.619 OA 
HETATM    6  C   UNL     1     -10.638  18.834  66.899  1.00  0.00    -0.409 C  
ENDBRANCH   3   5
ENDBRANCH   1   3
BRANCH   2   7
HETATM    7  C   UNL     1     -12.270  14.223  64.901  1.00  0.00    -0.440 C  
HETATM    8  O   UNL     1     -12.755  13.819  65.946  1.00  0.00    -0.467 OA 
BRANCH   7   9
HETATM    9  O   UNL     1     -12.515  13.739  63.659  1.00  0.00    -0.718 OA 
HETATM   10  C   UNL     1     -12.101  12.382  63.487  1.00  0.00    -0.558 C  
ENDBRANCH   7   9
ENDBRANCH   2   7
TORSDOF 4
ENDMDL
MODEL       12
REMARK 921   NORMALIZED FREE ENERGY PREDICTED BY IDOCK:   -3.75 KCAL/MOL
REMARK 922        TOTAL FREE ENERGY PREDICTED BY IDOCK:   -4.73 KCAL/MOL
REMARK 923 INTER-LIGAND FREE ENERGY PREDICTED BY IDOCK:   -4.62 KCAL/MOL
REMARK 924 INTRA-LIGAND FREE ENERGY PREDICTED BY IDOCK:   -0.11 KCAL/MOL
REMARK 927      BINDING AFFINITY PREDICTED BY RF-SCORE:    0.00 PKD
ROOT
HETATM    1  C   UNL     1     -12.397  14.470  70.366  1.00  0.00    -0.400 C  
HETATM    2  C   UNL     1     -13.385  15.138  70.977  1.00  0.00    -0.504 C  
ENDROOT
BRANCH   1   3
HETATM    3  C   UNL     1     -11.979  14.841  69.004  1.00  0.00    -0.273 C  
HETATM    4  O   UNL     1     -11.605  15.950  68.663  1.00  0.00    -0.382 OA 
BRANCH   3   5
HETATM    5  O   UNL     1     -12.089  13.741  68.221  1.00  0.00    -0.362 OA 
HETATM    6  C   UNL     1     -11.133  12.721  68.510  1.00  0.00    -0.266 C  
ENDBRANCH   3   5
ENDBRANCH   1   3
BRANCH   2   7
HETATM    7  C   UNL     1     -13.769  14.731  72.339  1.00  0.00    -0.471 C  
HETATM    8  O   UNL     1     -14.211  13.634  72.638  1.00  0.00    -0.735 OA 
BRANCH   7   9
HETATM    9  O   UNL     1     -13.548  15.769  73.183  1.00  0.00    -0.567 OA 
HETATM   10  C   UNL     1     -12.402  15.589  74.017  1.00  0.00    -0.660 C  
ENDBRANCH   7   9
ENDBRANCH   2   7
TORSDOF 4
ENDMDL
MODEL       13
REMARK 921   NORMALIZED FREE ENERGY PREDICTED BY IDOCK:   -3.75 KCAL/MOL
REMARK 922        TOTAL FREE ENERGY PREDICTED BY IDOCK:   -4.73 KCAL/MOL
REMARK 923 INTER-LIGAND FREE ENERGY PREDICTED BY IDOCK:   -4.62 KCAL/MOL
REMARK 924 INTRA-LIGAND FREE ENERGY PREDICTED BY IDOCK:   -0.11 KCAL/MOL
REMARK 927      BINDING AFFINITY PREDICTED BY RF-SCORE:    0.00 PKD
ROOT
HETATM    1  C   UNL     1     -11.580  13.491  66.619  1.00  0.00    -0.396 C  
HETATM    2  C   UNL     1     -12.544  13.486  65.687  1.00  0.00    -0.512 C  
ENDROOT
BRANCH   1   3
HETATM    3  C   UNL     1     -11.831  12.919  67.952  1.00  0.00    -0.339 C  
HETATM    4  O   UNL     1     -11.852  13.551  68.993  1.00  0.00    -0.305 OA 
BRANCH   3   5
HETATM    5  O   UNL     1     -12.031  11.586  67.802  1.00  0.00    -0.623 OA 
HETATM    6  C   UNL     1     -10.828  10.822  67.713  1.00  0.00    -0.269 C  
ENDBRANCH   3   5
ENDBRANCH   1   3
BRANCH   2   7
HETATM    7  C   UNL     1     -12.247  14.069  64.368  1.00  0.00    -0.426 C  
HETATM    8  O   UNL     1     -12.558  15.197  64.022  1.00  0.00    -0.791 OA 
BRANCH   7   9
HETATM    9  O   UNL     1     -11.582  13.152  63.625  1.00  0.00    -0.435 OA 
HETATM   10  C   UNL     1     -12.341  11.967  63.373  1.00  0.00    -0.523 C  
ENDBRANCH   7   9
ENDBRANCH   2   7
TORSDOF 4
ENDMDL
MODEL       14
REMARK 921   NORMALIZED FREE ENERGY PREDICTED BY IDOCK:   -3.75 KCAL/MOL
REMARK 922        TOTAL FREE ENERGY PREDICTED BY IDOCK:   -4.73 KCAL/MOL
REMARK 923 INTER-LIGAND FREE ENERGY PREDICTED BY IDOCK:   -4.65 KCAL/MOL
REMARK 924 INTRA-LIGAND FREE ENERGY PREDICTED BY IDOCK:   -0.08 KCAL/MOL
REMARK 927      BINDING AFFINITY PREDICTED BY RF-SCORE:    0.00 PKD
ROOT
HETATM    1  C   UNL     1     -11.950  13.547  66.430  1.00  0.00    -0.459 C  
HETATM    2  C   UNL     1     -12.287  12.861  65.330  1.00  0.00    -0.544 C  
ENDROOT
BRANCH   1   3
HETATM    3  C   UNL     1     -11.946  12.888  67.746  1.00  0.00    -0.283 C  
HETATM    4  O   UNL     1     -12.038  11.686  67.928  1.00  0.00    -0.613 OA 
BRANCH   3   5
HETATM    5  O   UNL     1     -11.825  13.849  68.694  1.00  0.00    -0.335 OA 
HETATM    6  C   UNL     1     -10.789  14.798  68.433  1.00  0.00    -0.245 C  
ENDBRANCH   3   5
ENDBRANCH   1   3
BRANCH   2   7
HETATM    7  C   UNL     1     -12.276  13.562  64.035  1.00  0.00    -0.402 C  
HETATM    8  O   UNL     1     -12.632  14.717  63.868  1.00  0.00    -0.834 OA 
BRANCH   7   9
HETATM    9  O   UNL     1     -11.811  12.716  63.084  1.00  0.00    -0.470 OA 
HETATM   10  C   UNL     1     -10.636  12.006  63.481  1.00  0.00    -0.465 C  
ENDBRANCH   7   9
ENDBRANCH   2   7
TORSDOF 4
ENDMDL
MODEL       15
REMARK 921   NORMALIZED FREE ENERGY PREDICTED BY IDOCK:   -3.74 KCAL/MOL
REMARK 922        TOTAL FREE ENERGY PREDICTED BY IDOCK:   -4.72 KCAL/MOL
REMARK 923 INTER-LIGAND FREE ENERGY PREDICTED BY IDOCK:   -4.61 KCAL/MOL
REMARK 924 INTRA-LIGAND FREE ENERGY PREDICTED BY IDOCK:   -0.10 KCAL/MOL
REMARK 927      BINDING AFFINITY PREDICTED BY RF-SCORE:    0.00 PKD
ROOT
HETATM    1  C   UNL     1     -13.090  13.524  71.405  1.00  0.00    -0.385 C  
HETATM    2  C   UNL     1     -13.346  12.351  72.001  1.00  0.00    -0.511 C  
ENDROOT
BRANCH   1   3
HETATM    3  C   UNL     1     -13.639  14.774  71.956  1.00  0.00    -0.403 C  
HETATM    4  O   UNL     1     -14.117  15.680  71.297  1.00  0.00    -0.560 OA 
BRANCH   3   5
HETATM    5  O   UNL     1     -13.514  14.724  73.305  1.00  0.00    -0.561 OA 
HETATM    6  C   UNL     1     -12.767  15.806  73.862  1.00  0.00    -0.605 C  
ENDBRANCH   3   5
ENDBRANCH   1   3
BRANCH   2   7
HETATM    7  C   UNL     1     -12.776  11.127  71.415  1.00  0.00    -0.418 C  
HETATM    8  O   UNL     1     -12.015  11.103  70.462  1.00  0.00    -0.336 OA 
BRANCH   7   9
HETATM    9  O   UNL     1     -13.237  10.056  72.106  1.00  0.00    -0.442 OA 
HETATM   10  C   UNL     1     -12.391   8.909  72.005  1.00  0.00    -0.390 C  
ENDBRANCH   7   9
ENDBRANCH   2   7
TORSDOF 4
ENDMDL
MODEL       16
REMARK 921   NORMALIZED FREE ENERGY PREDICTED BY IDOCK:   -3.73 KCAL/MOL
REMARK 922        TOTAL FREE ENERGY PREDICTED BY IDOCK:   -4.71 KCAL/MOL
REMARK 923 INTER-LIGAND FREE ENERGY PREDICTED BY IDOCK:   -4.58 KCAL/MOL
REMARK 924 INTRA-LIGAND FREE ENERGY PREDICTED BY IDOCK:   -0.13 KCAL/MOL
REMARK 927      BINDING AFFINITY PREDICTED BY RF-SCORE:    0.00 PKD
ROOT
HETATM    1  C   UNL     1     -13.207  15.141  70.859  1.00  0.00    -0.488 C  
HETATM    2  C   UNL     1     -12.427  14.245  70.239  1.00  0.00    -0.422 C  
ENDROOT
BRANCH   1   3
HETATM    3  C   UNL     1     -13.805  14.828  72.168  1.00  0.00    -0.475 C  
HETATM    4  O   UNL     1     -14.265  13.746  72.486  1.00  0.00    -0.706 OA 
BRANCH   3   5
HETATM    5  O   UNL     1     -13.746  15.947  72.931  1.00  0.00    -0.591 OA 
HETATM    6  C   UNL     1     -12.691  15.942  73.893  1.00  0.00    -0.600 C  
ENDBRANCH   3   5
ENDBRANCH   1   3
BRANCH   2   7
HETATM    7  C   UNL     1     -11.850  14.602  68.933  1.00  0.00    -0.309 C  
HETATM    8  O   UNL     1     -11.321  13.812  68.168  1.00  0.00    -0.256 OA 
BRANCH   7   9
HETATM    9  O   UNL     1     -12.009  15.933  68.734  1.00  0.00    -0.368 OA 
HETATM   10  C   UNL     1     -10.794  16.606  68.396  1.00  0.00    -0.361 C  
ENDBRANCH   7   9
ENDBRANCH   2   7
TORSDOF 4
ENDMDL
MODEL       17
REMARK 921   NORMALIZED FREE ENERGY PREDICTED BY IDOCK:   -3.73 KCAL/MOL
REMARK 922        TOTAL FREE ENERGY PREDICTED BY IDOCK:   -4.70 KCAL/MOL
REMARK 923 INTER-LIGAND FREE ENERGY PREDICTED BY IDOCK:   -4.57 KCAL/MOL
REMARK 924 INTRA-LIGAND FREE ENERGY PREDICTED BY IDOCK:   -0.14 KCAL/MOL
REMARK 927      BINDING AFFINITY PREDICTED BY RF-SCORE:    0.00 PKD
ROOT
HETATM    1  C   UNL     1     -13.012  13.500  71.459  1.00  0.00    -0.440 C  
HETATM    2  C   UNL     1     -13.390  12.386  72.102  1.00  0.00    -0.508 C  
ENDROOT
BRANCH   1   3
HETATM    3  C   UNL     1     -13.444  14.821  71.943  1.00  0.00    -0.371 C  
HETATM    4  O   UNL     1     -13.841  15.731  71.237  1.00  0.00    -0.547 OA 
BRANCH   3   5
HETATM    5  O   UNL     1     -13.318  14.831  73.293  1.00  0.00    -0.564 OA 
HETATM    6  C   UNL     1     -12.832  16.064  73.824  1.00  0.00    -0.572 C  
ENDBRANCH   3   5
ENDBRANCH   1   3
BRANCH   2   7
HETATM    7  C   UNL     1     -12.933  11.087  71.582  1.00  0.00    -0.456 C  
HETATM    8  O   UNL     1     -13.311  10.002  71.994  1.00  0.00    -0.429 OA 
BRANCH   7   9
HETATM    9  O   UNL     1     -12.040  11.304  70.586  1.00  0.00    -0.355 OA 
HETATM   10  C   UNL     1     -11.139  10.213  70.383  1.00  0.00    -0.324 C  
ENDBRANCH   7   9
ENDBRANCH   2   7
TORSDOF 4
ENDMDL
MODEL       18
REMARK 921   NORMALIZED FREE ENERGY PREDICTED BY IDOCK:   -3.70 KCAL/MOL
REMARK 922        TOTAL FREE ENERGY PREDICTED BY IDOCK:   -4.67 KCAL/MOL
REMARK 923 INTER-LIGAND FREE ENERGY PREDICTED BY IDOCK:   -4.56 KCAL/MOL
REMARK 924 INTRA-LIGAND FREE ENERGY PREDICTED BY IDOCK:   -0.11 KCAL/MOL
REMARK 927      BINDING AFFINITY PREDICTED BY RF-SCORE:    0.00 PKD
ROOT
HETATM    1  C   UNL     1     -10.990  14.016  65.802  1.00  0.00    -0.294 C  
HETATM    2  C   UNL     1     -11.282  15.231  65.317  1.00  0.00    -0.338 C  
ENDROOT
BRANCH   1   3
HETATM    3  C   UNL     1     -11.946  12.907  65.650  1.00  0.00    -0.440 C  
HETATM    4  O   UNL     1     -12.059  11.969  66.420  1.00  0.00    -0.610 OA 
BRANCH   3   5
HETATM    5  O   UNL     1     -12.660  13.124  64.518  1.00  0.00    -0.594 OA 
HETATM    6  C   UNL     1     -12.482  12.123  63.516  1.00  0.00    -0.555 C  
ENDBRANCH   3   5
ENDBRANCH   1   3
BRANCH   2   7
HETATM    7  C   UNL     1     -10.295  16.311  65.491  1.00  0.00    -0.338 C  
HETATM    8  O   UNL     1      -9.129  16.141  65.809  1.00  0.00    -0.398 OA 
BRANCH   7   9
HETATM    9  O   UNL     1     -10.899  17.498  65.242  1.00  0.00    -0.592 OA 
HETATM   10  C   UNL     1     -10.414  18.564  66.061  1.00  0.00    -0.400 C  
ENDBRANCH   7   9
ENDBRANCH   2   7
TORSDOF 4
ENDMDL
MODEL       19
REMARK 921   NORMALIZED FREE ENERGY PREDICTED BY IDOCK:   -3.69 KCAL/MOL
REMARK 922        TOTAL FREE ENERGY PREDICTED BY IDOCK:   -4.65 KCAL/MOL
REMARK 923 INTER-LIGAND FREE ENERGY PREDICTED BY IDOCK:   -4.54 KCAL/MOL
REMARK 924 INTRA-LIGAND FREE ENERGY PREDICTED BY IDOCK:   -0.11 KCAL/MOL
REMARK 927      BINDING AFFINITY PREDICTED BY RF-SCORE:    0.00 PKD
ROOT
HETATM    1  C   UNL     1     -11.374  14.084  65.949  1.00  0.00    -0.317 C  
HETATM    2  C   UNL     1     -10.977  14.970  65.025  1.00  0.00    -0.436 C  
ENDROOT
BRANCH   1   3
HETATM    3  C   UNL     1     -12.244  12.957  65.574  1.00  0.00    -0.474 C  
HETATM    4  O   UNL     1     -12.955  12.920  64.585  1.00  0.00    -0.734 OA 
BRANCH   3   5
HETATM    5  O   UNL     1     -12.105  11.993  66.516  1.00  0.00    -0.617 OA 
HETATM    6  C   UNL     1     -11.753  12.486  67.809  1.00  0.00    -0.359 C  
ENDBRANCH   3   5
ENDBRANCH   1   3
BRANCH   2   7
HETATM    7  C   UNL     1     -10.107  16.081  65.447  1.00  0.00    -0.225 C  
HETATM    8  O   UNL     1      -9.036  15.947  66.016  1.00  0.00    -0.335 OA 
BRANCH   7   9
HETATM    9  O   UNL     1     -10.694  17.252  65.098  1.00  0.00    -0.687 OA 
HETATM   10  C   UNL     1     -10.450  18.308  66.029  1.00  0.00    -0.361 C  
ENDBRANCH   7   9
ENDBRANCH   2   7
TORSDOF 4
ENDMDL
MODEL       20
REMARK 921   NORMALIZED FREE ENERGY PREDICTED BY IDOCK:   -3.68 KCAL/MOL
REMARK 922        TOTAL FREE ENERGY PREDICTED BY IDOCK:   -4.64 KCAL/MOL
REMARK 923 INTER-LIGAND FREE ENERGY PREDICTED BY IDOCK:   -4.58 KCAL/MOL
REMARK 924 INTRA-LIGAND FREE ENERGY PREDICTED BY IDOCK:   -0.07 KCAL/MOL
REMARK 927      BINDING AFFINITY PREDICTED BY RF-SCORE:    0.00 PKD
ROOT
HETATM    1  C   UNL     1     -13.204  15.231  70.956  1.00  0.00    -0.546 C  
HETATM    2  C   UNL     1     -11.966  15.556  70.558  1.00  0.00    -0.406 C  
ENDROOT
BRANCH   1   3
HETATM    3  C   UNL     1     -13.539  15.196  72.390  1.00  0.00    -0.470 C  
HETATM    4  O   UNL     1     -13.224  16.046  73.204  1.00  0.00    -0.533 OA 
BRANCH   3   5
HETATM    5  O   UNL     1     -14.248  14.065  72.624  1.00  0.00    -0.639 OA 
HETATM    6  C   UNL     1     -13.583  12.866  72.223  1.00  0.00    -0.515 C  
ENDBRANCH   3   5
ENDBRANCH   1   3
BRANCH   2   7
HETATM    7  C   UNL     1     -11.677  15.578  69.115  1.00  0.00    -0.365 C  
HETATM    8  O   UNL     1     -11.357  16.574  68.486  1.00  0.00    -0.356 OA 
BRANCH   7   9
HETATM    9  O   UNL     1     -11.827  14.325  68.620  1.00  0.00    -0.323 OA 
HETATM   10  C   UNL     1     -11.889  14.282  67.193  1.00  0.00    -0.425 C  
ENDBRANCH   7   9
ENDBRANCH   2   7
TORSDOF 4
ENDMDL
MODEL       21
REMARK 921   NORMALIZED FREE ENERGY PREDICTED BY IDOCK:   -3.61 KCAL/MOL
REMARK 922        TOTAL FREE ENERGY PREDICTED BY IDOCK:   -4.56 KCAL/MOL
REMARK 923 INTER-LIGAND FREE ENERGY PREDICTED BY IDOCK:   -4.46 KCAL/MOL
REMARK 924 INTRA-LIGAND FREE ENERGY PREDICTED BY IDOCK:   -0.10 KCAL/MOL
REMARK 927      BINDING AFFINITY PREDICTED BY RF-SCORE:    0.00 PKD
ROOT
HETATM    1  C   UNL     1     -10.218  17.289  66.159  1.00  0.00    -0.338 C  
HETATM    2  C   UNL     1     -10.534  18.591  66.134  1.00  0.00    -0.447 C  
ENDROOT
BRANCH   1   3
HETATM    3  C   UNL     1     -10.688  16.389  65.093  1.00  0.00    -0.291 C  
HETATM    4  O   UNL     1     -11.338  16.732  64.122  1.00  0.00    -1.194 OA 
BRANCH   3   5
HETATM    5  O   UNL     1     -10.268  15.135  65.392  1.00  0.00    -0.335 OA 
HETATM    6  C   UNL     1     -11.001  14.102  64.733  1.00  0.00    -0.400 C  
ENDBRANCH   3   5
ENDBRANCH   1   3
BRANCH   2   7
HETATM    7  C   UNL     1     -10.043  19.453  67.221  1.00  0.00    -0.390 C  
HETATM    8  O   UNL     1     -10.383  19.360  68.390  1.00  0.00    -0.412 OA 
BRANCH   7   9
HETATM    9  O   UNL     1      -9.164  20.348  66.706  1.00  0.00    -0.330 OA 
HETATM   10  C   UNL     1      -7.845  20.221  67.241  1.00  0.00    -0.327 C  
ENDBRANCH   7   9
ENDBRANCH   2   7
TORSDOF 4
ENDMDL
MODEL       22
REMARK 921   NORMALIZED FREE ENERGY PREDICTED BY IDOCK:   -3.58 KCAL/MOL
REMARK 922        TOTAL FREE ENERGY PREDICTED BY IDOCK:   -4.52 KCAL/MOL
REMARK 923 INTER-LIGAND FREE ENERGY PREDICTED BY IDOCK:   -4.44 KCAL/MOL
REMARK 924 INTRA-LIGAND FREE ENERGY PREDICTED BY IDOCK:   -0.08 KCAL/MOL
REMARK 927      BINDING AFFINITY PREDICTED BY RF-SCORE:    0.00 PKD
ROOT
HETATM    1  C   UNL     1     -13.038  12.974  71.527  1.00  0.00    -0.400 C  
HETATM    2  C   UNL     1     -12.264  12.724  70.462  1.00  0.00    -0.389 C  
ENDROOT
BRANCH   1   3
HETATM    3  C   UNL     1     -13.322  14.362  71.929  1.00  0.00    -0.374 C  
HETATM    4  O   UNL     1     -13.563  15.278  71.162  1.00  0.00    -0.466 OA 
BRANCH   3   5
HETATM    5  O   UNL     1     -13.267  14.423  73.282  1.00  0.00    -0.622 OA 
HETATM    6  C   UNL     1     -12.534  15.541  73.785  1.00  0.00    -0.619 C  
ENDBRANCH   3   5
ENDBRANCH   1   3
BRANCH   2   7
HETATM    7  C   UNL     1     -12.007  11.321  70.097  1.00  0.00    -0.369 C  
HETATM    8  O   UNL     1     -11.618  10.462  70.872  1.00  0.00    -0.340 OA 
BRANCH   7   9
HETATM    9  O   UNL     1     -12.272  11.156  68.778  1.00  0.00    -0.555 OA 
HETATM   10  C   UNL     1     -11.168  10.631  68.038  1.00  0.00    -0.307 C  
ENDBRANCH   7   9
ENDBRANCH   2   7
TORSDOF 4
ENDMDL
MODEL       23
REMARK 921   NORMALIZED FREE ENERGY PREDICTED BY IDOCK:   -3.57 KCAL/MOL
REMARK 922        TOTAL FREE ENERGY PREDICTED BY IDOCK:   -4.50 KCAL/MOL
REMARK 923 INTER-LIGAND FREE ENERGY PREDICTED BY IDOCK:   -4.43 KCAL/MOL
REMARK 924 INTRA-LIGAND FREE ENERGY PREDICTED BY IDOCK:   -0.07 KCAL/MOL
REMARK 927      BINDING AFFINITY PREDICTED BY RF-SCORE:    0.00 PKD
ROOT
HETATM    1  C   UNL     1     -12.495  13.159  65.463  1.00  0.00    -0.516 C  
HETATM    2  C   UNL     1     -11.496  12.836  66.295  1.00  0.00    -0.405 C  
ENDROOT
BRANCH   1   3
HETATM    3  C   UNL     1     -12.203  13.634  64.100  1.00  0.00    -0.399 C  
HETATM    4  O   UNL     1     -11.731  12.953  63.207  1.00  0.00    -0.521 OA 
BRANCH   3   5
HETATM    5  O   UNL     1     -12.552  14.942  64.032  1.00  0.00    -0.832 OA 
HETATM    6  C   UNL     1     -11.489  15.846  64.335  1.00  0.00    -0.264 C  
ENDBRANCH   3   5
ENDBRANCH   1   3
BRANCH   2   7
HETATM    7  C   UNL     1     -11.835  12.365  67.648  1.00  0.00    -0.295 C  
HETATM    8  O   UNL     1     -12.142  11.218  67.928  1.00  0.00    -0.634 OA 
BRANCH   7   9
HETATM    9  O   UNL     1     -11.748  13.409  68.508  1.00  0.00    -0.313 OA 
HETATM   10  C   UNL     1     -10.497  14.095  68.444  1.00  0.00    -0.254 C  
ENDBRANCH   7   9
ENDBRANCH   2   7
TORSDOF 4
ENDMDL
MODEL       24
REMARK 921   NORMALIZED FREE ENERGY PREDICTED BY IDOCK:   -3.57 KCAL/MOL
REMARK 922        TOTAL FREE ENERGY PREDICTED BY IDOCK:   -4.50 KCAL/MOL
REMARK 923 INTER-LIGAND FREE ENERGY PREDICTED BY IDOCK:   -4.39 KCAL/MOL
REMARK 924 INTRA-LIGAND FREE ENERGY PREDICTED BY IDOCK:   -0.11 KCAL/MOL
REMARK 927      BINDING AFFINITY PREDICTED BY RF-SCORE:    0.00 PKD
ROOT
HETATM    1  C   UNL     1     -11.135  12.214  63.549  1.00  0.00    -0.525 C  
HETATM    2  C   UNL     1     -11.095  13.230  64.421  1.00  0.00    -0.407 C  
ENDROOT
BRANCH   1   3
HETATM    3  C   UNL     1      -9.985  11.304  63.415  1.00  0.00    -0.395 C  
HETATM    4  O   UNL     1      -9.182  11.320  62.498  1.00  0.00    -0.338 OA 
BRANCH   3   5
HETATM    5  O   UNL     1      -9.990  10.466  64.480  1.00  0.00    -0.332 OA 
HETATM    6  C   UNL     1      -8.829   9.641  64.579  1.00  0.00    -0.223 C  
ENDBRANCH   3   5
ENDBRANCH   1   3
BRANCH   2   7
HETATM    7  C   UNL     1     -12.268  14.114  64.522  1.00  0.00    -0.445 C  
HETATM    8  O   UNL     1     -12.575  14.959  63.697  1.00  0.00    -0.724 OA 
BRANCH   7   9
HETATM    9  O   UNL     1     -12.933  13.829  65.669  1.00  0.00    -0.574 OA 
HETATM   10  C   UNL     1     -12.108  13.896  66.834  1.00  0.00    -0.430 C  
ENDBRANCH   7   9
ENDBRANCH   2   7
TORSDOF 4
ENDMDL
MODEL       25
REMARK 921   NORMALIZED FREE ENERGY PREDICTED BY IDOCK:   -3.55 KCAL/MOL
REMARK 922        TOTAL FREE ENERGY PREDICTED BY IDOCK:   -4.49 KCAL/MOL
REMARK 923 INTER-LIGAND FREE ENERGY PREDICTED BY IDOCK:   -4.41 KCAL/MOL
REMARK 924 INTRA-LIGAND FREE ENERGY PREDICTED BY IDOCK:   -0.07 KCAL/MOL
REMARK 927      BINDING AFFINITY PREDICTED BY RF-SCORE:    0.00 PKD
ROOT
HETATM    1  C   UNL     1     -12.029  14.381  67.293  1.00  0.00    -0.409 C  
HETATM    2  C   UNL     1     -12.258  13.325  66.500  1.00  0.00    -0.389 C  
ENDROOT
BRANCH   1   3
HETATM    3  C   UNL     1     -11.592  14.184  68.685  1.00  0.00    -0.317 C  
HETATM    4  O   UNL     1     -11.081  13.168  69.122  1.00  0.00    -0.245 OA 
BRANCH   3   5
HETATM    5  O   UNL     1     -11.862  15.322  69.370  1.00  0.00    -0.315 OA 
HETATM    6  C   UNL     1     -12.591  15.116  70.580  1.00  0.00    -0.395 C  
ENDBRANCH   3   5
ENDBRANCH   1   3
BRANCH   2   7
HETATM    7  C   UNL     1     -12.693  13.570  65.115  1.00  0.00    -0.399 C  
HETATM    8  O   UNL     1     -12.588  14.637  64.532  1.00  0.00    -0.626 OA 
BRANCH   7   9
HETATM    9  O   UNL     1     -13.219  12.426  64.613  1.00  0.00    -0.822 OA 
HETATM   10  C   UNL     1     -12.506  11.922  63.481  1.00  0.00    -0.492 C  
ENDBRANCH   7   9
ENDBRANCH   2   7
TORSDOF 4
ENDMDL
MODEL       26
REMARK 921   NORMALIZED FREE ENERGY PREDICTED BY IDOCK:   -3.54 KCAL/MOL
REMARK 922        TOTAL FREE ENERGY PREDICTED BY IDOCK:   -4.47 KCAL/MOL
REMARK 923 INTER-LIGAND FREE ENERGY PREDICTED BY IDOCK:   -4.37 KCAL/MOL
REMARK 924 INTRA-LIGAND FREE ENERGY PREDICTED BY IDOCK:   -0.10 KCAL/MOL
REMARK 927      BINDING AFFINITY PREDICTED BY RF-SCORE:    0.00 PKD
ROOT
HETATM    1  C   UNL     1     -12.028  14.076  66.181  1.00  0.00    -0.440 C  
HETATM    2  C   UNL     1     -10.918  14.781  66.437  1.00  0.00    -0.331 C  
ENDROOT
BRANCH   1   3
HETATM    3  C   UNL     1     -12.470  13.862  64.793  1.00  0.00    -0.354 C  
HETATM    4  O   UNL     1     -12.429  14.699  63.908  1.00  0.00    -0.813 OA 
BRANCH   3   5
HETATM    5  O   UNL     1     -12.920  12.588  64.691  1.00  0.00    -0.803 OA 
HETATM    6  C   UNL     1     -12.485  11.908  63.513  1.00  0.00    -0.492 C  
ENDBRANCH   3   5
ENDBRANCH   1   3
BRANCH   2   7
HETATM    7  C   UNL     1     -10.514  14.969  67.841  1.00  0.00    -0.247 C  
HETATM    8  O   UNL     1      -9.557  14.424  68.367  1.00  0.00    -0.208 OA 
BRANCH   7   9
HETATM    9  O   UNL     1     -11.375  15.833  68.431  1.00  0.00    -0.344 OA 
HETATM   10  C   UNL     1     -11.474  15.659  69.846  1.00  0.00    -0.338 C  
ENDBRANCH   7   9
ENDBRANCH   2   7
TORSDOF 4
ENDMDL
MODEL       27
REMARK 921   NORMALIZED FREE ENERGY PREDICTED BY IDOCK:   -3.54 KCAL/MOL
REMARK 922        TOTAL FREE ENERGY PREDICTED BY IDOCK:   -4.47 KCAL/MOL
REMARK 923 INTER-LIGAND FREE ENERGY PREDICTED BY IDOCK:   -4.37 KCAL/MOL
REMARK 924 INTRA-LIGAND FREE ENERGY PREDICTED BY IDOCK:   -0.10 KCAL/MOL
REMARK 927      BINDING AFFINITY PREDICTED BY RF-SCORE:    0.00 PKD
ROOT
HETATM    1  C   UNL     1     -11.757  12.412  66.267  1.00  0.00    -0.457 C  
HETATM    2  C   UNL     1     -12.579  13.305  65.698  1.00  0.00    -0.469 C  
ENDROOT
BRANCH   1   3
HETATM    3  C   UNL     1     -11.781  12.202  67.724  1.00  0.00    -0.320 C  
HETATM    4  O   UNL     1     -11.789  13.088  68.560  1.00  0.00    -0.313 OA 
BRANCH   3   5
HETATM    5  O   UNL     1     -11.792  10.866  67.951  1.00  0.00    -0.590 OA 
HETATM    6  C   UNL     1     -10.802  10.141  67.222  1.00  0.00    -0.230 C  
ENDBRANCH   3   5
ENDBRANCH   1   3
BRANCH   2   7
HETATM    7  C   UNL     1     -12.520  13.481  64.237  1.00  0.00    -0.252 C  
HETATM    8  O   UNL     1     -12.434  12.570  63.431  1.00  0.00    -0.645 OA 
BRANCH   7   9
HETATM    9  O   UNL     1     -12.576  14.805  63.955  1.00  0.00    -0.834 OA 
HETATM   10  C   UNL     1     -11.449  15.538  64.438  1.00  0.00    -0.259 C  
ENDBRANCH   7   9
ENDBRANCH   2   7
TORSDOF 4
ENDMDL
MODEL       28
REMARK 921   NORMALIZED FREE ENERGY PREDICTED BY IDOCK:   -3.54 KCAL/MOL
REMARK 922        TOTAL FREE ENERGY PREDICTED BY IDOCK:   -4.46 KCAL/MOL
REMARK 923 INTER-LIGAND FREE ENERGY PREDICTED BY IDOCK:   -4.34 KCAL/MOL
REMARK 924 INTRA-LIGAND FREE ENERGY PREDICTED BY IDOCK:   -0.12 KCAL/MOL
REMARK 927      BINDING AFFINITY PREDICTED BY RF-SCORE:    0.00 PKD
ROOT
HETATM    1  C   UNL     1     -12.695  12.152  71.450  1.00  0.00    -0.368 C  
HETATM    2  C   UNL     1     -13.540  12.742  72.306  1.00  0.00    -0.563 C  
ENDROOT
BRANCH   1   3
HETATM    3  C   UNL     1     -12.606  10.684  71.386  1.00  0.00    -0.421 C  
HETATM    4  O   UNL     1     -11.684  10.058  70.894  1.00  0.00    -0.315 OA 
BRANCH   3   5
HETATM    5  O   UNL     1     -13.721  10.174  71.965  1.00  0.00    -0.284 OA 
HETATM    6  C   UNL     1     -14.013   8.829  71.585  1.00  0.00    -0.394 C  
ENDBRANCH   3   5
ENDBRANCH   1   3
BRANCH   2   7
HETATM    7  C   UNL     1     -13.594  14.213  72.335  1.00  0.00    -0.532 C  
HETATM    8  O   UNL     1     -14.342  14.894  71.651  1.00  0.00    -0.469 OA 
BRANCH   7   9
HETATM    9  O   UNL     1     -12.688  14.667  73.235  1.00  0.00    -0.477 OA 
HETATM   10  C   UNL     1     -12.292  16.021  73.009  1.00  0.00    -0.520 C  
ENDBRANCH   7   9
ENDBRANCH   2   7
TORSDOF 4
ENDMDL
MODEL       29
REMARK 921   NORMALIZED FREE ENERGY PREDICTED BY IDOCK:   -3.51 KCAL/MOL
REMARK 922        TOTAL FREE ENERGY PREDICTED BY IDOCK:   -4.44 KCAL/MOL
REMARK 923 INTER-LIGAND FREE ENERGY PREDICTED BY IDOCK:   -4.34 KCAL/MOL
REMARK 924 INTRA-LIGAND FREE ENERGY PREDICTED BY IDOCK:   -0.10 KCAL/MOL
REMARK 927      BINDING AFFINITY PREDICTED BY RF-SCORE:    0.00 PKD
ROOT
HETATM    1  C   UNL     1     -12.103  14.304  66.411  1.00  0.00    -0.442 C  
HETATM    2  C   UNL     1     -11.736  14.313  67.700  1.00  0.00    -0.421 C  
ENDROOT
BRANCH   1   3
HETATM    3  C   UNL     1     -12.228  13.031  65.682  1.00  0.00    -0.466 C  
HETATM    4  O   UNL     1     -11.986  11.931  66.147  1.00  0.00    -0.537 OA 
BRANCH   3   5
HETATM    5  O   UNL     1     -12.654  13.310  64.426  1.00  0.00    -0.609 OA 
HETATM    6  C   UNL     1     -12.317  12.314  63.461  1.00  0.00    -0.565 C  
ENDBRANCH   3   5
ENDBRANCH   1   3
BRANCH   2   7
HETATM    7  C   UNL     1     -11.624  15.610  68.388  1.00  0.00    -0.350 C  
HETATM    8  O   UNL     1     -12.128  15.869  69.468  1.00  0.00    -0.329 OA 
BRANCH   7   9
HETATM    9  O   UNL     1     -10.879  16.446  67.625  1.00  0.00    -0.327 OA 
HETATM   10  C   UNL     1      -9.830  17.092  68.350  1.00  0.00    -0.296 C  
ENDBRANCH   7   9
ENDBRANCH   2   7
TORSDOF 4
ENDMDL
MODEL       30
REMARK 921   NORMALIZED FREE ENERGY PREDICTED BY IDOCK:   -3.49 KCAL/MOL
REMARK 922        TOTAL FREE ENERGY PREDICTED BY IDOCK:   -4.40 KCAL/MOL
REMARK 923 INTER-LIGAND FREE ENERGY PREDICTED BY IDOCK:   -4.33 KCAL/MOL
REMARK 924 INTRA-LIGAND FREE ENERGY PREDICTED BY IDOCK:   -0.08 KCAL/MOL
REMARK 927      BINDING AFFINITY PREDICTED BY RF-SCORE:    0.00 PKD
ROOT
HETATM    1  C   UNL     1     -12.764  11.900  71.385  1.00  0.00    -0.395 C  
HETATM    2  C   UNL     1     -13.158  10.742  71.932  1.00  0.00    -0.557 C  
ENDROOT
BRANCH   1   3
HETATM    3  C   UNL     1     -13.324  13.176  71.864  1.00  0.00    -0.455 C  
HETATM    4  O   UNL     1     -14.236  13.284  72.665  1.00  0.00    -0.724 OA 
BRANCH   3   5
HETATM    5  O   UNL     1     -12.647  14.181  71.257  1.00  0.00    -0.324 OA 
HETATM    6  C   UNL     1     -13.384  15.398  71.147  1.00  0.00    -0.508 C  
ENDBRANCH   3   5
ENDBRANCH   1   3
BRANCH   2   7
HETATM    7  C   UNL     1     -12.571   9.491  71.422  1.00  0.00    -0.359 C  
HETATM    8  O   UNL     1     -11.778   9.423  70.496  1.00  0.00    -0.262 OA 
BRANCH   7   9
HETATM    9  O   UNL     1     -13.057   8.454  72.146  1.00  0.00    -0.339 OA 
HETATM   10  C   UNL     1     -14.113   7.749  71.491  1.00  0.00    -0.404 C  
ENDBRANCH   7   9
ENDBRANCH   2   7
TORSDOF 4
ENDMDL
MODEL       31
REMARK 921   NORMALIZED FREE ENERGY PREDICTED BY IDOCK:   -3.49 KCAL/MOL
REMARK 922        TOTAL FREE ENERGY PREDICTED BY IDOCK:   -4.40 KCAL/MOL
REMARK 923 INTER-LIGAND FREE ENERGY PREDICTED BY IDOCK:   -4.29 KCAL/MOL
REMARK 924 INTRA-LIGAND FREE ENERGY PREDICTED BY IDOCK:   -0.11 KCAL/MOL
REMARK 927      BINDING AFFINITY PREDICTED BY RF-SCORE:    0.00 PKD
ROOT
HETATM    1  C   UNL     1     -12.290  13.211  65.207  1.00  0.00    -0.532 C  
HETATM    2  C   UNL     1     -11.336  14.023  65.682  1.00  0.00    -0.313 C  
ENDROOT
BRANCH   1   3
HETATM    3  C   UNL     1     -12.132  12.566  63.893  1.00  0.00    -0.498 C  
HETATM    4  O   UNL     1     -13.031  12.050  63.253  1.00  0.00    -0.736 OA 
BRANCH   3   5
HETATM    5  O   UNL     1     -10.826  12.655  63.541  1.00  0.00    -0.429 OA 
HETATM    6  C   UNL     1     -10.187  11.393  63.346  1.00  0.00    -0.411 C  
ENDBRANCH   3   5
ENDBRANCH   1   3
BRANCH   2   7
HETATM    7  C   UNL     1     -11.537  14.646  67.001  1.00  0.00    -0.371 C  
HETATM    8  O   UNL     1     -12.257  14.197  67.878  1.00  0.00    -0.319 OA 
BRANCH   7   9
HETATM    9  O   UNL     1     -10.797  15.779  67.066  1.00  0.00    -0.318 OA 
HETATM   10  C   UNL     1     -10.449  16.305  65.784  1.00  0.00    -0.364 C  
ENDBRANCH   7   9
ENDBRANCH   2   7
TORSDOF 4
ENDMDL
MODEL       32
REMARK 921   NORMALIZED FREE ENERGY PREDICTED BY IDOCK:   -3.47 KCAL/MOL
REMARK 922        TOTAL FREE ENERGY PREDICTED BY IDOCK:   -4.38 KCAL/MOL
REMARK 923 INTER-LIGAND FREE ENERGY PREDICTED BY IDOCK:   -4.32 KCAL/MOL
REMARK 924 INTRA-LIGAND FREE ENERGY PREDICTED BY IDOCK:   -0.07 KCAL/MOL
REMARK 927      BINDING AFFINITY PREDICTED BY RF-SCORE:    0.00 PKD
ROOT
HETATM    1  C   UNL     1     -11.724  14.111  67.523  1.00  0.00    -0.418 C  
HETATM    2  C   UNL     1     -11.989  13.990  66.215  1.00  0.00    -0.454 C  
ENDROOT
BRANCH   1   3
HETATM    3  C   UNL     1     -11.489  15.439  68.114  1.00  0.00    -0.343 C  
HETATM    4  O   UNL     1     -10.850  16.336  67.592  1.00  0.00    -0.327 OA 
BRANCH   3   5
HETATM    5  O   UNL     1     -12.105  15.472  69.321  1.00  0.00    -0.332 OA 
HETATM    6  C   UNL     1     -11.368  16.159  70.333  1.00  0.00    -0.363 C  
ENDBRANCH   3   5
ENDBRANCH   1   3
BRANCH   2   7
HETATM    7  C   UNL     1     -12.218  12.642  65.668  1.00  0.00    -0.411 C  
HETATM    8  O   UNL     1     -11.749  11.615  66.133  1.00  0.00    -0.415 OA 
BRANCH   7   9
HETATM    9  O   UNL     1     -13.023  12.742  64.583  1.00  0.00    -0.742 OA 
HETATM   10  C   UNL     1     -12.461  12.160  63.404  1.00  0.00    -0.512 C  
ENDBRANCH   7   9
ENDBRANCH   2   7
TORSDOF 4
ENDMDL
MODEL       33
REMARK 921   NORMALIZED FREE ENERGY PREDICTED BY IDOCK:   -3.46 KCAL/MOL
REMARK 922        TOTAL FREE ENERGY PREDICTED BY IDOCK:   -4.37 KCAL/MOL
REMARK 923 INTER-LIGAND FREE ENERGY PREDICTED BY IDOCK:   -4.29 KCAL/MOL
REMARK 924 INTRA-LIGAND FREE ENERGY PREDICTED BY IDOCK:   -0.08 KCAL/MOL
REMARK 927      BINDING AFFINITY PREDICTED BY RF-SCORE:    0.00 PKD
ROOT
HETATM    1  C   UNL     1     -12.077  13.988  66.573  1.00  0.00    -0.488 C  
HETATM    2  C   UNL     1     -11.074  14.434  65.804  1.00  0.00    -0.316 C  
ENDROOT
BRANCH   1   3
HETATM    3  C   UNL     1     -11.815  13.009  67.641  1.00  0.00    -0.351 C  
HETATM    4  O   UNL     1     -11.540  13.287  68.795  1.00  0.00    -0.267 OA 
BRANCH   3   5
HETATM    5  O   UNL     1     -11.936  11.769  67.107  1.00  0.00    -0.617 OA 
HETATM    6  C   UNL     1     -10.869  10.882  67.444  1.00  0.00    -0.279 C  
ENDBRANCH   3   5
ENDBRANCH   1   3
BRANCH   2   7
HETATM    7  C   UNL     1     -11.382  15.413  64.749  1.00  0.00    -0.376 C  
HETATM    8  O   UNL     1     -12.330  15.335  63.984  1.00  0.00    -0.665 OA 
BRANCH   7   9
HETATM    9  O   UNL     1     -10.448  16.395  64.777  1.00  0.00    -0.620 OA 
HETATM   10  C   UNL     1     -10.390  17.088  66.025  1.00  0.00    -0.315 C  
ENDBRANCH   7   9
ENDBRANCH   2   7
TORSDOF 4
ENDMDL
MODEL       34
REMARK 921   NORMALIZED FREE ENERGY PREDICTED BY IDOCK:   -3.43 KCAL/MOL
REMARK 922        TOTAL FREE ENERGY PREDICTED BY IDOCK:   -4.33 KCAL/MOL
REMARK 923 INTER-LIGAND FREE ENERGY PREDICTED BY IDOCK:   -4.21 KCAL/MOL
REMARK 924 INTRA-LIGAND FREE ENERGY PREDICTED BY IDOCK:   -0.12 KCAL/MOL
REMARK 927      BINDING AFFINITY PREDICTED BY RF-SCORE:    0.00 PKD
ROOT
HETATM    1  C   UNL     1     -11.099  14.799  65.510  1.00  0.00    -0.346 C  
HETATM    2  C   UNL     1      -9.838  15.221  65.680  1.00  0.00    -0.383 C  
ENDROOT
BRANCH   1   3
HETATM    3  C   UNL     1     -11.888  15.260  64.355  1.00  0.00    -0.281 C  
HETATM    4  O   UNL     1     -11.781  16.351  63.824  1.00  0.00    -1.049 OA 
BRANCH   3   5
HETATM    5  O   UNL     1     -12.735  14.261  64.006  1.00  0.00    -0.697 OA 
HETATM    6  C   UNL     1     -12.088  13.113  63.456  1.00  0.00    -0.514 C  
ENDBRANCH   3   5
ENDBRANCH   1   3
BRANCH   2   7
HETATM    7  C   UNL     1      -9.087  14.734  66.849  1.00  0.00    -0.248 C  
HETATM    8  O   UNL     1      -9.226  13.632  67.354  1.00  0.00    -0.204 OA 
BRANCH   7   9
HETATM    9  O   UNL     1      -8.234  15.705  67.255  1.00  0.00    -0.160 OA 
HETATM   10  C   UNL     1      -8.060  16.747  66.293  1.00  0.00    -0.330 C  
ENDBRANCH   7   9
ENDBRANCH   2   7
TORSDOF 4
ENDMDL
MODEL       35
REMARK 921   NORMALIZED FREE ENERGY PREDICTED BY IDOCK:   -3.42 KCAL/MOL
REMARK 922        TOTAL FREE ENERGY PREDICTED BY IDOCK:   -4.32 KCAL/MOL
REMARK 923 INTER-LIGAND FREE ENERGY PREDICTED BY IDOCK:   -4.21 KCAL/MOL
REMARK 924 INTRA-LIGAND FREE ENERGY PREDICTED BY IDOCK:   -0.11 KCAL/MOL
REMARK 927      BINDING AFFINITY PREDICTED BY RF-SCORE:    0.00 PKD
ROOT
HETATM    1  C   UNL     1     -12.601  14.646  70.503  1.00  0.00    -0.409 C  
HETATM    2  C   UNL     1     -12.471  13.376  70.910  1.00  0.00    -0.439 C  
ENDROOT
BRANCH   1   3
HETATM    3  C   UNL     1     -11.719  15.184  69.454  1.00  0.00    -0.332 C  
HETATM    4  O   UNL     1     -11.856  14.996  68.258  1.00  0.00    -0.327 OA 
BRANCH   3   5
HETATM    5  O   UNL     1     -10.749  15.912  70.060  1.00  0.00    -0.298 OA 
HETATM    6  C   UNL     1      -9.498  15.905  69.372  1.00  0.00    -0.248 C  
ENDBRANCH   3   5
ENDBRANCH   1   3
BRANCH   2   7
HETATM    7  C   UNL     1     -13.375  12.880  71.961  1.00  0.00    -0.482 C  
HETATM    8  O   UNL     1     -14.093  13.587  72.650  1.00  0.00    -0.762 OA 
BRANCH   7   9
HETATM    9  O   UNL     1     -13.272  11.530  72.026  1.00  0.00    -0.509 OA 
HETATM   10  C   UNL     1     -12.528  10.966  70.945  1.00  0.00    -0.408 C  
ENDBRANCH   7   9
ENDBRANCH   2   7
TORSDOF 4
ENDMDL
MODEL       36
REMARK 921   NORMALIZED FREE ENERGY PREDICTED BY IDOCK:   -3.42 KCAL/MOL
REMARK 922        TOTAL FREE ENERGY PREDICTED BY IDOCK:   -4.32 KCAL/MOL
REMARK 923 INTER-LIGAND FREE ENERGY PREDICTED BY IDOCK:   -4.25 KCAL/MOL
REMARK 924 INTRA-LIGAND FREE ENERGY PREDICTED BY IDOCK:   -0.07 KCAL/MOL
REMARK 927      BINDING AFFINITY PREDICTED BY RF-SCORE:    0.00 PKD
ROOT
HETATM    1  C   UNL     1     -12.096  13.857  67.034  1.00  0.00    -0.451 C  
HETATM    2  C   UNL     1     -11.805  13.669  68.328  1.00  0.00    -0.404 C  
ENDROOT
BRANCH   1   3
HETATM    3  C   UNL     1     -11.975  12.746  66.075  1.00  0.00    -0.432 C  
HETATM    4  O   UNL     1     -11.349  11.719  66.268  1.00  0.00    -0.329 OA 
BRANCH   3   5
HETATM    5  O   UNL     1     -12.678  13.077  64.964  1.00  0.00    -0.622 OA 
HETATM    6  C   UNL     1     -12.177  12.492  63.762  1.00  0.00    -0.525 C  
ENDBRANCH   3   5
ENDBRANCH   1   3
BRANCH   2   7
HETATM    7  C   UNL     1     -11.940  14.808  69.250  1.00  0.00    -0.294 C  
HETATM    8  O   UNL     1     -11.675  15.965  68.968  1.00  0.00    -0.385 OA 
BRANCH   7   9
HETATM    9  O   UNL     1     -12.401  14.354  70.441  1.00  0.00    -0.304 OA 
HETATM   10  C   UNL     1     -13.211  15.305  71.136  1.00  0.00    -0.498 C  
ENDBRANCH   7   9
ENDBRANCH   2   7
TORSDOF 4
ENDMDL
MODEL       37
REMARK 921   NORMALIZED FREE ENERGY PREDICTED BY IDOCK:   -3.41 KCAL/MOL
REMARK 922        TOTAL FREE ENERGY PREDICTED BY IDOCK:   -4.30 KCAL/MOL
REMARK 923 INTER-LIGAND FREE ENERGY PREDICTED BY IDOCK:   -4.18 KCAL/MOL
REMARK 924 INTRA-LIGAND FREE ENERGY PREDICTED BY IDOCK:   -0.13 KCAL/MOL
REMARK 927      BINDING AFFINITY PREDICTED BY RF-SCORE:    0.00 PKD
ROOT
HETATM    1  C   UNL     1     -11.632  15.180  67.932  1.00  0.00    -0.326 C  
HETATM    2  C   UNL     1     -11.251  14.484  66.852  1.00  0.00    -0.340 C  
ENDROOT
BRANCH   1   3
HETATM    3  C   UNL     1     -10.788  16.270  68.449  1.00  0.00    -0.334 C  
HETATM    4  O   UNL     1     -10.570  16.489  69.628  1.00  0.00    -0.316 OA 
BRANCH   3   5
HETATM    5  O   UNL     1     -10.311  16.966  67.388  1.00  0.00    -0.296 OA 
HETATM    6  C   UNL     1     -10.508  18.378  67.481  1.00  0.00    -0.419 C  
ENDBRANCH   3   5
ENDBRANCH   1   3
BRANCH   2   7
HETATM    7  C   UNL     1     -12.127  13.403  66.370  1.00  0.00    -0.409 C  
HETATM    8  O   UNL     1     -12.111  12.257  66.790  1.00  0.00    -0.593 OA 
BRANCH   7   9
HETATM    9  O   UNL     1     -12.935  13.895  65.400  1.00  0.00    -0.722 OA 
HETATM   10  C   UNL     1     -12.223  14.377  64.258  1.00  0.00    -0.423 C  
ENDBRANCH   7   9
ENDBRANCH   2   7
TORSDOF 4
ENDMDL
MODEL       38
REMARK 921   NORMALIZED FREE ENERGY PREDICTED BY IDOCK:   -3.39 KCAL/MOL
REMARK 922        TOTAL FREE ENERGY PREDICTED BY IDOCK:   -4.28 KCAL/MOL
REMARK 923 INTER-LIGAND FREE ENERGY PREDICTED BY IDOCK:   -4.15 KCAL/MOL
REMARK 924 INTRA-LIGAND FREE ENERGY PREDICTED BY IDOCK:   -0.13 KCAL/MOL
REMARK 927      BINDING AFFINITY PREDICTED BY RF-SCORE:    0.00 PKD
ROOT
HETATM    1  C   UNL     1     -11.798  12.494  67.324  1.00  0.00    -0.381 C  
HETATM    2  C   UNL     1     -12.141  13.509  66.520  1.00  0.00    -0.460 C  
ENDROOT
BRANCH   1   3
HETATM    3  C   UNL     1     -11.682  12.703  68.777  1.00  0.00    -0.323 C  
HETATM    4  O   UNL     1     -11.235  11.891  69.568  1.00  0.00    -0.231 OA 
BRANCH   3   5
HETATM    5  O   UNL     1     -12.156  13.941  69.058  1.00  0.00    -0.349 OA 
HETATM    6  C   UNL     1     -12.499  14.137  70.430  1.00  0.00    -0.357 C  
ENDBRANCH   3   5
ENDBRANCH   1   3
BRANCH   2   7
HETATM    7  C   UNL     1     -12.245  13.254  65.073  1.00  0.00    -0.432 C  
HETATM    8  O   UNL     1     -13.111  12.572  64.548  1.00  0.00    -0.816 OA 
BRANCH   7   9
HETATM    9  O   UNL     1     -11.231  13.895  64.443  1.00  0.00    -0.373 OA 
HETATM   10  C   UNL     1     -11.010  15.221  64.927  1.00  0.00    -0.430 C  
ENDBRANCH   7   9
ENDBRANCH   2   7
TORSDOF 4
ENDMDL
MODEL       39
REMARK 921   NORMALIZED FREE ENERGY PREDICTED BY IDOCK:   -3.38 KCAL/MOL
REMARK 922        TOTAL FREE ENERGY PREDICTED BY IDOCK:   -4.27 KCAL/MOL
REMARK 923 INTER-LIGAND FREE ENERGY PREDICTED BY IDOCK:   -4.14 KCAL/MOL
REMARK 924 INTRA-LIGAND FREE ENERGY PREDICTED BY IDOCK:   -0.14 KCAL/MOL
REMARK 927      BINDING AFFINITY PREDICTED BY RF-SCORE:    0.00 PKD
ROOT
HETATM    1  C   UNL     1     -12.066  10.299  71.192  1.00  0.00    -0.494 C  
HETATM    2  C   UNL     1     -12.692   9.467  72.035  1.00  0.00    -0.483 C  
ENDROOT
BRANCH   1   3
HETATM    3  C   UNL     1     -12.574  11.664  70.980  1.00  0.00    -0.331 C  
HETATM    4  O   UNL     1     -12.242  12.402  70.069  1.00  0.00    -0.272 OA 
BRANCH   3   5
HETATM    5  O   UNL     1     -13.461  11.936  71.968  1.00  0.00    -0.431 OA 
HETATM    6  C   UNL     1     -13.603  13.327  72.257  1.00  0.00    -0.605 C  
ENDBRANCH   3   5
ENDBRANCH   1   3
BRANCH   2   7
HETATM    7  C   UNL     1     -12.148   8.111  72.216  1.00  0.00    -0.364 C  
HETATM    8  O   UNL     1     -11.342   7.795  73.077  1.00  0.00    -0.399 OA 
BRANCH   7   9
HETATM    9  O   UNL     1     -12.689   7.294  71.279  1.00  0.00    -0.362 OA 
HETATM   10  C   UNL     1     -11.713   6.609  70.492  1.00  0.00    -0.394 C  
ENDBRANCH   7   9
ENDBRANCH   2   7
TORSDOF 4
ENDMDL
MODEL       40
REMARK 921   NORMALIZED FREE ENERGY PREDICTED BY IDOCK:   -3.38 KCAL/MOL
REMARK 922        TOTAL FREE ENERGY PREDICTED BY IDOCK:   -4.27 KCAL/MOL
REMARK 923 INTER-LIGAND FREE ENERGY PREDICTED BY IDOCK:   -4.16 KCAL/MOL
REMARK 924 INTRA-LIGAND FREE ENERGY PREDICTED BY IDOCK:   -0.11 KCAL/MOL
REMARK 927      BINDING AFFINITY PREDICTED BY RF-SCORE:    0.00 PKD
ROOT
HETATM    1  C   UNL     1     -10.728  13.321  64.382  1.00  0.00    -0.432 C  
HETATM    2  C   UNL     1     -11.053  12.276  63.609  1.00  0.00    -0.537 C  
ENDROOT
BRANCH   1   3
HETATM    3  C   UNL     1     -11.695  14.408  64.607  1.00  0.00    -0.430 C  
HETATM    4  O   UNL     1     -12.639  14.668  63.882  1.00  0.00    -0.834 OA 
BRANCH   3   5
HETATM    5  O   UNL     1     -11.343  15.049  65.749  1.00  0.00    -0.337 OA 
HETATM    6  C   UNL     1     -10.345  16.054  65.570  1.00  0.00    -0.390 C  
ENDBRANCH   3   5
ENDBRANCH   1   3
BRANCH   2   7
HETATM    7  C   UNL     1     -10.054  11.213  63.412  1.00  0.00    -0.390 C  
HETATM    8  O   UNL     1      -9.185  11.226  62.555  1.00  0.00    -0.338 OA 
BRANCH   7   9
HETATM    9  O   UNL     1     -10.266  10.238  64.330  1.00  0.00    -0.269 OA 
HETATM   10  C   UNL     1      -9.131   9.981  65.158  1.00  0.00    -0.204 C  
ENDBRANCH   7   9
ENDBRANCH   2   7
TORSDOF 4
ENDMDL
MODEL       41
REMARK 921   NORMALIZED FREE ENERGY PREDICTED BY IDOCK:   -3.35 KCAL/MOL
REMARK 922        TOTAL FREE ENERGY PREDICTED BY IDOCK:   -4.24 KCAL/MOL
REMARK 923 INTER-LIGAND FREE ENERGY PREDICTED BY IDOCK:   -4.16 KCAL/MOL
REMARK 924 INTRA-LIGAND FREE ENERGY PREDICTED BY IDOCK:   -0.08 KCAL/MOL
REMARK 927      BINDING AFFINITY PREDICTED BY RF-SCORE:    0.00 PKD
ROOT
HETATM    1  C   UNL     1     -11.672  12.943  67.623  1.00  0.00    -0.422 C  
HETATM    2  C   UNL     1     -11.957  12.373  66.444  1.00  0.00    -0.346 C  
ENDROOT
BRANCH   1   3
HETATM    3  C   UNL     1     -11.157  12.129  68.737  1.00  0.00    -0.250 C  
HETATM    4  O   UNL     1     -10.127  11.479  68.712  1.00  0.00    -0.213 OA 
BRANCH   3   5
HETATM    5  O   UNL     1     -12.027  12.240  69.770  1.00  0.00    -0.314 OA 
HETATM    6  C   UNL     1     -12.123  11.068  70.580  1.00  0.00    -0.373 C  
ENDBRANCH   3   5
ENDBRANCH   1   3
BRANCH   2   7
HETATM    7  C   UNL     1     -12.470  13.226  65.359  1.00  0.00    -0.489 C  
HETATM    8  O   UNL     1     -12.279  14.428  65.271  1.00  0.00    -0.393 OA 
BRANCH   7   9
HETATM    9  O   UNL     1     -13.175  12.457  64.495  1.00  0.00    -0.834 OA 
HETATM   10  C   UNL     1     -12.397  11.980  63.395  1.00  0.00    -0.523 C  
ENDBRANCH   7   9
ENDBRANCH   2   7
TORSDOF 4
ENDMDL
MODEL       42
REMARK 921   NORMALIZED FREE ENERGY PREDICTED BY IDOCK:   -3.35 KCAL/MOL
REMARK 922        TOTAL FREE ENERGY PREDICTED BY IDOCK:   -4.23 KCAL/MOL
REMARK 923 INTER-LIGAND FREE ENERGY PREDICTED BY IDOCK:   -4.14 KCAL/MOL
REMARK 924 INTRA-LIGAND FREE ENERGY PREDICTED BY IDOCK:   -0.09 KCAL/MOL
REMARK 927      BINDING AFFINITY PREDICTED BY RF-SCORE:    0.00 PKD
ROOT
HETATM    1  C   UNL     1     -11.945  15.248  70.141  1.00  0.00    -0.373 C  
HETATM    2  C   UNL     1     -12.108  14.091  69.486  1.00  0.00    -0.397 C  
ENDROOT
BRANCH   1   3
HETATM    3  C   UNL     1     -12.831  15.599  71.264  1.00  0.00    -0.487 C  
HETATM    4  O   UNL     1     -14.046  15.507  71.252  1.00  0.00    -0.548 OA 
BRANCH   3   5
HETATM    5  O   UNL     1     -12.055  16.032  72.287  1.00  0.00    -0.443 OA 
HETATM    6  C   UNL     1     -12.607  15.790  73.581  1.00  0.00    -0.592 C  
ENDBRANCH   3   5
ENDBRANCH   1   3
BRANCH   2   7
HETATM    7  C   UNL     1     -11.198  13.782  68.371  1.00  0.00    -0.272 C  
HETATM    8  O   UNL     1     -10.273  12.988  68.428  1.00  0.00    -0.242 OA 
BRANCH   7   9
HETATM    9  O   UNL     1     -11.561  14.520  67.293  1.00  0.00    -0.355 OA 
HETATM   10  C   UNL     1     -12.291  13.776  66.316  1.00  0.00    -0.433 C  
ENDBRANCH   7   9
ENDBRANCH   2   7
TORSDOF 4
ENDMDL
MODEL       43
REMARK 921   NORMALIZED FREE ENERGY PREDICTED BY IDOCK:   -3.35 KCAL/MOL
REMARK 922        TOTAL FREE ENERGY PREDICTED BY IDOCK:   -4.23 KCAL/MOL
REMARK 923 INTER-LIGAND FREE ENERGY PREDICTED BY IDOCK:   -4.13 KCAL/MOL
REMARK 924 INTRA-LIGAND FREE ENERGY PREDICTED BY IDOCK:   -0.10 KCAL/MOL
REMARK 927      BINDING AFFINITY PREDICTED BY RF-SCORE:    0.00 PKD
ROOT
HETATM    1  C   UNL     1     -11.781  11.850  68.501  1.00  0.00    -0.388 C  
HETATM    2  C   UNL     1     -12.012  12.242  69.761  1.00  0.00    -0.365 C  
ENDROOT
BRANCH   1   3
HETATM    3  C   UNL     1     -11.697  12.842  67.417  1.00  0.00    -0.372 C  
HETATM    4  O   UNL     1     -11.340  13.999  67.552  1.00  0.00    -0.293 OA 
BRANCH   3   5
HETATM    5  O   UNL     1     -12.084  12.237  66.268  1.00  0.00    -0.626 OA 
HETATM    6  C   UNL     1     -12.438  13.143  65.222  1.00  0.00    -0.495 C  
ENDBRANCH   3   5
ENDBRANCH   1   3
BRANCH   2   7
HETATM    7  C   UNL     1     -12.088  11.214  70.813  1.00  0.00    -0.357 C  
HETATM    8  O   UNL     1     -11.312  10.279  70.927  1.00  0.00    -0.337 OA 
BRANCH   7   9
HETATM    9  O   UNL     1     -13.147  11.485  71.614  1.00  0.00    -0.452 OA 
HETATM   10  C   UNL     1     -13.221  12.855  72.013  1.00  0.00    -0.448 C  
ENDBRANCH   7   9
ENDBRANCH   2   7
TORSDOF 4
ENDMDL
MODEL       44
REMARK 921   NORMALIZED FREE ENERGY PREDICTED BY IDOCK:   -3.31 KCAL/MOL
REMARK 922        TOTAL FREE ENERGY PREDICTED BY IDOCK:   -4.18 KCAL/MOL
REMARK 923 INTER-LIGAND FREE ENERGY PREDICTED BY IDOCK:   -4.06 KCAL/MOL
REMARK 924 INTRA-LIGAND FREE ENERGY PREDICTED BY IDOCK:   -0.12 KCAL/MOL
REMARK 927      BINDING AFFINITY PREDICTED BY RF-SCORE:    0.00 PKD
ROOT
HETATM    1  C   UNL     1     -11.733  13.700  67.555  1.00  0.00    -0.406 C  
HETATM    2  C   UNL     1     -12.164  14.260  66.416  1.00  0.00    -0.426 C  
ENDROOT
BRANCH   1   3
HETATM    3  C   UNL     1     -11.822  14.438  68.826  1.00  0.00    -0.325 C  
HETATM    4  O   UNL     1     -12.031  13.934  69.916  1.00  0.00    -0.300 OA 
BRANCH   3   5
HETATM    5  O   UNL     1     -11.633  15.753  68.559  1.00  0.00    -0.368 OA 
HETATM    6  C   UNL     1     -10.905  16.455  69.567  1.00  0.00    -0.338 C  
ENDBRANCH   3   5
ENDBRANCH   1   3
BRANCH   2   7
HETATM    7  C   UNL     1     -12.056  13.485  65.169  1.00  0.00    -0.404 C  
HETATM    8  O   UNL     1     -13.002  13.017  64.558  1.00  0.00    -0.707 OA 
BRANCH   7   9
HETATM    9  O   UNL     1     -10.747  13.387  64.828  1.00  0.00    -0.343 OA 
HETATM   10  C   UNL     1     -10.493  12.396  63.831  1.00  0.00    -0.439 C  
ENDBRANCH   7   9
ENDBRANCH   2   7
TORSDOF 4
ENDMDL
MODEL       45
REMARK 921   NORMALIZED FREE ENERGY PREDICTED BY IDOCK:   -3.28 KCAL/MOL
REMARK 922        TOTAL FREE ENERGY PREDICTED BY IDOCK:   -4.15 KCAL/MOL
REMARK 923 INTER-LIGAND FREE ENERGY PREDICTED BY IDOCK:   -4.04 KCAL/MOL
REMARK 924 INTRA-LIGAND FREE ENERGY PREDICTED BY IDOCK:   -0.11 KCAL/MOL
REMARK 927      BINDING AFFINITY PREDICTED BY RF-SCORE:    0.00 PKD
ROOT
HETATM    1  C   UNL     1     -11.833  14.257  66.879  1.00  0.00    -0.458 C  
HETATM    2  C   UNL     1     -11.885  13.554  68.019  1.00  0.00    -0.400 C  
ENDROOT
BRANCH   1   3
HETATM    3  C   UNL     1     -12.155  13.614  65.594  1.00  0.00    -0.425 C  
HETATM    4  O   UNL     1     -12.477  12.447  65.455  1.00  0.00    -0.643 OA 
BRANCH   3   5
HETATM    5  O   UNL     1     -12.029  14.547  64.619  1.00  0.00    -0.425 OA 
HETATM    6  C   UNL     1     -11.115  15.598  64.932  1.00  0.00    -0.402 C  
ENDBRANCH   3   5
ENDBRANCH   1   3
BRANCH   2   7
HETATM    7  C   UNL     1     -11.554  14.239  69.280  1.00  0.00    -0.306 C  
HETATM    8  O   UNL     1     -10.603  14.987  69.435  1.00  0.00    -0.241 OA 
BRANCH   7   9
HETATM    9  O   UNL     1     -12.473  13.898  70.216  1.00  0.00    -0.335 OA 
HETATM   10  C   UNL     1     -12.924  15.005  70.998  1.00  0.00    -0.404 C  
ENDBRANCH   7   9
ENDBRANCH   2   7
TORSDOF 4
ENDMDL
MODEL       46
REMARK 921   NORMALIZED FREE ENERGY PREDICTED BY IDOCK:   -3.26 KCAL/MOL
REMARK 922        TOTAL FREE ENERGY PREDICTED BY IDOCK:   -4.13 KCAL/MOL
REMARK 923 INTER-LIGAND FREE ENERGY PREDICTED BY IDOCK:   -4.02 KCAL/MOL
REMARK 924 INTRA-LIGAND FREE ENERGY PREDICTED BY IDOCK:   -0.10 KCAL/MOL
REMARK 927      BINDING AFFINITY PREDICTED BY RF-SCORE:    0.00 PKD
ROOT
HETATM    1  C   UNL     1     -12.136  13.874  68.730  1.00  0.00    -0.344 C  
HETATM    2  C   UNL     1     -12.007  14.881  69.605  1.00  0.00    -0.360 C  
ENDROOT
BRANCH   1   3
HETATM    3  C   UNL     1     -11.327  13.851  67.500  1.00  0.00    -0.318 C  
HETATM    4  O   UNL     1     -10.125  13.655  67.454  1.00  0.00    -0.236 OA 
BRANCH   3   5
HETATM    5  O   UNL     1     -12.156  14.083  66.452  1.00  0.00    -0.416 OA 
HETATM    6  C   UNL     1     -12.259  12.992  65.537  1.00  0.00    -0.469 C  
ENDBRANCH   3   5
ENDBRANCH   1   3
BRANCH   2   7
HETATM    7  C   UNL     1     -12.836  14.863  70.821  1.00  0.00    -0.372 C  
HETATM    8  O   UNL     1     -13.671  15.706  71.106  1.00  0.00    -0.591 OA 
BRANCH   7   9
HETATM    9  O   UNL     1     -12.515  13.767  71.552  1.00  0.00    -0.337 OA 
HETATM   10  C   UNL     1     -13.634  13.185  72.224  1.00  0.00    -0.581 C  
ENDBRANCH   7   9
ENDBRANCH   2   7
TORSDOF 4
ENDMDL
MODEL       47
REMARK 921   NORMALIZED FREE ENERGY PREDICTED BY IDOCK:   -3.26 KCAL/MOL
REMARK 922        TOTAL FREE ENERGY PREDICTED BY IDOCK:   -4.12 KCAL/MOL
REMARK 923 INTER-LIGAND FREE ENERGY PREDICTED BY IDOCK:   -4.03 KCAL/MOL
REMARK 924 INTRA-LIGAND FREE ENERGY PREDICTED BY IDOCK:   -0.10 KCAL/MOL
REMARK 927      BINDING AFFINITY PREDICTED BY RF-SCORE:    0.00 PKD
ROOT
HETATM    1  C   UNL     1     -12.661  13.202  70.714  1.00  0.00    -0.338 C  
HETATM    2  C   UNL     1     -12.023  13.713  69.651  1.00  0.00    -0.402 C  
ENDROOT
BRANCH   1   3
HETATM    3  C   UNL     1     -13.225  14.093  71.741  1.00  0.00    -0.373 C  
HETATM    4  O   UNL     1     -13.845  13.725  72.723  1.00  0.00    -0.716 OA 
BRANCH   3   5
HETATM    5  O   UNL     1     -12.929  15.369  71.393  1.00  0.00    -0.391 OA 
HETATM    6  C   UNL     1     -12.250  16.108  72.408  1.00  0.00    -0.507 C  
ENDBRANCH   3   5
ENDBRANCH   1   3
BRANCH   2   7
HETATM    7  C   UNL     1     -11.475  12.784  68.649  1.00  0.00    -0.303 C  
HETATM    8  O   UNL     1     -12.078  11.831  68.181  1.00  0.00    -0.556 OA 
BRANCH   7   9
HETATM    9  O   UNL     1     -10.211  13.165  68.345  1.00  0.00    -0.243 OA 
HETATM   10  C   UNL     1      -9.362  12.076  67.979  1.00  0.00    -0.196 C  
ENDBRANCH   7   9
ENDBRANCH   2   7
TORSDOF 4
ENDMDL
MODEL       48
REMARK 921   NORMALIZED FREE ENERGY PREDICTED BY IDOCK:   -3.25 KCAL/MOL
REMARK 922        TOTAL FREE ENERGY PREDICTED BY IDOCK:   -4.11 KCAL/MOL
REMARK 923 INTER-LIGAND FREE ENERGY PREDICTED BY IDOCK:   -4.00 KCAL/MOL
REMARK 924 INTRA-LIGAND FREE ENERGY PREDICTED BY IDOCK:   -0.11 KCAL/MOL
REMARK 927      BINDING AFFINITY PREDICTED BY RF-SCORE:    0.00 PKD
ROOT
HETATM    1  C   UNL     1     -11.636  11.241  70.035  1.00  0.00    -0.404 C  
HETATM    2  C   UNL     1     -12.642  10.559  70.600  1.00  0.00    -0.457 C  
ENDROOT
BRANCH   1   3
HETATM    3  C   UNL     1     -11.907  12.206  68.957  1.00  0.00    -0.306 C  
HETATM    4  O   UNL     1     -11.993  13.413  69.102  1.00  0.00    -0.317 OA 
BRANCH   3   5
HETATM    5  O   UNL     1     -12.038  11.512  67.800  1.00  0.00    -0.626 OA 
HETATM    6  C   UNL     1     -11.536  12.195  66.650  1.00  0.00    -0.365 C  
ENDBRANCH   3   5
ENDBRANCH   1   3
BRANCH   2   7
HETATM    7  C   UNL     1     -12.324   9.604  71.675  1.00  0.00    -0.404 C  
HETATM    8  O   UNL     1     -13.149   9.091  72.414  1.00  0.00    -0.412 OA 
BRANCH   7   9
HETATM    9  O   UNL     1     -10.985   9.400  71.697  1.00  0.00    -0.369 OA 
HETATM   10  C   UNL     1     -10.599   8.236  72.430  1.00  0.00    -0.337 C  
ENDBRANCH   7   9
ENDBRANCH   2   7
TORSDOF 4
ENDMDL
MODEL       49
REMARK 921   NORMALIZED FREE ENERGY PREDICTED BY IDOCK:   -3.24 KCAL/MOL
REMARK 922        TOTAL FREE ENERGY PREDICTED BY IDOCK:   -4.10 KCAL/MOL
REMARK 923 INTER-LIGAND FREE ENERGY PREDICTED BY IDOCK:   -4.00 KCAL/MOL
REMARK 924 INTRA-LIGAND FREE ENERGY PREDICTED BY IDOCK:   -0.10 KCAL/MOL
REMARK 927      BINDING AFFINITY PREDICTED BY RF-SCORE:    0.00 PKD
ROOT
HETATM    1  C   UNL     1     -11.928  10.074  71.150  1.00  0.00    -0.484 C  
HETATM    2  C   UNL     1     -11.372  10.387  69.972  1.00  0.00    -0.384 C  
ENDROOT
BRANCH   1   3
HETATM    3  C   UNL     1     -11.450   8.907  71.911  1.00  0.00    -0.372 C  
HETATM    4  O   UNL     1     -10.282   8.653  72.144  1.00  0.00    -0.306 OA 
BRANCH   3   5
HETATM    5  O   UNL     1     -12.534   8.187  72.292  1.00  0.00    -0.329 OA 
HETATM    6  C   UNL     1     -13.754   8.929  72.297  1.00  0.00    -0.471 C  
ENDBRANCH   3   5
ENDBRANCH   1   3
BRANCH   2   7
HETATM    7  C   UNL     1     -11.881  11.562  69.246  1.00  0.00    -0.348 C  
HETATM    8  O   UNL     1     -12.121  11.591  68.050  1.00  0.00    -0.617 OA 
BRANCH   7   9
HETATM    9  O   UNL     1     -12.034  12.584  70.123  1.00  0.00    -0.347 OA 
HETATM   10  C   UNL     1     -12.025  13.871  69.502  1.00  0.00    -0.343 C  
ENDBRANCH   7   9
ENDBRANCH   2   7
TORSDOF 4
ENDMDL
MODEL       50
REMARK 921   NORMALIZED FREE ENERGY PREDICTED BY IDOCK:   -3.24 KCAL/MOL
REMARK 922        TOTAL FREE ENERGY PREDICTED BY IDOCK:   -4.10 KCAL/MOL
REMARK 923 INTER-LIGAND FREE ENERGY PREDICTED BY IDOCK:   -4.00 KCAL/MOL
REMARK 924 INTRA-LIGAND FREE ENERGY PREDICTED BY IDOCK:   -0.10 KCAL/MOL
REMARK 927      BINDING AFFINITY PREDICTED BY RF-SCORE:    0.00 PKD
ROOT
HETATM    1  C   UNL     1     -11.762   9.322  71.542  1.00  0.00    -0.450 C  
HETATM    2  C   UNL     1     -12.851  10.072  71.760  1.00  0.00    -0.546 C  
ENDROOT
BRANCH   1   3
HETATM    3  C   UNL     1     -11.726   7.917  71.981  1.00  0.00    -0.311 C  
HETATM    4  O   UNL     1     -11.163   7.509  72.981  1.00  0.00    -0.361 OA 
BRANCH   3   5
HETATM    5  O   UNL     1     -12.423   7.183  71.080  1.00  0.00    -0.357 OA 
HETATM    6  C   UNL     1     -11.638   6.701  69.988  1.00  0.00    -0.362 C  
ENDBRANCH   3   5
ENDBRANCH   1   3
BRANCH   2   7
HETATM    7  C   UNL     1     -12.842  11.472  71.304  1.00  0.00    -0.360 C  
HETATM    8  O   UNL     1     -12.324  11.862  70.270  1.00  0.00    -0.274 OA 
BRANCH   7   9
HETATM    9  O   UNL     1     -13.495  12.233  72.216  1.00  0.00    -0.520 OA 
HETATM   10  C   UNL     1     -13.348  13.637  71.993  1.00  0.00    -0.459 C  
ENDBRANCH   7   9
ENDBRANCH   2   7
TORSDOF 4
ENDMDL
MODEL       51
REMARK 921   NORMALIZED FREE ENERGY PREDICTED BY IDOCK:   -3.23 KCAL/MOL
REMARK 922        TOTAL FREE ENERGY PREDICTED BY IDOCK:   -4.09 KCAL/MOL
REMARK 923 INTER-LIGAND FREE ENERGY PREDICTED BY IDOCK:   -3.96 KCAL/MOL
REMARK 924 INTRA-LIGAND FREE ENERGY PREDICTED BY IDOCK:   -0.13 KCAL/MOL
REMARK 927      BINDING AFFINITY PREDICTED BY RF-SCORE:    0.00 PKD
ROOT
HETATM    1  C   UNL     1     -11.512  13.067  66.172  1.00  0.00    -0.381 C  
HETATM    2  C   UNL     1     -11.643  12.170  67.159  1.00  0.00    -0.405 C  
ENDROOT
BRANCH   1   3
HETATM    3  C   UNL     1     -12.662  13.407  65.319  1.00  0.00    -0.422 C  
HETATM    4  O   UNL     1     -13.158  14.516  65.221  1.00  0.00    -0.524 OA 
BRANCH   3   5
HETATM    5  O   UNL     1     -13.054  12.278  64.678  1.00  0.00    -0.770 OA 
HETATM    6  C   UNL     1     -12.399  12.060  63.429  1.00  0.00    -0.523 C  
ENDBRANCH   3   5
ENDBRANCH   1   3
BRANCH   2   7
HETATM    7  C   UNL     1     -10.466  11.861  67.987  1.00  0.00    -0.208 C  
HETATM    8  O   UNL     1      -9.385  12.418  67.893  1.00  0.00    -0.182 OA 
BRANCH   7   9
HETATM    9  O   UNL     1     -10.789  10.869  68.853  1.00  0.00    -0.189 OA 
HETATM   10  C   UNL     1     -12.006  11.109  69.562  1.00  0.00    -0.355 C  
ENDBRANCH   7   9
ENDBRANCH   2   7
TORSDOF 4
ENDMDL
MODEL       52
REMARK 921   NORMALIZED FREE ENERGY PREDICTED BY IDOCK:   -3.23 KCAL/MOL
REMARK 922        TOTAL FREE ENERGY PREDICTED BY IDOCK:   -4.08 KCAL/MOL
REMARK 923 INTER-LIGAND FREE ENERGY PREDICTED BY IDOCK:   -4.00 KCAL/MOL
REMARK 924 INTRA-LIGAND FREE ENERGY PREDICTED BY IDOCK:   -0.09 KCAL/MOL
REMARK 927      BINDING AFFINITY PREDICTED BY RF-SCORE:    0.00 PKD
ROOT
HETATM    1  C   UNL     1     -12.279  11.013  70.371  1.00  0.00    -0.461 C  
HETATM    2  C   UNL     1     -11.788  12.125  69.807  1.00  0.00    -0.397 C  
ENDROOT
BRANCH   1   3
HETATM    3  C   UNL     1     -12.963  11.079  71.673  1.00  0.00    -0.456 C  
HETATM    4  O   UNL     1     -13.504  12.070  72.131  1.00  0.00    -0.476 OA 
BRANCH   3   5
HETATM    5  O   UNL     1     -12.878   9.855  72.251  1.00  0.00    -0.360 OA 
HETATM    6  C   UNL     1     -13.901   8.946  71.844  1.00  0.00    -0.440 C  
ENDBRANCH   3   5
ENDBRANCH   1   3
BRANCH   2   7
HETATM    7  C   UNL     1     -11.112  12.011  68.504  1.00  0.00    -0.244 C  
HETATM    8  O   UNL     1      -9.903  12.047  68.344  1.00  0.00    -0.207 OA 
BRANCH   7   9
HETATM    9  O   UNL     1     -12.049  11.861  67.537  1.00  0.00    -0.573 OA 
HETATM   10  C   UNL     1     -11.594  12.252  66.240  1.00  0.00    -0.385 C  
ENDBRANCH   7   9
ENDBRANCH   2   7
TORSDOF 4
ENDMDL
MODEL       53
REMARK 921   NORMALIZED FREE ENERGY PREDICTED BY IDOCK:   -3.22 KCAL/MOL
REMARK 922        TOTAL FREE ENERGY PREDICTED BY IDOCK:   -4.07 KCAL/MOL
REMARK 923 INTER-LIGAND FREE ENERGY PREDICTED BY IDOCK:   -3.94 KCAL/MOL
REMARK 924 INTRA-LIGAND FREE ENERGY PREDICTED BY IDOCK:   -0.13 KCAL/MOL
REMARK 927      BINDING AFFINITY PREDICTED BY RF-SCORE:    0.00 PKD
ROOT
HETATM    1  C   UNL     1     -12.746   9.741  71.906  1.00  0.00    -0.501 C  
HETATM    2  C   UNL     1     -11.618   9.036  71.745  1.00  0.00    -0.444 C  
ENDROOT
BRANCH   1   3
HETATM    3  C   UNL     1     -12.869  11.089  71.327  1.00  0.00    -0.425 C  
HETATM    4  O   UNL     1     -13.283  12.071  71.919  1.00  0.00    -0.480 OA 
BRANCH   3   5
HETATM    5  O   UNL     1     -12.444  11.031  70.041  1.00  0.00    -0.305 OA 
HETATM    6  C   UNL     1     -11.686  12.167  69.625  1.00  0.00    -0.325 C  
ENDBRANCH   3   5
ENDBRANCH   1   3
BRANCH   2   7
HETATM    7  C   UNL     1     -11.540   7.692  72.341  1.00  0.00    -0.336 C  
HETATM    8  O   UNL     1     -10.960   7.426  73.381  1.00  0.00    -0.378 OA 
BRANCH   7   9
HETATM    9  O   UNL     1     -12.212   6.822  71.547  1.00  0.00    -0.338 OA 
HETATM   10  C   UNL     1     -11.503   6.476  70.356  1.00  0.00    -0.404 C  
ENDBRANCH   7   9
ENDBRANCH   2   7
TORSDOF 4
ENDMDL
MODEL       54
REMARK 921   NORMALIZED FREE ENERGY PREDICTED BY IDOCK:   -3.19 KCAL/MOL
REMARK 922        TOTAL FREE ENERGY PREDICTED BY IDOCK:   -4.04 KCAL/MOL
REMARK 923 INTER-LIGAND FREE ENERGY PREDICTED BY IDOCK:   -3.97 KCAL/MOL
REMARK 924 INTRA-LIGAND FREE ENERGY PREDICTED BY IDOCK:   -0.07 KCAL/MOL
REMARK 927      BINDING AFFINITY PREDICTED BY RF-SCORE:    0.00 PKD
ROOT
HETATM    1  C   UNL     1     -12.221  12.369  70.372  1.00  0.00    -0.370 C  
HETATM    2  C   UNL     1     -12.036  11.846  69.152  1.00  0.00    -0.336 C  
ENDROOT
BRANCH   1   3
HETATM    3  C   UNL     1     -12.676  11.519  71.484  1.00  0.00    -0.334 C  
HETATM    4  O   UNL     1     -12.330  10.366  71.672  1.00  0.00    -0.370 OA 
BRANCH   3   5
HETATM    5  O   UNL     1     -13.532  12.247  72.242  1.00  0.00    -0.520 OA 
HETATM    6  C   UNL     1     -13.638  13.616  71.850  1.00  0.00    -0.427 C  
ENDBRANCH   3   5
ENDBRANCH   1   3
BRANCH   2   7
HETATM    7  C   UNL     1     -11.580  12.734  68.070  1.00  0.00    -0.341 C  
HETATM    8  O   UNL     1     -10.949  13.765  68.237  1.00  0.00    -0.235 OA 
BRANCH   7   9
HETATM    9  O   UNL     1     -11.977  12.215  66.882  1.00  0.00    -0.603 OA 
HETATM   10  C   UNL     1     -12.226  13.207  65.884  1.00  0.00    -0.436 C  
ENDBRANCH   7   9
ENDBRANCH   2   7
TORSDOF 4
ENDMDL
MODEL       55
REMARK 921   NORMALIZED FREE ENERGY PREDICTED BY IDOCK:   -3.18 KCAL/MOL
REMARK 922        TOTAL FREE ENERGY PREDICTED BY IDOCK:   -4.03 KCAL/MOL
REMARK 923 INTER-LIGAND FREE ENERGY PREDICTED BY IDOCK:   -3.92 KCAL/MOL
REMARK 924 INTRA-LIGAND FREE ENERGY PREDICTED BY IDOCK:   -0.11 KCAL/MOL
REMARK 927      BINDING AFFINITY PREDICTED BY RF-SCORE:    0.00 PKD
ROOT
HETATM    1  C   UNL     1     -12.158  11.292  69.640  1.00  0.00    -0.391 C  
HETATM    2  C   UNL     1     -11.423  10.355  70.255  1.00  0.00    -0.406 C  
ENDROOT
BRANCH   1   3
HETATM    3  C   UNL     1     -11.560  12.139  68.595  1.00  0.00    -0.321 C  
HETATM    4  O   UNL     1     -10.795  13.065  68.797  1.00  0.00    -0.250 OA 
BRANCH   3   5
HETATM    5  O   UNL     1     -12.014  11.702  67.395  1.00  0.00    -0.621 OA 
HETATM    6  C   UNL     1     -11.849  12.641  66.332  1.00  0.00    -0.402 C  
ENDBRANCH   3   5
ENDBRANCH   1   3
BRANCH   2   7
HETATM    7  C   UNL     1     -12.063   9.531  71.294  1.00  0.00    -0.360 C  
HETATM    8  O   UNL     1     -11.462   8.881  72.133  1.00  0.00    -0.362 OA 
BRANCH   7   9
HETATM    9  O   UNL     1     -13.408   9.621  71.155  1.00  0.00    -0.360 OA 
HETATM   10  C   UNL     1     -14.119   8.578  71.825  1.00  0.00    -0.444 C  
ENDBRANCH   7   9
ENDBRANCH   2   7
TORSDOF 4
ENDMDL
MODEL       56
REMARK 921   NORMALIZED FREE ENERGY PREDICTED BY IDOCK:   -3.17 KCAL/MOL
REMARK 922        TOTAL FREE ENERGY PREDICTED BY IDOCK:   -4.01 KCAL/MOL
REMARK 923 INTER-LIGAND FREE ENERGY PREDICTED BY IDOCK:   -3.91 KCAL/MOL
REMARK 924 INTRA-LIGAND FREE ENERGY PREDICTED BY IDOCK:   -0.11 KCAL/MOL
REMARK 927      BINDING AFFINITY PREDICTED BY RF-SCORE:    0.00 PKD
ROOT
HETATM    1  C   UNL     1     -11.892  11.688  68.751  1.00  0.00    -0.387 C  
HETATM    2  C   UNL     1     -11.892  12.981  68.401  1.00  0.00    -0.370 C  
ENDROOT
BRANCH   1   3
HETATM    3  C   UNL     1     -11.953  11.302  70.171  1.00  0.00    -0.369 C  
HETATM    4  O   UNL     1     -12.373  12.008  71.071  1.00  0.00    -0.346 OA 
BRANCH   3   5
HETATM    5  O   UNL     1     -11.465  10.043  70.282  1.00  0.00    -0.265 OA 
HETATM    6  C   UNL     1     -11.520   9.510  71.605  1.00  0.00    -0.363 C  
ENDBRANCH   3   5
ENDBRANCH   1   3
BRANCH   2   7
HETATM    7  C   UNL     1     -11.830  13.319  66.969  1.00  0.00    -0.390 C  
HETATM    8  O   UNL     1     -11.462  14.395  66.525  1.00  0.00    -0.341 OA 
BRANCH   7   9
HETATM    9  O   UNL     1     -12.244  12.248  66.249  1.00  0.00    -0.628 OA 
HETATM   10  C   UNL     1     -12.439  12.537  64.863  1.00  0.00    -0.450 C  
ENDBRANCH   7   9
ENDBRANCH   2   7
TORSDOF 4
ENDMDL
MODEL       57
REMARK 921   NORMALIZED FREE ENERGY PREDICTED BY IDOCK:   -3.17 KCAL/MOL
REMARK 922        TOTAL FREE ENERGY PREDICTED BY IDOCK:   -4.01 KCAL/MOL
REMARK 923 INTER-LIGAND FREE ENERGY PREDICTED BY IDOCK:   -3.93 KCAL/MOL
REMARK 924 INTRA-LIGAND FREE ENERGY PREDICTED BY IDOCK:   -0.09 KCAL/MOL
REMARK 927      BINDING AFFINITY PREDICTED BY RF-SCORE:    0.00 PKD
ROOT
HETATM    1  C   UNL     1     -11.515  10.403  70.351  1.00  0.00    -0.420 C  
HETATM    2  C   UNL     1     -12.077  11.586  70.067  1.00  0.00    -0.408 C  
ENDROOT
BRANCH   1   3
HETATM    3  C   UNL     1     -11.919   9.659  71.555  1.00  0.00    -0.406 C  
HETATM    4  O   UNL     1     -13.025   9.696  72.064  1.00  0.00    -0.392 OA 
BRANCH   3   5
HETATM    5  O   UNL     1     -10.850   8.942  71.979  1.00  0.00    -0.349 OA 
HETATM    6  C   UNL     1     -11.187   7.818  72.793  1.00  0.00    -0.398 C  
ENDBRANCH   3   5
ENDBRANCH   1   3
BRANCH   2   7
HETATM    7  C   UNL     1     -11.642  12.295  68.851  1.00  0.00    -0.316 C  
HETATM    8  O   UNL     1     -11.059  13.367  68.843  1.00  0.00    -0.253 OA 
BRANCH   7   9
HETATM    9  O   UNL     1     -11.995  11.561  67.768  1.00  0.00    -0.623 OA 
HETATM   10  C   UNL     1     -11.587  12.146  66.529  1.00  0.00    -0.359 C  
ENDBRANCH   7   9
ENDBRANCH   2   7
TORSDOF 4
ENDMDL
MODEL       58
REMARK 921   NORMALIZED FREE ENERGY PREDICTED BY IDOCK:   -3.17 KCAL/MOL
REMARK 922        TOTAL FREE ENERGY PREDICTED BY IDOCK:   -4.01 KCAL/MOL
REMARK 923 INTER-LIGAND FREE ENERGY PREDICTED BY IDOCK:   -3.91 KCAL/MOL
REMARK 924 INTRA-LIGAND FREE ENERGY PREDICTED BY IDOCK:   -0.10 KCAL/MOL
REMARK 927      BINDING AFFINITY PREDICTED BY RF-SCORE:    0.00 PKD
ROOT
HETATM    1  C   UNL     1     -10.850  11.360  65.051  1.00  0.00    -0.311 C  
HETATM    2  C   UNL     1     -11.414  12.567  64.901  1.00  0.00    -0.367 C  
ENDROOT
BRANCH   1   3
HETATM    3  C   UNL     1      -9.896  11.116  66.146  1.00  0.00    -0.225 C  
HETATM    4  O   UNL     1      -8.926  11.808  66.398  1.00  0.00    -0.206 OA 
BRANCH   3   5
HETATM    5  O   UNL     1     -10.296  10.001  66.805  1.00  0.00    -0.225 OA 
HETATM    6  C   UNL     1      -9.775   8.786  66.265  1.00  0.00    -0.272 C  
ENDBRANCH   3   5
ENDBRANCH   1   3
BRANCH   2   7
HETATM    7  C   UNL     1     -12.362  12.765  63.793  1.00  0.00    -0.446 C  
HETATM    8  O   UNL     1     -12.808  11.870  63.093  1.00  0.00    -0.636 OA 
BRANCH   7   9
HETATM    9  O   UNL     1     -12.644  14.086  63.690  1.00  0.00    -0.818 OA 
HETATM   10  C   UNL     1     -11.946  14.892  64.642  1.00  0.00    -0.401 C  
ENDBRANCH   7   9
ENDBRANCH   2   7
TORSDOF 4
ENDMDL
MODEL       59
REMARK 921   NORMALIZED FREE ENERGY PREDICTED BY IDOCK:   -3.16 KCAL/MOL
REMARK 922        TOTAL FREE ENERGY PREDICTED BY IDOCK:   -4.00 KCAL/MOL
REMARK 923 INTER-LIGAND FREE ENERGY PREDICTED BY IDOCK:   -3.90 KCAL/MOL
REMARK 924 INTRA-LIGAND FREE ENERGY PREDICTED BY IDOCK:   -0.10 KCAL/MOL
REMARK 927      BINDING AFFINITY PREDICTED BY RF-SCORE:    0.00 PKD
ROOT
HETATM    1  C   UNL     1     -11.980  11.024  69.002  1.00  0.00    -0.364 C  
HETATM    2  C   UNL     1     -11.758  12.316  68.726  1.00  0.00    -0.390 C  
ENDROOT
BRANCH   1   3
HETATM    3  C   UNL     1     -11.843  10.523  70.379  1.00  0.00    -0.340 C  
HETATM    4  O   UNL     1     -10.843   9.999  70.839  1.00  0.00    -0.319 OA 
BRANCH   3   5
HETATM    5  O   UNL     1     -13.014  10.752  71.023  1.00  0.00    -0.360 OA 
HETATM    6  C   UNL     1     -13.370   9.738  71.964  1.00  0.00    -0.451 C  
ENDBRANCH   3   5
ENDBRANCH   1   3
BRANCH   2   7
HETATM    7  C   UNL     1     -11.907  12.772  67.334  1.00  0.00    -0.342 C  
HETATM    8  O   UNL     1     -11.970  12.034  66.364  1.00  0.00    -0.611 OA 
BRANCH   7   9
HETATM    9  O   UNL     1     -11.960  14.126  67.321  1.00  0.00    -0.397 OA 
HETATM   10  C   UNL     1     -11.664  14.718  68.587  1.00  0.00    -0.325 C  
ENDBRANCH   7   9
ENDBRANCH   2   7
TORSDOF 4
ENDMDL
MODEL       60
REMARK 921   NORMALIZED FREE ENERGY PREDICTED BY IDOCK:   -3.15 KCAL/MOL
REMARK 922        TOTAL FREE ENERGY PREDICTED BY IDOCK:   -3.99 KCAL/MOL
REMARK 923 INTER-LIGAND FREE ENERGY PREDICTED BY IDOCK:   -3.87 KCAL/MOL
REMARK 924 INTRA-LIGAND FREE ENERGY PREDICTED BY IDOCK:   -0.12 KCAL/MOL
REMARK 927      BINDING AFFINITY PREDICTED BY RF-SCORE:    0.00 PKD
ROOT
HETATM    1  C   UNL     1     -12.396   8.421  71.594  1.00  0.00    -0.359 C  
HETATM    2  C   UNL     1     -12.475   7.088  71.479  1.00  0.00    -0.426 C  
ENDROOT
BRANCH   1   3
HETATM    3  C   UNL     1     -13.434   9.167  72.324  1.00  0.00    -0.486 C  
HETATM    4  O   UNL     1     -14.355   8.663  72.941  1.00  0.00    -0.474 OA 
BRANCH   3   5
HETATM    5  O   UNL     1     -13.174  10.489  72.181  1.00  0.00    -0.458 OA 
HETATM    6  C   UNL     1     -12.464  10.818  70.987  1.00  0.00    -0.420 C  
ENDBRANCH   3   5
ENDBRANCH   1   3
BRANCH   2   7
HETATM    7  C   UNL     1     -11.413   6.384  70.740  1.00  0.00    -0.353 C  
HETATM    8  O   UNL     1     -11.435   6.156  69.541  1.00  0.00    -0.429 OA 
BRANCH   7   9
HETATM    9  O   UNL     1     -10.430   6.041  71.607  1.00  0.00    -0.214 OA 
HETATM   10  C   UNL     1     -10.861   5.134  72.624  1.00  0.00    -0.247 C  
ENDBRANCH   7   9
ENDBRANCH   2   7
TORSDOF 4
ENDMDL
MODEL       61
REMARK 921   NORMALIZED FREE ENERGY PREDICTED BY IDOCK:   -3.13 KCAL/MOL
REMARK 922        TOTAL FREE ENERGY PREDICTED BY IDOCK:   -3.97 KCAL/MOL
REMARK 923 INTER-LIGAND FREE ENERGY PREDICTED BY IDOCK:   -3.84 KCAL/MOL
REMARK 924 INTRA-LIGAND FREE ENERGY PREDICTED BY IDOCK:   -0.13 KCAL/MOL
REMARK 927      BINDING AFFINITY PREDICTED BY RF-SCORE:    0.00 PKD
ROOT
HETATM    1  C   UNL     1     -11.630  12.224  65.901  1.00  0.00    -0.450 C  
HETATM    2  C   UNL     1     -11.658  12.009  67.224  1.00  0.00    -0.383 C  
ENDROOT
BRANCH   1   3
HETATM    3  C   UNL     1     -12.635  13.093  65.267  1.00  0.00    -0.472 C  
HETATM    4  O   UNL     1     -13.066  14.128  65.743  1.00  0.00    -0.512 OA 
BRANCH   3   5
HETATM    5  O   UNL     1     -12.981  12.533  64.082  1.00  0.00    -0.740 OA 
HETATM    6  C   UNL     1     -11.891  11.941  63.376  1.00  0.00    -0.413 C  
ENDBRANCH   3   5
ENDBRANCH   1   3
BRANCH   2   7
HETATM    7  C   UNL     1     -10.633  11.133  67.814  1.00  0.00    -0.209 C  
HETATM    8  O   UNL     1     -10.417  11.024  69.010  1.00  0.00    -0.204 OA 
BRANCH   7   9
HETATM    9  O   UNL     1      -9.986  10.484  66.816  1.00  0.00    -0.189 OA 
HETATM   10  C   UNL     1     -10.069   9.061  66.917  1.00  0.00    -0.267 C  
ENDBRANCH   7   9
ENDBRANCH   2   7
TORSDOF 4
ENDMDL
MODEL       62
REMARK 921   NORMALIZED FREE ENERGY PREDICTED BY IDOCK:   -3.12 KCAL/MOL
REMARK 922        TOTAL FREE ENERGY PREDICTED BY IDOCK:   -3.96 KCAL/MOL
REMARK 923 INTER-LIGAND FREE ENERGY PREDICTED BY IDOCK:   -3.84 KCAL/MOL
REMARK 924 INTRA-LIGAND FREE ENERGY PREDICTED BY IDOCK:   -0.12 KCAL/MOL
REMARK 927      BINDING AFFINITY PREDICTED BY RF-SCORE:    0.00 PKD
ROOT
HETATM    1  C   UNL     1     -11.434  12.232  64.907  1.00  0.00    -0.382 C  
HETATM    2  C   UNL     1     -10.382  11.777  64.213  1.00  0.00    -0.359 C  
ENDROOT
BRANCH   1   3
HETATM    3  C   UNL     1     -12.258  13.329  64.374  1.00  0.00    -0.390 C  
HETATM    4  O   UNL     1     -12.356  13.623  63.196  1.00  0.00    -0.729 OA 
BRANCH   3   5
HETATM    5  O   UNL     1     -12.872  13.934  65.420  1.00  0.00    -0.662 OA 
HETATM    6  C   UNL     1     -12.132  13.884  66.640  1.00  0.00    -0.448 C  
ENDBRANCH   3   5
ENDBRANCH   1   3
BRANCH   2   7
HETATM    7  C   UNL     1      -9.586  10.678  64.785  1.00  0.00    -0.280 C  
HETATM    8  O   UNL     1      -8.419  10.450  64.511  1.00  0.00    -0.174 OA 
BRANCH   7   9
HETATM    9  O   UNL     1     -10.362   9.982  65.651  1.00  0.00    -0.233 OA 
HETATM   10  C   UNL     1      -9.670   9.578  66.834  1.00  0.00    -0.182 C  
ENDBRANCH   7   9
ENDBRANCH   2   7
TORSDOF 4
ENDMDL
MODEL       63
REMARK 921   NORMALIZED FREE ENERGY PREDICTED BY IDOCK:   -3.12 KCAL/MOL
REMARK 922        TOTAL FREE ENERGY PREDICTED BY IDOCK:   -3.95 KCAL/MOL
REMARK 923 INTER-LIGAND FREE ENERGY PREDICTED BY IDOCK:   -3.85 KCAL/MOL
REMARK 924 INTRA-LIGAND FREE ENERGY PREDICTED BY IDOCK:   -0.10 KCAL/MOL
REMARK 927      BINDING AFFINITY PREDICTED BY RF-SCORE:    0.00 PKD
ROOT
HETATM    1  C   UNL     1      -9.082  17.968  66.629  1.00  0.00    -0.290 C  
HETATM    2  C   UNL     1     -10.332  17.860  66.157  1.00  0.00    -0.352 C  
ENDROOT
BRANCH   1   3
HETATM    3  C   UNL     1      -8.773  18.928  67.701  1.00  0.00    -0.288 C  
HETATM    4  O   UNL     1      -9.600  19.543  68.352  1.00  0.00    -0.350 OA 
BRANCH   3   5
HETATM    5  O   UNL     1      -7.425  18.995  67.824  1.00  0.00    -0.241 OA 
HETATM    6  C   UNL     1      -6.969  20.027  68.698  1.00  0.00    -0.284 C  
ENDBRANCH   3   5
ENDBRANCH   1   3
BRANCH   2   7
HETATM    7  C   UNL     1     -10.595  16.887  65.084  1.00  0.00    -0.069 C  
HETATM    8  O   UNL     1     -11.349  17.076  64.144  1.00  0.00    -1.164 OA 
BRANCH   7   9
HETATM    9  O   UNL     1      -9.866  15.769  65.320  1.00  0.00    -0.375 OA 
HETATM   10  C   UNL     1     -10.587  14.559  65.076  1.00  0.00    -0.437 C  
ENDBRANCH   7   9
ENDBRANCH   2   7
TORSDOF 4
ENDMDL
MODEL       64
REMARK 921   NORMALIZED FREE ENERGY PREDICTED BY IDOCK:   -3.10 KCAL/MOL
REMARK 922        TOTAL FREE ENERGY PREDICTED BY IDOCK:   -3.93 KCAL/MOL
REMARK 923 INTER-LIGAND FREE ENERGY PREDICTED BY IDOCK:   -3.82 KCAL/MOL
REMARK 924 INTRA-LIGAND FREE ENERGY PREDICTED BY IDOCK:   -0.11 KCAL/MOL
REMARK 927      BINDING AFFINITY PREDICTED BY RF-SCORE:    0.00 PKD
ROOT
HETATM    1  C   UNL     1      -8.486  20.238  67.214  1.00  0.00    -0.415 C  
HETATM    2  C   UNL     1      -8.973  19.392  66.296  1.00  0.00    -0.374 C  
ENDROOT
BRANCH   1   3
HETATM    3  C   UNL     1      -7.085  20.686  67.144  1.00  0.00    -0.331 C  
HETATM    4  O   UNL     1      -6.462  20.878  66.115  1.00  0.00    -0.248 OA 
BRANCH   3   5
HETATM    5  O   UNL     1      -6.633  20.839  68.413  1.00  0.00    -0.275 OA 
HETATM    6  C   UNL     1      -6.588  19.627  69.166  1.00  0.00    -0.334 C  
ENDBRANCH   3   5
ENDBRANCH   1   3
BRANCH   2   7
HETATM    7  C   UNL     1     -10.380  18.972  66.406  1.00  0.00    -0.448 C  
HETATM    8  O   UNL     1     -11.157  19.365  67.261  1.00  0.00    -0.458 OA 
BRANCH   7   9
HETATM    9  O   UNL     1     -10.652  18.092  65.412  1.00  0.00    -0.648 OA 
HETATM   10  C   UNL     1     -10.267  16.751  65.720  1.00  0.00    -0.291 C  
ENDBRANCH   7   9
ENDBRANCH   2   7
TORSDOF 4
ENDMDL
MODEL       65
REMARK 921   NORMALIZED FREE ENERGY PREDICTED BY IDOCK:   -3.07 KCAL/MOL
REMARK 922        TOTAL FREE ENERGY PREDICTED BY IDOCK:   -3.89 KCAL/MOL
REMARK 923 INTER-LIGAND FREE ENERGY PREDICTED BY IDOCK:   -3.80 KCAL/MOL
REMARK 924 INTRA-LIGAND FREE ENERGY PREDICTED BY IDOCK:   -0.09 KCAL/MOL
REMARK 927      BINDING AFFINITY PREDICTED BY RF-SCORE:    0.00 PKD
ROOT
HETATM    1  C   UNL     1     -11.719  14.622  69.584  1.00  0.00    -0.358 C  
HETATM    2  C   UNL     1     -12.656  15.419  70.116  1.00  0.00    -0.329 C  
ENDROOT
BRANCH   1   3
HETATM    3  C   UNL     1     -11.695  14.368  68.134  1.00  0.00    -0.342 C  
HETATM    4  O   UNL     1     -11.977  13.308  67.604  1.00  0.00    -0.355 OA 
BRANCH   3   5
HETATM    5  O   UNL     1     -11.309  15.512  67.518  1.00  0.00    -0.314 OA 
HETATM    6  C   UNL     1      -9.898  15.626  67.332  1.00  0.00    -0.225 C  
ENDBRANCH   3   5
ENDBRANCH   1   3
BRANCH   2   7
HETATM    7  C   UNL     1     -12.641  15.644  71.571  1.00  0.00    -0.447 C  
HETATM    8  O   UNL     1     -11.736  16.193  72.180  1.00  0.00    -0.477 OA 
BRANCH   7   9
HETATM    9  O   UNL     1     -13.783  15.146  72.102  1.00  0.00    -0.390 OA 
HETATM   10  C   UNL     1     -13.673  13.780  72.509  1.00  0.00    -0.561 C  
ENDBRANCH   7   9
ENDBRANCH   2   7
TORSDOF 4
ENDMDL
MODEL       66
REMARK 921   NORMALIZED FREE ENERGY PREDICTED BY IDOCK:   -3.06 KCAL/MOL
REMARK 922        TOTAL FREE ENERGY PREDICTED BY IDOCK:   -3.88 KCAL/MOL
REMARK 923 INTER-LIGAND FREE ENERGY PREDICTED BY IDOCK:   -3.80 KCAL/MOL
REMARK 924 INTRA-LIGAND FREE ENERGY PREDICTED BY IDOCK:   -0.08 KCAL/MOL
REMARK 927      BINDING AFFINITY PREDICTED BY RF-SCORE:    0.00 PKD
ROOT
HETATM    1  C   UNL     1     -11.273  14.002  66.162  1.00  0.00    -0.318 C  
HETATM    2  C   UNL     1     -11.535  14.750  67.243  1.00  0.00    -0.378 C  
ENDROOT
BRANCH   1   3
HETATM    3  C   UNL     1     -12.164  12.889  65.795  1.00  0.00    -0.439 C  
HETATM    4  O   UNL     1     -12.939  12.892  64.856  1.00  0.00    -0.754 OA 
BRANCH   3   5
HETATM    5  O   UNL     1     -11.961  11.884  66.682  1.00  0.00    -0.601 OA 
HETATM    6  C   UNL     1     -10.699  11.230  66.544  1.00  0.00    -0.271 C  
ENDBRANCH   3   5
ENDBRANCH   1   3
BRANCH   2   7
HETATM    7  C   UNL     1     -10.617  15.853  67.571  1.00  0.00    -0.315 C  
HETATM    8  O   UNL     1     -10.953  16.907  68.086  1.00  0.00    -0.365 OA 
BRANCH   7   9
HETATM    9  O   UNL     1      -9.360  15.499  67.207  1.00  0.00    -0.207 OA 
HETATM   10  C   UNL     1      -8.575  14.999  68.291  1.00  0.00    -0.156 C  
ENDBRANCH   7   9
ENDBRANCH   2   7
TORSDOF 4
ENDMDL
MODEL       67
REMARK 921   NORMALIZED FREE ENERGY PREDICTED BY IDOCK:   -3.06 KCAL/MOL
REMARK 922        TOTAL FREE ENERGY PREDICTED BY IDOCK:   -3.87 KCAL/MOL
REMARK 923 INTER-LIGAND FREE ENERGY PREDICTED BY IDOCK:   -3.75 KCAL/MOL
REMARK 924 INTRA-LIGAND FREE ENERGY PREDICTED BY IDOCK:   -0.13 KCAL/MOL
REMARK 927      BINDING AFFINITY PREDICTED BY RF-SCORE:    0.00 PKD
ROOT
HETATM    1  C   UNL     1     -11.247  16.219  68.679  1.00  0.00    -0.354 C  
HETATM    2  C   UNL     1     -10.552  16.103  67.538  1.00  0.00    -0.314 C  
ENDROOT
BRANCH   1   3
HETATM    3  C   UNL     1     -11.567  15.025  69.479  1.00  0.00    -0.311 C  
HETATM    4  O   UNL     1     -11.097  13.915  69.301  1.00  0.00    -0.249 OA 
BRANCH   3   5
HETATM    5  O   UNL     1     -12.463  15.389  70.429  1.00  0.00    -0.375 OA 
HETATM    6  C   UNL     1     -11.902  16.153  71.497  1.00  0.00    -0.463 C  
ENDBRANCH   3   5
ENDBRANCH   1   3
BRANCH   2   7
HETATM    7  C   UNL     1     -10.255  17.324  66.771  1.00  0.00    -0.318 C  
HETATM    8  O   UNL     1      -9.544  17.366  65.781  1.00  0.00    -0.526 OA 
BRANCH   7   9
HETATM    9  O   UNL     1     -10.898  18.369  67.346  1.00  0.00    -0.403 OA 
HETATM   10  C   UNL     1     -10.209  19.611  67.197  1.00  0.00    -0.435 C  
ENDBRANCH   7   9
ENDBRANCH   2   7
TORSDOF 4
ENDMDL
MODEL       68
REMARK 921   NORMALIZED FREE ENERGY PREDICTED BY IDOCK:   -3.06 KCAL/MOL
REMARK 922        TOTAL FREE ENERGY PREDICTED BY IDOCK:   -3.87 KCAL/MOL
REMARK 923 INTER-LIGAND FREE ENERGY PREDICTED BY IDOCK:   -3.78 KCAL/MOL
REMARK 924 INTRA-LIGAND FREE ENERGY PREDICTED BY IDOCK:   -0.09 KCAL/MOL
REMARK 927      BINDING AFFINITY PREDICTED BY RF-SCORE:    0.00 PKD
ROOT
HETATM    1  C   UNL     1      -9.439  19.550  66.308  1.00  0.00    -0.451 C  
HETATM    2  C   UNL     1      -8.177  19.190  66.582  1.00  0.00    -0.303 C  
ENDROOT
BRANCH   1   3
HETATM    3  C   UNL     1     -10.484  18.527  66.142  1.00  0.00    -0.413 C  
HETATM    4  O   UNL     1     -10.924  18.140  65.073  1.00  0.00    -0.726 OA 
BRANCH   3   5
HETATM    5  O   UNL     1     -10.856  18.107  67.376  1.00  0.00    -0.374 OA 
HETATM    6  C   UNL     1     -10.712  16.702  67.582  1.00  0.00    -0.306 C  
ENDBRANCH   3   5
ENDBRANCH   1   3
BRANCH   2   7
HETATM    7  C   UNL     1      -7.165  20.247  66.739  1.00  0.00    -0.267 C  
HETATM    8  O   UNL     1      -7.382  21.352  67.209  1.00  0.00    -0.496 OA 
BRANCH   7   9
HETATM    9  O   UNL     1      -5.976  19.786  66.281  1.00  0.00    -0.165 OA 
HETATM   10  C   UNL     1      -6.069  19.143  65.008  1.00  0.00    -0.280 C  
ENDBRANCH   7   9
ENDBRANCH   2   7
TORSDOF 4
ENDMDL
MODEL       69
REMARK 921   NORMALIZED FREE ENERGY PREDICTED BY IDOCK:   -3.05 KCAL/MOL
REMARK 922        TOTAL FREE ENERGY PREDICTED BY IDOCK:   -3.87 KCAL/MOL
REMARK 923 INTER-LIGAND FREE ENERGY PREDICTED BY IDOCK:   -3.80 KCAL/MOL
REMARK 924 INTRA-LIGAND FREE ENERGY PREDICTED BY IDOCK:   -0.07 KCAL/MOL
REMARK 927      BINDING AFFINITY PREDICTED BY RF-SCORE:    0.00 PKD
ROOT
HETATM    1  C   UNL     1      -9.585  18.958  66.892  1.00  0.00    -0.348 C  
HETATM    2  C   UNL     1      -8.338  19.342  66.589  1.00  0.00    -0.326 C  
ENDROOT
BRANCH   1   3
HETATM    3  C   UNL     1     -10.321  18.048  65.998  1.00  0.00    -0.331 C  
HETATM    4  O   UNL     1     -10.914  18.386  64.989  1.00  0.00    -0.644 OA 
BRANCH   3   5
HETATM    5  O   UNL     1     -10.213  16.794  66.500  1.00  0.00    -0.296 OA 
HETATM    6  C   UNL     1     -10.572  15.764  65.579  1.00  0.00    -0.406 C  
ENDBRANCH   3   5
ENDBRANCH   1   3
BRANCH   2   7
HETATM    7  C   UNL     1      -7.641  20.252  67.513  1.00  0.00    -0.306 C  
HETATM    8  O   UNL     1      -7.228  21.361  67.216  1.00  0.00    -0.538 OA 
BRANCH   7   9
HETATM    9  O   UNL     1      -7.542  19.653  68.725  1.00  0.00    -0.342 OA 
HETATM   10  C   UNL     1      -6.538  18.638  68.776  1.00  0.00    -0.265 C  
ENDBRANCH   7   9
ENDBRANCH   2   7
TORSDOF 4
ENDMDL
MODEL       70
REMARK 921   NORMALIZED FREE ENERGY PREDICTED BY IDOCK:   -3.05 KCAL/MOL
REMARK 922        TOTAL FREE ENERGY PREDICTED BY IDOCK:   -3.86 KCAL/MOL
REMARK 923 INTER-LIGAND FREE ENERGY PREDICTED BY IDOCK:   -3.73 KCAL/MOL
REMARK 924 INTRA-LIGAND FREE ENERGY PREDICTED BY IDOCK:   -0.14 KCAL/MOL
REMARK 927      BINDING AFFINITY PREDICTED BY RF-SCORE:    0.00 PKD
ROOT
HETATM    1  C   UNL     1     -11.933  13.580  69.112  1.00  0.00    -0.378 C  
HETATM    2  C   UNL     1     -12.219  13.136  70.344  1.00  0.00    -0.389 C  
ENDROOT
BRANCH   1   3
HETATM    3  C   UNL     1     -11.631  12.628  68.030  1.00  0.00    -0.343 C  
HETATM    4  O   UNL     1     -11.686  11.414  68.129  1.00  0.00    -0.459 OA 
BRANCH   3   5
HETATM    5  O   UNL     1     -11.288  13.342  66.930  1.00  0.00    -0.295 OA 
HETATM    6  C   UNL     1     -12.249  14.328  66.553  1.00  0.00    -0.391 C  
ENDBRANCH   3   5
ENDBRANCH   1   3
BRANCH   2   7
HETATM    7  C   UNL     1     -12.514  14.125  71.394  1.00  0.00    -0.359 C  
HETATM    8  O   UNL     1     -12.891  13.850  72.521  1.00  0.00    -0.337 OA 
BRANCH   7   9
HETATM    9  O   UNL     1     -12.299  15.368  70.897  1.00  0.00    -0.333 OA 
HETATM   10  C   UNL     1     -11.989  16.335  71.902  1.00  0.00    -0.441 C  
ENDBRANCH   7   9
ENDBRANCH   2   7
TORSDOF 4
ENDMDL
MODEL       71
REMARK 921   NORMALIZED FREE ENERGY PREDICTED BY IDOCK:   -3.05 KCAL/MOL
REMARK 922        TOTAL FREE ENERGY PREDICTED BY IDOCK:   -3.86 KCAL/MOL
REMARK 923 INTER-LIGAND FREE ENERGY PREDICTED BY IDOCK:   -3.77 KCAL/MOL
REMARK 924 INTRA-LIGAND FREE ENERGY PREDICTED BY IDOCK:   -0.09 KCAL/MOL
REMARK 927      BINDING AFFINITY PREDICTED BY RF-SCORE:    0.00 PKD
ROOT
HETATM    1  C   UNL     1     -11.911  13.051  68.881  1.00  0.00    -0.358 C  
HETATM    2  C   UNL     1     -12.111  13.836  67.814  1.00  0.00    -0.325 C  
ENDROOT
BRANCH   1   3
HETATM    3  C   UNL     1     -12.264  13.525  70.230  1.00  0.00    -0.347 C  
HETATM    4  O   UNL     1     -12.290  14.692  70.578  1.00  0.00    -0.297 OA 
BRANCH   3   5
HETATM    5  O   UNL     1     -12.546  12.440  70.991  1.00  0.00    -0.360 OA 
HETATM    6  C   UNL     1     -12.193  11.195  70.388  1.00  0.00    -0.369 C  
ENDBRANCH   3   5
ENDBRANCH   1   3
BRANCH   2   7
HETATM    7  C   UNL     1     -11.743  13.320  66.485  1.00  0.00    -0.377 C  
HETATM    8  O   UNL     1     -12.037  12.213  66.064  1.00  0.00    -0.612 OA 
BRANCH   7   9
HETATM    9  O   UNL     1     -11.037  14.271  65.827  1.00  0.00    -0.300 OA 
HETATM   10  C   UNL     1     -11.703  14.772  64.666  1.00  0.00    -0.422 C  
ENDBRANCH   7   9
ENDBRANCH   2   7
TORSDOF 4
ENDMDL
MODEL       72
REMARK 921   NORMALIZED FREE ENERGY PREDICTED BY IDOCK:   -3.04 KCAL/MOL
REMARK 922        TOTAL FREE ENERGY PREDICTED BY IDOCK:   -3.85 KCAL/MOL
REMARK 923 INTER-LIGAND FREE ENERGY PREDICTED BY IDOCK:   -3.82 KCAL/MOL
REMARK 924 INTRA-LIGAND FREE ENERGY PREDICTED BY IDOCK:   -0.03 KCAL/MOL
REMARK 927      BINDING AFFINITY PREDICTED BY RF-SCORE:    0.00 PKD
ROOT
HETATM    1  C   UNL     1     -11.638  13.853  67.852  1.00  0.00    -0.377 C  
HETATM    2  C   UNL     1     -11.203  13.967  66.590  1.00  0.00    -0.330 C  
ENDROOT
BRANCH   1   3
HETATM    3  C   UNL     1     -11.885  12.524  68.436  1.00  0.00    -0.304 C  
HETATM    4  O   UNL     1     -12.014  11.493  67.801  1.00  0.00    -0.623 OA 
BRANCH   3   5
HETATM    5  O   UNL     1     -11.940  12.666  69.784  1.00  0.00    -0.319 OA 
HETATM    6  C   UNL     1     -12.154  11.444  70.490  1.00  0.00    -0.394 C  
ENDBRANCH   3   5
ENDBRANCH   1   3
BRANCH   2   7
HETATM    7  C   UNL     1     -10.969  15.316  66.048  1.00  0.00    -0.317 C  
HETATM    8  O   UNL     1     -10.481  16.242  66.676  1.00  0.00    -0.300 OA 
BRANCH   7   9
HETATM    9  O   UNL     1     -11.384  15.347  64.758  1.00  0.00    -0.412 OA 
HETATM   10  C   UNL     1     -12.245  14.260  64.413  1.00  0.00    -0.447 C  
ENDBRANCH   7   9
ENDBRANCH   2   7
TORSDOF 4
ENDMDL
MODEL       73
REMARK 921   NORMALIZED FREE ENERGY PREDICTED BY IDOCK:   -2.98 KCAL/MOL
REMARK 922        TOTAL FREE ENERGY PREDICTED BY IDOCK:   -3.77 KCAL/MOL
REMARK 923 INTER-LIGAND FREE ENERGY PREDICTED BY IDOCK:   -3.66 KCAL/MOL
REMARK 924 INTRA-LIGAND FREE ENERGY PREDICTED BY IDOCK:   -0.12 KCAL/MOL
REMARK 927      BINDING AFFINITY PREDICTED BY RF-SCORE:    0.00 PKD
ROOT
HETATM    1  C   UNL     1     -11.370  13.460  68.048  1.00  0.00    -0.320 C  
HETATM    2  C   UNL     1     -12.056  14.218  68.914  1.00  0.00    -0.314 C  
ENDROOT
BRANCH   1   3
HETATM    3  C   UNL     1     -11.827  12.097  67.728  1.00  0.00    -0.257 C  
HETATM    4  O   UNL     1     -11.974  11.199  68.538  1.00  0.00    -0.526 OA 
BRANCH   3   5
HETATM    5  O   UNL     1     -12.048  12.035  66.392  1.00  0.00    -0.610 OA 
HETATM    6  C   UNL     1     -11.255  12.943  65.627  1.00  0.00    -0.295 C  
ENDBRANCH   3   5
ENDBRANCH   1   3
BRANCH   2   7
HETATM    7  C   UNL     1     -11.561  15.575  69.203  1.00  0.00    -0.362 C  
HETATM    8  O   UNL     1     -11.520  16.077  70.314  1.00  0.00    -0.337 OA 
BRANCH   7   9
HETATM    9  O   UNL     1     -11.169  16.154  68.042  1.00  0.00    -0.348 OA 
HETATM   10  C   UNL     1     -10.015  16.984  68.183  1.00  0.00    -0.287 C  
ENDBRANCH   7   9
ENDBRANCH   2   7
TORSDOF 4
ENDMDL
MODEL       74
REMARK 921   NORMALIZED FREE ENERGY PREDICTED BY IDOCK:   -2.97 KCAL/MOL
REMARK 922        TOTAL FREE ENERGY PREDICTED BY IDOCK:   -3.76 KCAL/MOL
REMARK 923 INTER-LIGAND FREE ENERGY PREDICTED BY IDOCK:   -3.67 KCAL/MOL
REMARK 924 INTRA-LIGAND FREE ENERGY PREDICTED BY IDOCK:   -0.10 KCAL/MOL
REMARK 927      BINDING AFFINITY PREDICTED BY RF-SCORE:    0.00 PKD
ROOT
HETATM    1  C   UNL     1     -10.851  11.428  66.888  1.00  0.00    -0.335 C  
HETATM    2  C   UNL     1     -11.065  12.091  65.744  1.00  0.00    -0.371 C  
ENDROOT
BRANCH   1   3
HETATM    3  C   UNL     1     -11.365  11.958  68.162  1.00  0.00    -0.288 C  
HETATM    4  O   UNL     1     -11.070  13.039  68.641  1.00  0.00    -0.245 OA 
BRANCH   3   5
HETATM    5  O   UNL     1     -12.209  11.036  68.686  1.00  0.00    -0.571 OA 
HETATM    6  C   UNL     1     -12.121  10.904  70.105  1.00  0.00    -0.349 C  
ENDBRANCH   3   5
ENDBRANCH   1   3
BRANCH   2   7
HETATM    7  C   UNL     1     -10.533  11.523  64.494  1.00  0.00    -0.314 C  
HETATM    8  O   UNL     1      -9.741  10.596  64.434  1.00  0.00    -0.255 OA 
BRANCH   7   9
HETATM    9  O   UNL     1     -11.067  12.196  63.446  1.00  0.00    -0.431 OA 
HETATM   10  C   UNL     1     -12.485  12.056  63.344  1.00  0.00    -0.509 C  
ENDBRANCH   7   9
ENDBRANCH   2   7
TORSDOF 4
ENDMDL
MODEL       75
REMARK 921   NORMALIZED FREE ENERGY PREDICTED BY IDOCK:   -2.96 KCAL/MOL
REMARK 922        TOTAL FREE ENERGY PREDICTED BY IDOCK:   -3.76 KCAL/MOL
REMARK 923 INTER-LIGAND FREE ENERGY PREDICTED BY IDOCK:   -3.66 KCAL/MOL
REMARK 924 INTRA-LIGAND FREE ENERGY PREDICTED BY IDOCK:   -0.10 KCAL/MOL
REMARK 927      BINDING AFFINITY PREDICTED BY RF-SCORE:    0.00 PKD
ROOT
HETATM    1  C   UNL     1     -11.572  14.401  69.383  1.00  0.00    -0.349 C  
HETATM    2  C   UNL     1     -12.653  14.647  70.135  1.00  0.00    -0.333 C  
ENDROOT
BRANCH   1   3
HETATM    3  C   UNL     1     -11.638  13.429  68.279  1.00  0.00    -0.344 C  
HETATM    4  O   UNL     1     -12.275  13.578  67.252  1.00  0.00    -0.351 OA 
BRANCH   3   5
HETATM    5  O   UNL     1     -10.874  12.362  68.618  1.00  0.00    -0.227 OA 
HETATM    6  C   UNL     1     -11.560  11.111  68.562  1.00  0.00    -0.314 C  
ENDBRANCH   3   5
ENDBRANCH   1   3
BRANCH   2   7
HETATM    7  C   UNL     1     -12.540  15.627  71.227  1.00  0.00    -0.463 C  
HETATM    8  O   UNL     1     -11.688  16.498  71.293  1.00  0.00    -0.326 OA 
BRANCH   7   9
HETATM    9  O   UNL     1     -13.528  15.396  72.126  1.00  0.00    -0.394 OA 
HETATM   10  C   UNL     1     -13.255  15.936  73.421  1.00  0.00    -0.562 C  
ENDBRANCH   7   9
ENDBRANCH   2   7
TORSDOF 4
ENDMDL
MODEL       76
REMARK 921   NORMALIZED FREE ENERGY PREDICTED BY IDOCK:   -2.96 KCAL/MOL
REMARK 922        TOTAL FREE ENERGY PREDICTED BY IDOCK:   -3.75 KCAL/MOL
REMARK 923 INTER-LIGAND FREE ENERGY PREDICTED BY IDOCK:   -3.66 KCAL/MOL
REMARK 924 INTRA-LIGAND FREE ENERGY PREDICTED BY IDOCK:   -0.09 KCAL/MOL
REMARK 927      BINDING AFFINITY PREDICTED BY RF-SCORE:    0.00 PKD
ROOT
HETATM    1  C   UNL     1     -10.821  15.297  66.547  1.00  0.00    -0.311 C  
HETATM    2  C   UNL     1     -10.263  16.385  65.999  1.00  0.00    -0.373 C  
ENDROOT
BRANCH   1   3
HETATM    3  C   UNL     1     -11.056  14.093  65.734  1.00  0.00    -0.309 C  
HETATM    4  O   UNL     1     -10.353  13.722  64.810  1.00  0.00    -0.410 OA 
BRANCH   3   5
HETATM    5  O   UNL     1     -12.177  13.489  66.199  1.00  0.00    -0.419 OA 
HETATM    6  C   UNL     1     -12.090  13.063  67.559  1.00  0.00    -0.224 C  
ENDBRANCH   3   5
ENDBRANCH   1   3
BRANCH   2   7
HETATM    7  C   UNL     1     -10.046  17.567  66.851  1.00  0.00    -0.324 C  
HETATM    8  O   UNL     1     -10.353  17.638  68.030  1.00  0.00    -0.339 OA 
BRANCH   7   9
HETATM    9  O   UNL     1      -9.459  18.538  66.110  1.00  0.00    -0.453 OA 
HETATM   10  C   UNL     1     -10.244  19.727  66.009  1.00  0.00    -0.501 C  
ENDBRANCH   7   9
ENDBRANCH   2   7
TORSDOF 4
ENDMDL
MODEL       77
REMARK 921   NORMALIZED FREE ENERGY PREDICTED BY IDOCK:   -2.93 KCAL/MOL
REMARK 922        TOTAL FREE ENERGY PREDICTED BY IDOCK:   -3.71 KCAL/MOL
REMARK 923 INTER-LIGAND FREE ENERGY PREDICTED BY IDOCK:   -3.61 KCAL/MOL
REMARK 924 INTRA-LIGAND FREE ENERGY PREDICTED BY IDOCK:   -0.10 KCAL/MOL
REMARK 927      BINDING AFFINITY PREDICTED BY RF-SCORE:    0.00 PKD
ROOT
HETATM    1  C   UNL     1     -10.441  17.247  68.388  1.00  0.00    -0.381 C  
HETATM    2  C   UNL     1     -10.899  16.660  69.503  1.00  0.00    -0.285 C  
ENDROOT
BRANCH   1   3
HETATM    3  C   UNL     1      -9.646  18.483  68.472  1.00  0.00    -0.358 C  
HETATM    4  O   UNL     1     -10.103  19.612  68.466  1.00  0.00    -0.419 OA 
BRANCH   3   5
HETATM    5  O   UNL     1      -8.339  18.133  68.555  1.00  0.00    -0.299 OA 
HETATM    6  C   UNL     1      -7.448  19.237  68.709  1.00  0.00    -0.352 C  
ENDBRANCH   3   5
ENDBRANCH   1   3
BRANCH   2   7
HETATM    7  C   UNL     1     -11.690  15.425  69.371  1.00  0.00    -0.351 C  
HETATM    8  O   UNL     1     -11.553  14.605  68.477  1.00  0.00    -0.287 OA 
BRANCH   7   9
HETATM    9  O   UNL     1     -12.575  15.362  70.395  1.00  0.00    -0.394 OA 
HETATM   10  C   UNL     1     -12.055  15.864  71.627  1.00  0.00    -0.484 C  
ENDBRANCH   7   9
ENDBRANCH   2   7
TORSDOF 4
ENDMDL
MODEL       78
REMARK 921   NORMALIZED FREE ENERGY PREDICTED BY IDOCK:   -2.92 KCAL/MOL
REMARK 922        TOTAL FREE ENERGY PREDICTED BY IDOCK:   -3.71 KCAL/MOL
REMARK 923 INTER-LIGAND FREE ENERGY PREDICTED BY IDOCK:   -3.59 KCAL/MOL
REMARK 924 INTRA-LIGAND FREE ENERGY PREDICTED BY IDOCK:   -0.12 KCAL/MOL
REMARK 927      BINDING AFFINITY PREDICTED BY RF-SCORE:    0.00 PKD
ROOT
HETATM    1  C   UNL     1     -11.222  12.186  65.184  1.00  0.00    -0.378 C  
HETATM    2  C   UNL     1     -10.707  11.157  65.871  1.00  0.00    -0.261 C  
ENDROOT
BRANCH   1   3
HETATM    3  C   UNL     1     -10.993  12.301  63.734  1.00  0.00    -0.435 C  
HETATM    4  O   UNL     1     -10.105  11.738  63.118  1.00  0.00    -0.418 OA 
BRANCH   3   5
HETATM    5  O   UNL     1     -11.937  13.132  63.228  1.00  0.00    -0.545 OA 
HETATM    6  C   UNL     1     -12.315  14.190  64.110  1.00  0.00    -0.335 C  
ENDBRANCH   3   5
ENDBRANCH   1   3
BRANCH   2   7
HETATM    7  C   UNL     1     -10.962  11.083  67.319  1.00  0.00    -0.297 C  
HETATM    8  O   UNL     1     -12.056  11.231  67.840  1.00  0.00    -0.634 OA 
BRANCH   7   9
HETATM    9  O   UNL     1      -9.794  10.827  67.956  1.00  0.00    -0.160 OA 
HETATM   10  C   UNL     1      -8.830  10.167  67.132  1.00  0.00    -0.132 C  
ENDBRANCH   7   9
ENDBRANCH   2   7
TORSDOF 4
ENDMDL
MODEL       79
REMARK 921   NORMALIZED FREE ENERGY PREDICTED BY IDOCK:   -2.92 KCAL/MOL
REMARK 922        TOTAL FREE ENERGY PREDICTED BY IDOCK:   -3.71 KCAL/MOL
REMARK 923 INTER-LIGAND FREE ENERGY PREDICTED BY IDOCK:   -3.57 KCAL/MOL
REMARK 924 INTRA-LIGAND FREE ENERGY PREDICTED BY IDOCK:   -0.13 KCAL/MOL
REMARK 927      BINDING AFFINITY PREDICTED BY RF-SCORE:    0.00 PKD
ROOT
HETATM    1  C   UNL     1     -12.158  10.303  71.245  1.00  0.00    -0.479 C  
HETATM    2  C   UNL     1     -11.745   9.108  70.800  1.00  0.00    -0.308 C  
ENDROOT
BRANCH   1   3
HETATM    3  C   UNL     1     -12.197  11.462  70.337  1.00  0.00    -0.362 C  
HETATM    4  O   UNL     1     -12.234  12.627  70.690  1.00  0.00    -0.374 OA 
BRANCH   3   5
HETATM    5  O   UNL     1     -12.183  10.994  69.065  1.00  0.00    -0.483 OA 
HETATM    6  C   UNL     1     -11.710  11.936  68.102  1.00  0.00    -0.320 C  
ENDBRANCH   3   5
ENDBRANCH   1   3
BRANCH   2   7
HETATM    7  C   UNL     1     -11.723   7.978  71.744  1.00  0.00    -0.291 C  
HETATM    8  O   UNL     1     -12.304   6.919  71.572  1.00  0.00    -0.343 OA 
BRANCH   7   9
HETATM    9  O   UNL     1     -10.961   8.316  72.812  1.00  0.00    -0.354 OA 
HETATM   10  C   UNL     1      -9.570   8.050  72.624  1.00  0.00    -0.259 C  
ENDBRANCH   7   9
ENDBRANCH   2   7
TORSDOF 4
ENDMDL
MODEL       80
REMARK 921   NORMALIZED FREE ENERGY PREDICTED BY IDOCK:   -2.91 KCAL/MOL
REMARK 922        TOTAL FREE ENERGY PREDICTED BY IDOCK:   -3.69 KCAL/MOL
REMARK 923 INTER-LIGAND FREE ENERGY PREDICTED BY IDOCK:   -3.55 KCAL/MOL
REMARK 924 INTRA-LIGAND FREE ENERGY PREDICTED BY IDOCK:   -0.14 KCAL/MOL
REMARK 927      BINDING AFFINITY PREDICTED BY RF-SCORE:    0.00 PKD
ROOT
HETATM    1  C   UNL     1     -10.705  17.322  68.332  1.00  0.00    -0.332 C  
HETATM    2  C   UNL     1     -10.339  18.127  67.325  1.00  0.00    -0.399 C  
ENDROOT
BRANCH   1   3
HETATM    3  C   UNL     1     -11.190  15.960  68.056  1.00  0.00    -0.319 C  
HETATM    4  O   UNL     1     -11.688  15.213  68.880  1.00  0.00    -0.313 OA 
BRANCH   3   5
HETATM    5  O   UNL     1     -10.982  15.702  66.742  1.00  0.00    -0.310 OA 
HETATM    6  C   UNL     1     -11.605  14.504  66.276  1.00  0.00    -0.360 C  
ENDBRANCH   3   5
ENDBRANCH   1   3
BRANCH   2   7
HETATM    7  C   UNL     1      -9.859  19.481  67.648  1.00  0.00    -0.364 C  
HETATM    8  O   UNL     1     -10.107  20.480  66.993  1.00  0.00    -0.429 OA 
BRANCH   7   9
HETATM    9  O   UNL     1      -9.112  19.422  68.777  1.00  0.00    -0.371 OA 
HETATM   10  C   UNL     1      -7.707  19.517  68.533  1.00  0.00    -0.354 C  
ENDBRANCH   7   9
ENDBRANCH   2   7
TORSDOF 4
ENDMDL
MODEL       81
REMARK 921   NORMALIZED FREE ENERGY PREDICTED BY IDOCK:   -2.91 KCAL/MOL
REMARK 922        TOTAL FREE ENERGY PREDICTED BY IDOCK:   -3.69 KCAL/MOL
REMARK 923 INTER-LIGAND FREE ENERGY PREDICTED BY IDOCK:   -3.59 KCAL/MOL
REMARK 924 INTRA-LIGAND FREE ENERGY PREDICTED BY IDOCK:   -0.10 KCAL/MOL
REMARK 927      BINDING AFFINITY PREDICTED BY RF-SCORE:    0.00 PKD
ROOT
HETATM    1  C   UNL     1     -11.047  14.497  67.581  1.00  0.00    -0.314 C  
HETATM    2  C   UNL     1     -11.315  13.350  68.220  1.00  0.00    -0.330 C  
ENDROOT
BRANCH   1   3
HETATM    3  C   UNL     1     -10.560  15.668  68.329  1.00  0.00    -0.262 C  
HETATM    4  O   UNL     1     -10.220  15.661  69.499  1.00  0.00    -0.239 OA 
BRANCH   3   5
HETATM    5  O   UNL     1     -10.561  16.730  67.486  1.00  0.00    -0.323 OA 
HETATM    6  C   UNL     1     -10.338  17.985  68.128  1.00  0.00    -0.388 C  
ENDBRANCH   3   5
ENDBRANCH   1   3
BRANCH   2   7
HETATM    7  C   UNL     1     -11.799  12.205  67.432  1.00  0.00    -0.227 C  
HETATM    8  O   UNL     1     -11.897  12.190  66.216  1.00  0.00    -0.553 OA 
BRANCH   7   9
HETATM    9  O   UNL     1     -12.111  11.192  68.278  1.00  0.00    -0.620 OA 
HETATM   10  C   UNL     1     -11.548  11.349  69.582  1.00  0.00    -0.330 C  
ENDBRANCH   7   9
ENDBRANCH   2   7
TORSDOF 4
ENDMDL
MODEL       82
REMARK 921   NORMALIZED FREE ENERGY PREDICTED BY IDOCK:   -2.90 KCAL/MOL
REMARK 922        TOTAL FREE ENERGY PREDICTED BY IDOCK:   -3.68 KCAL/MOL
REMARK 923 INTER-LIGAND FREE ENERGY PREDICTED BY IDOCK:   -3.58 KCAL/MOL
REMARK 924 INTRA-LIGAND FREE ENERGY PREDICTED BY IDOCK:   -0.10 KCAL/MOL
REMARK 927      BINDING AFFINITY PREDICTED BY RF-SCORE:    0.00 PKD
ROOT
HETATM    1  C   UNL     1     -10.809  15.072  66.681  1.00  0.00    -0.318 C  
HETATM    2  C   UNL     1     -10.026  16.064  66.235  1.00  0.00    -0.329 C  
ENDROOT
BRANCH   1   3
HETATM    3  C   UNL     1     -10.219  13.908  67.363  1.00  0.00    -0.252 C  
HETATM    4  O   UNL     1     -10.467  13.565  68.505  1.00  0.00    -0.238 OA 
BRANCH   3   5
HETATM    5  O   UNL     1      -9.369  13.305  66.496  1.00  0.00    -0.253 OA 
HETATM    6  C   UNL     1     -10.013  12.476  65.528  1.00  0.00    -0.234 C  
ENDBRANCH   3   5
ENDBRANCH   1   3
BRANCH   2   7
HETATM    7  C   UNL     1     -10.660  17.208  65.559  1.00  0.00    -0.150 C  
HETATM    8  O   UNL     1     -11.105  17.185  64.424  1.00  0.00    -1.100 OA 
BRANCH   7   9
HETATM    9  O   UNL     1     -10.661  18.268  66.404  1.00  0.00    -0.374 OA 
HETATM   10  C   UNL     1      -9.357  18.795  66.656  1.00  0.00    -0.329 C  
ENDBRANCH   7   9
ENDBRANCH   2   7
TORSDOF 4
ENDMDL
MODEL       83
REMARK 921   NORMALIZED FREE ENERGY PREDICTED BY IDOCK:   -2.90 KCAL/MOL
REMARK 922        TOTAL FREE ENERGY PREDICTED BY IDOCK:   -3.68 KCAL/MOL
REMARK 923 INTER-LIGAND FREE ENERGY PREDICTED BY IDOCK:   -3.56 KCAL/MOL
REMARK 924 INTRA-LIGAND FREE ENERGY PREDICTED BY IDOCK:   -0.12 KCAL/MOL
REMARK 927      BINDING AFFINITY PREDICTED BY RF-SCORE:    0.00 PKD
ROOT
HETATM    1  C   UNL     1     -11.144   8.164  72.597  1.00  0.00    -0.450 C  
HETATM    2  C   UNL     1     -11.583   9.184  71.847  1.00  0.00    -0.430 C  
ENDROOT
BRANCH   1   3
HETATM    3  C   UNL     1      -9.702   7.891  72.710  1.00  0.00    -0.257 C  
HETATM    4  O   UNL     1      -8.820   8.723  72.591  1.00  0.00    -0.394 OA 
BRANCH   3   5
HETATM    5  O   UNL     1      -9.547   6.569  72.967  1.00  0.00    -0.148 OA 
HETATM    6  C   UNL     1     -10.770   5.878  73.226  1.00  0.00    -0.265 C  
ENDBRANCH   3   5
ENDBRANCH   1   3
BRANCH   2   7
HETATM    7  C   UNL     1     -13.034   9.419  71.763  1.00  0.00    -0.402 C  
HETATM    8  O   UNL     1     -13.869   8.863  72.458  1.00  0.00    -0.456 OA 
BRANCH   7   9
HETATM    9  O   UNL     1     -13.272  10.340  70.798  1.00  0.00    -0.385 OA 
HETATM   10  C   UNL     1     -12.099  11.038  70.377  1.00  0.00    -0.373 C  
ENDBRANCH   7   9
ENDBRANCH   2   7
TORSDOF 4
ENDMDL
MODEL       84
REMARK 921   NORMALIZED FREE ENERGY PREDICTED BY IDOCK:   -2.90 KCAL/MOL
REMARK 922        TOTAL FREE ENERGY PREDICTED BY IDOCK:   -3.68 KCAL/MOL
REMARK 923 INTER-LIGAND FREE ENERGY PREDICTED BY IDOCK:   -3.61 KCAL/MOL
REMARK 924 INTRA-LIGAND FREE ENERGY PREDICTED BY IDOCK:   -0.07 KCAL/MOL
REMARK 927      BINDING AFFINITY PREDICTED BY RF-SCORE:    0.00 PKD
ROOT
HETATM    1  C   UNL     1     -11.467  11.696  66.337  1.00  0.00    -0.238 C  
HETATM    2  C   UNL     1     -11.390  13.034  66.357  1.00  0.00    -0.355 C  
ENDROOT
BRANCH   1   3
HETATM    3  C   UNL     1     -10.947  10.905  67.465  1.00  0.00    -0.293 C  
HETATM    4  O   UNL     1     -10.675   9.718  67.422  1.00  0.00    -0.268 OA 
BRANCH   3   5
HETATM    5  O   UNL     1     -10.831  11.731  68.534  1.00  0.00    -0.202 OA 
HETATM    6  C   UNL     1     -11.781  11.480  69.570  1.00  0.00    -0.346 C  
ENDBRANCH   3   5
ENDBRANCH   1   3
BRANCH   2   7
HETATM    7  C   UNL     1     -11.923  13.783  65.207  1.00  0.00    -0.374 C  
HETATM    8  O   UNL     1     -13.100  13.818  64.886  1.00  0.00    -0.716 OA 
BRANCH   7   9
HETATM    9  O   UNL     1     -10.898  14.414  64.583  1.00  0.00    -0.392 OA 
HETATM   10  C   UNL     1     -10.716  15.764  65.015  1.00  0.00    -0.421 C  
ENDBRANCH   7   9
ENDBRANCH   2   7
TORSDOF 4
ENDMDL
MODEL       85
REMARK 921   NORMALIZED FREE ENERGY PREDICTED BY IDOCK:   -2.89 KCAL/MOL
REMARK 922        TOTAL FREE ENERGY PREDICTED BY IDOCK:   -3.67 KCAL/MOL
REMARK 923 INTER-LIGAND FREE ENERGY PREDICTED BY IDOCK:   -3.59 KCAL/MOL
REMARK 924 INTRA-LIGAND FREE ENERGY PREDICTED BY IDOCK:   -0.08 KCAL/MOL
REMARK 927      BINDING AFFINITY PREDICTED BY RF-SCORE:    0.00 PKD
ROOT
HETATM    1  C   UNL     1     -12.022   8.539  72.367  1.00  0.00    -0.434 C  
HETATM    2  C   UNL     1     -10.911   8.995  71.772  1.00  0.00    -0.437 C  
ENDROOT
BRANCH   1   3
HETATM    3  C   UNL     1     -13.312   9.215  72.149  1.00  0.00    -0.463 C  
HETATM    4  O   UNL     1     -14.370   8.887  72.658  1.00  0.00    -0.613 OA 
BRANCH   3   5
HETATM    5  O   UNL     1     -13.103  10.246  71.295  1.00  0.00    -0.370 OA 
HETATM    6  C   UNL     1     -13.407  11.529  71.843  1.00  0.00    -0.303 C  
ENDBRANCH   3   5
ENDBRANCH   1   3
BRANCH   2   7
HETATM    7  C   UNL     1      -9.644   8.287  72.019  1.00  0.00    -0.248 C  
HETATM    8  O   UNL     1      -8.698   8.751  72.636  1.00  0.00    -0.408 OA 
BRANCH   7   9
HETATM    9  O   UNL     1      -9.712   7.058  71.452  1.00  0.00    -0.170 OA 
HETATM   10  C   UNL     1      -8.924   6.076  72.129  1.00  0.00    -0.142 C  
ENDBRANCH   7   9
ENDBRANCH   2   7
TORSDOF 4
ENDMDL
MODEL       86
REMARK 921   NORMALIZED FREE ENERGY PREDICTED BY IDOCK:   -2.89 KCAL/MOL
REMARK 922        TOTAL FREE ENERGY PREDICTED BY IDOCK:   -3.67 KCAL/MOL
REMARK 923 INTER-LIGAND FREE ENERGY PREDICTED BY IDOCK:   -3.59 KCAL/MOL
REMARK 924 INTRA-LIGAND FREE ENERGY PREDICTED BY IDOCK:   -0.08 KCAL/MOL
REMARK 927      BINDING AFFINITY PREDICTED BY RF-SCORE:    0.00 PKD
ROOT
HETATM    1  C   UNL     1      -8.080  19.724  66.545  1.00  0.00    -0.351 C  
HETATM    2  C   UNL     1      -9.071  18.824  66.589  1.00  0.00    -0.323 C  
ENDROOT
BRANCH   1   3
HETATM    3  C   UNL     1      -7.005  19.598  65.546  1.00  0.00    -0.291 C  
HETATM    4  O   UNL     1      -6.622  18.549  65.057  1.00  0.00    -0.497 OA 
BRANCH   3   5
HETATM    5  O   UNL     1      -6.535  20.841  65.281  1.00  0.00    -0.257 OA 
HETATM    6  C   UNL     1      -6.159  21.045  63.919  1.00  0.00    -0.323 C  
ENDBRANCH   3   5
ENDBRANCH   1   3
BRANCH   2   7
HETATM    7  C   UNL     1     -10.125  18.991  67.604  1.00  0.00    -0.374 C  
HETATM    8  O   UNL     1     -10.254  19.974  68.317  1.00  0.00    -0.433 OA 
BRANCH   7   9
HETATM    9  O   UNL     1     -10.908  17.885  67.608  1.00  0.00    -0.375 OA 
HETATM   10  C   UNL     1     -10.504  16.906  68.568  1.00  0.00    -0.361 C  
ENDBRANCH   7   9
ENDBRANCH   2   7
TORSDOF 4
ENDMDL
MODEL       87
REMARK 921   NORMALIZED FREE ENERGY PREDICTED BY IDOCK:   -2.88 KCAL/MOL
REMARK 922        TOTAL FREE ENERGY PREDICTED BY IDOCK:   -3.65 KCAL/MOL
REMARK 923 INTER-LIGAND FREE ENERGY PREDICTED BY IDOCK:   -3.64 KCAL/MOL
REMARK 924 INTRA-LIGAND FREE ENERGY PREDICTED BY IDOCK:   -0.02 KCAL/MOL
REMARK 927      BINDING AFFINITY PREDICTED BY RF-SCORE:    0.00 PKD
ROOT
HETATM    1  C   UNL     1     -10.458  16.165  66.376  1.00  0.00    -0.304 C  
HETATM    2  C   UNL     1     -10.340  15.464  65.240  1.00  0.00    -0.420 C  
ENDROOT
BRANCH   1   3
HETATM    3  C   UNL     1      -9.284  16.392  67.235  1.00  0.00    -0.215 C  
HETATM    4  O   UNL     1      -8.254  16.939  66.883  1.00  0.00    -0.182 OA 
BRANCH   3   5
HETATM    5  O   UNL     1      -9.562  15.887  68.462  1.00  0.00    -0.197 OA 
HETATM    6  C   UNL     1      -8.407  15.511  69.213  1.00  0.00    -0.257 C  
ENDBRANCH   3   5
ENDBRANCH   1   3
BRANCH   2   7
HETATM    7  C   UNL     1     -11.542  15.263  64.413  1.00  0.00    -0.263 C  
HETATM    8  O   UNL     1     -12.105  16.141  63.781  1.00  0.00    -0.946 OA 
BRANCH   7   9
HETATM    9  O   UNL     1     -11.902  13.958  64.477  1.00  0.00    -0.387 OA 
HETATM   10  C   UNL     1     -12.776  13.663  65.568  1.00  0.00    -0.466 C  
ENDBRANCH   7   9
ENDBRANCH   2   7
TORSDOF 4
ENDMDL
MODEL       88
REMARK 921   NORMALIZED FREE ENERGY PREDICTED BY IDOCK:   -2.87 KCAL/MOL
REMARK 922        TOTAL FREE ENERGY PREDICTED BY IDOCK:   -3.65 KCAL/MOL
REMARK 923 INTER-LIGAND FREE ENERGY PREDICTED BY IDOCK:   -3.51 KCAL/MOL
REMARK 924 INTRA-LIGAND FREE ENERGY PREDICTED BY IDOCK:   -0.14 KCAL/MOL
REMARK 927      BINDING AFFINITY PREDICTED BY RF-SCORE:    0.00 PKD
ROOT
HETATM    1  C   UNL     1     -10.785  15.838  67.543  1.00  0.00    -0.317 C  
HETATM    2  C   UNL     1     -10.546  16.495  66.400  1.00  0.00    -0.221 C  
ENDROOT
BRANCH   1   3
HETATM    3  C   UNL     1     -11.211  14.429  67.516  1.00  0.00    -0.315 C  
HETATM    4  O   UNL     1     -10.727  13.537  68.189  1.00  0.00    -0.239 OA 
BRANCH   3   5
HETATM    5  O   UNL     1     -12.222  14.317  66.619  1.00  0.00    -0.449 OA 
HETATM    6  C   UNL     1     -12.172  13.129  65.829  1.00  0.00    -0.456 C  
ENDBRANCH   3   5
ENDBRANCH   1   3
BRANCH   2   7
HETATM    7  C   UNL     1     -10.121  17.902  66.476  1.00  0.00    -0.370 C  
HETATM    8  O   UNL     1     -10.494  18.782  65.716  1.00  0.00    -0.571 OA 
BRANCH   7   9
HETATM    9  O   UNL     1      -9.263  18.045  67.515  1.00  0.00    -0.251 OA 
HETATM   10  C   UNL     1      -8.982  19.408  67.836  1.00  0.00    -0.319 C  
ENDBRANCH   7   9
ENDBRANCH   2   7
TORSDOF 4
ENDMDL
MODEL       89
REMARK 921   NORMALIZED FREE ENERGY PREDICTED BY IDOCK:   -2.87 KCAL/MOL
REMARK 922        TOTAL FREE ENERGY PREDICTED BY IDOCK:   -3.64 KCAL/MOL
REMARK 923 INTER-LIGAND FREE ENERGY PREDICTED BY IDOCK:   -3.54 KCAL/MOL
REMARK 924 INTRA-LIGAND FREE ENERGY PREDICTED BY IDOCK:   -0.10 KCAL/MOL
REMARK 927      BINDING AFFINITY PREDICTED BY RF-SCORE:    0.00 PKD
ROOT
HETATM    1  C   UNL     1     -11.771  12.243  66.072  1.00  0.00    -0.451 C  
HETATM    2  C   UNL     1     -12.102  12.408  67.360  1.00  0.00    -0.075 C  
ENDROOT
BRANCH   1   3
HETATM    3  C   UNL     1     -12.469  13.004  65.022  1.00  0.00    -0.477 C  
HETATM    4  O   UNL     1     -13.116  12.514  64.114  1.00  0.00    -0.751 OA 
BRANCH   3   5
HETATM    5  O   UNL     1     -12.258  14.323  65.254  1.00  0.00    -0.395 OA 
HETATM    6  C   UNL     1     -10.964  14.785  64.864  1.00  0.00    -0.412 C  
ENDBRANCH   3   5
ENDBRANCH   1   3
BRANCH   2   7
HETATM    7  C   UNL     1     -11.377  11.626  68.375  1.00  0.00    -0.279 C  
HETATM    8  O   UNL     1     -10.958  12.076  69.430  1.00  0.00    -0.178 OA 
BRANCH   7   9
HETATM    9  O   UNL     1     -11.261  10.347  67.941  1.00  0.00    -0.305 OA 
HETATM   10  C   UNL     1     -10.565   9.499  68.856  1.00  0.00    -0.216 C  
ENDBRANCH   7   9
ENDBRANCH   2   7
TORSDOF 4
ENDMDL
MODEL       90
REMARK 921   NORMALIZED FREE ENERGY PREDICTED BY IDOCK:   -2.84 KCAL/MOL
REMARK 922        TOTAL FREE ENERGY PREDICTED BY IDOCK:   -3.60 KCAL/MOL
REMARK 923 INTER-LIGAND FREE ENERGY PREDICTED BY IDOCK:   -3.52 KCAL/MOL
REMARK 924 INTRA-LIGAND FREE ENERGY PREDICTED BY IDOCK:   -0.09 KCAL/MOL
REMARK 927      BINDING AFFINITY PREDICTED BY RF-SCORE:    0.00 PKD
ROOT
HETATM    1  C   UNL     1      -9.317  16.588  66.276  1.00  0.00    -0.334 C  
HETATM    2  C   UNL     1     -10.340  17.449  66.187  1.00  0.00    -0.329 C  
ENDROOT
BRANCH   1   3
HETATM    3  C   UNL     1      -9.537  15.148  66.065  1.00  0.00    -0.330 C  
HETATM    4  O   UNL     1     -10.094  14.658  65.098  1.00  0.00    -0.377 OA 
BRANCH   3   5
HETATM    5  O   UNL     1      -9.014  14.487  67.127  1.00  0.00    -0.207 OA 
HETATM    6  C   UNL     1      -9.806  14.567  68.312  1.00  0.00    -0.229 C  
ENDBRANCH   3   5
ENDBRANCH   1   3
BRANCH   2   7
HETATM    7  C   UNL     1     -10.073  18.880  66.406  1.00  0.00    -0.409 C  
HETATM    8  O   UNL     1      -9.286  19.547  65.754  1.00  0.00    -0.386 OA 
BRANCH   7   9
HETATM    9  O   UNL     1     -10.839  19.316  67.436  1.00  0.00    -0.486 OA 
HETATM   10  C   UNL     1     -10.144  19.355  68.683  1.00  0.00    -0.428 C  
ENDBRANCH   7   9
ENDBRANCH   2   7
TORSDOF 4
ENDMDL
MODEL       91
REMARK 921   NORMALIZED FREE ENERGY PREDICTED BY IDOCK:   -2.84 KCAL/MOL
REMARK 922        TOTAL FREE ENERGY PREDICTED BY IDOCK:   -3.60 KCAL/MOL
REMARK 923 INTER-LIGAND FREE ENERGY PREDICTED BY IDOCK:   -3.50 KCAL/MOL
REMARK 924 INTRA-LIGAND FREE ENERGY PREDICTED BY IDOCK:   -0.10 KCAL/MOL
REMARK 927      BINDING AFFINITY PREDICTED BY RF-SCORE:    0.00 PKD
ROOT
HETATM    1  C   UNL     1     -11.425  14.136  68.653  1.00  0.00    -0.332 C  
HETATM    2  C   UNL     1     -11.492  13.159  67.739  1.00  0.00    -0.352 C  
ENDROOT
BRANCH   1   3
HETATM    3  C   UNL     1     -12.156  14.015  69.926  1.00  0.00    -0.345 C  
HETATM    4  O   UNL     1     -12.324  12.976  70.541  1.00  0.00    -0.338 OA 
BRANCH   3   5
HETATM    5  O   UNL     1     -12.594  15.249  70.274  1.00  0.00    -0.370 OA 
HETATM    6  C   UNL     1     -11.775  15.908  71.240  1.00  0.00    -0.448 C  
ENDBRANCH   3   5
ENDBRANCH   1   3
BRANCH   2   7
HETATM    7  C   UNL     1     -10.745  13.324  66.480  1.00  0.00    -0.285 C  
HETATM    8  O   UNL     1      -9.594  12.961  66.304  1.00  0.00    -0.265 OA 
BRANCH   7   9
HETATM    9  O   UNL     1     -11.546  13.936  65.574  1.00  0.00    -0.314 OA 
HETATM   10  C   UNL     1     -12.569  13.085  65.054  1.00  0.00    -0.454 C  
ENDBRANCH   7   9
ENDBRANCH   2   7
TORSDOF 4
ENDMDL
MODEL       92
REMARK 921   NORMALIZED FREE ENERGY PREDICTED BY IDOCK:   -2.84 KCAL/MOL
REMARK 922        TOTAL FREE ENERGY PREDICTED BY IDOCK:   -3.60 KCAL/MOL
REMARK 923 INTER-LIGAND FREE ENERGY PREDICTED BY IDOCK:   -3.49 KCAL/MOL
REMARK 924 INTRA-LIGAND FREE ENERGY PREDICTED BY IDOCK:   -0.11 KCAL/MOL
REMARK 927      BINDING AFFINITY PREDICTED BY RF-SCORE:    0.00 PKD
ROOT
HETATM    1  C   UNL     1      -9.440  17.034  66.367  1.00  0.00    -0.294 C  
HETATM    2  C   UNL     1      -9.309  16.718  67.663  1.00  0.00    -0.228 C  
ENDROOT
BRANCH   1   3
HETATM    3  C   UNL     1     -10.352  16.266  65.503  1.00  0.00    -0.338 C  
HETATM    4  O   UNL     1     -10.914  16.703  64.514  1.00  0.00    -0.885 OA 
BRANCH   3   5
HETATM    5  O   UNL     1     -10.445  15.011  66.007  1.00  0.00    -0.288 OA 
HETATM    6  C   UNL     1     -11.760  14.459  65.958  1.00  0.00    -0.375 C  
ENDBRANCH   3   5
ENDBRANCH   1   3
BRANCH   2   7
HETATM    7  C   UNL     1      -8.385  17.513  68.489  1.00  0.00    -0.274 C  
HETATM    8  O   UNL     1      -8.410  18.730  68.582  1.00  0.00    -0.332 OA 
BRANCH   7   9
HETATM    9  O   UNL     1      -7.524  16.674  69.113  1.00  0.00    -0.232 OA 
HETATM   10  C   UNL     1      -6.236  17.249  69.342  1.00  0.00    -0.245 C  
ENDBRANCH   7   9
ENDBRANCH   2   7
TORSDOF 4
ENDMDL
MODEL       93
REMARK 921   NORMALIZED FREE ENERGY PREDICTED BY IDOCK:   -2.83 KCAL/MOL
REMARK 922        TOTAL FREE ENERGY PREDICTED BY IDOCK:   -3.59 KCAL/MOL
REMARK 923 INTER-LIGAND FREE ENERGY PREDICTED BY IDOCK:   -3.45 KCAL/MOL
REMARK 924 INTRA-LIGAND FREE ENERGY PREDICTED BY IDOCK:   -0.14 KCAL/MOL
REMARK 927      BINDING AFFINITY PREDICTED BY RF-SCORE:    0.00 PKD
ROOT
HETATM    1  C   UNL     1     -11.208  13.074  68.526  1.00  0.00    -0.309 C  
HETATM    2  C   UNL     1     -11.630  14.344  68.611  1.00  0.00    -0.347 C  
ENDROOT
BRANCH   1   3
HETATM    3  C   UNL     1     -11.834  12.027  69.349  1.00  0.00    -0.324 C  
HETATM    4  O   UNL     1     -12.030  12.102  70.550  1.00  0.00    -0.337 OA 
BRANCH   3   5
HETATM    5  O   UNL     1     -12.143  10.987  68.536  1.00  0.00    -0.573 OA 
HETATM    6  C   UNL     1     -11.125  10.666  67.588  1.00  0.00    -0.319 C  
ENDBRANCH   3   5
ENDBRANCH   1   3
BRANCH   2   7
HETATM    7  C   UNL     1     -10.974  15.358  67.768  1.00  0.00    -0.311 C  
HETATM    8  O   UNL     1     -11.123  16.563  67.889  1.00  0.00    -0.319 OA 
BRANCH   7   9
HETATM    9  O   UNL     1     -10.194  14.729  66.855  1.00  0.00    -0.253 OA 
HETATM   10  C   UNL     1      -9.973  15.499  65.671  1.00  0.00    -0.360 C  
ENDBRANCH   7   9
ENDBRANCH   2   7
TORSDOF 4
ENDMDL
MODEL       94
REMARK 921   NORMALIZED FREE ENERGY PREDICTED BY IDOCK:   -2.83 KCAL/MOL
REMARK 922        TOTAL FREE ENERGY PREDICTED BY IDOCK:   -3.59 KCAL/MOL
REMARK 923 INTER-LIGAND FREE ENERGY PREDICTED BY IDOCK:   -3.48 KCAL/MOL
REMARK 924 INTRA-LIGAND FREE ENERGY PREDICTED BY IDOCK:   -0.11 KCAL/MOL
REMARK 927      BINDING AFFINITY PREDICTED BY RF-SCORE:    0.00 PKD
ROOT
HETATM    1  C   UNL     1     -12.064   7.111  71.581  1.00  0.00    -0.371 C  
HETATM    2  C   UNL     1     -12.180   8.231  72.308  1.00  0.00    -0.428 C  
ENDROOT
BRANCH   1   3
HETATM    3  C   UNL     1     -10.841   6.296  71.662  1.00  0.00    -0.251 C  
HETATM    4  O   UNL     1     -10.647   5.402  72.467  1.00  0.00    -0.208 OA 
BRANCH   3   5
HETATM    5  O   UNL     1      -9.992   6.720  70.694  1.00  0.00    -0.186 OA 
HETATM    6  C   UNL     1     -10.480   6.528  69.366  1.00  0.00    -0.221 C  
ENDBRANCH   3   5
ENDBRANCH   1   3
BRANCH   2   7
HETATM    7  C   UNL     1     -13.421   9.015  72.194  1.00  0.00    -0.459 C  
HETATM    8  O   UNL     1     -14.411   8.854  72.890  1.00  0.00    -0.548 OA 
BRANCH   7   9
HETATM    9  O   UNL     1     -13.273   9.926  71.202  1.00  0.00    -0.377 OA 
HETATM   10  C   UNL     1     -12.997  11.245  71.679  1.00  0.00    -0.432 C  
ENDBRANCH   7   9
ENDBRANCH   2   7
TORSDOF 4
ENDMDL
MODEL       95
REMARK 921   NORMALIZED FREE ENERGY PREDICTED BY IDOCK:   -2.82 KCAL/MOL
REMARK 922        TOTAL FREE ENERGY PREDICTED BY IDOCK:   -3.58 KCAL/MOL
REMARK 923 INTER-LIGAND FREE ENERGY PREDICTED BY IDOCK:   -3.46 KCAL/MOL
REMARK 924 INTRA-LIGAND FREE ENERGY PREDICTED BY IDOCK:   -0.12 KCAL/MOL
REMARK 927      BINDING AFFINITY PREDICTED BY RF-SCORE:    0.00 PKD
ROOT
HETATM    1  C   UNL     1     -11.073  11.713  65.967  1.00  0.00    -0.325 C  
HETATM    2  C   UNL     1     -10.629  11.102  64.860  1.00  0.00    -0.356 C  
ENDROOT
BRANCH   1   3
HETATM    3  C   UNL     1     -11.135  10.983  67.244  1.00  0.00    -0.294 C  
HETATM    4  O   UNL     1     -11.927  11.208  68.142  1.00  0.00    -0.615 OA 
BRANCH   3   5
HETATM    5  O   UNL     1     -10.166  10.035  67.229  1.00  0.00    -0.196 OA 
HETATM    6  C   UNL     1     -10.531   8.817  67.877  1.00  0.00    -0.216 C  
ENDBRANCH   3   5
ENDBRANCH   1   3
BRANCH   2   7
HETATM    7  C   UNL     1     -10.584  11.872  63.605  1.00  0.00    -0.446 C  
HETATM    8  O   UNL     1     -11.321  12.806  63.337  1.00  0.00    -0.472 OA 
BRANCH   7   9
HETATM    9  O   UNL     1      -9.601  11.369  62.819  1.00  0.00    -0.357 OA 
HETATM   10  C   UNL     1      -8.682  10.533  63.524  1.00  0.00    -0.185 C  
ENDBRANCH   7   9
ENDBRANCH   2   7
TORSDOF 4
ENDMDL
MODEL       96
REMARK 921   NORMALIZED FREE ENERGY PREDICTED BY IDOCK:   -2.82 KCAL/MOL
REMARK 922        TOTAL FREE ENERGY PREDICTED BY IDOCK:   -3.58 KCAL/MOL
REMARK 923 INTER-LIGAND FREE ENERGY PREDICTED BY IDOCK:   -3.49 KCAL/MOL
REMARK 924 INTRA-LIGAND FREE ENERGY PREDICTED BY IDOCK:   -0.10 KCAL/MOL
REMARK 927      BINDING AFFINITY PREDICTED BY RF-SCORE:    0.00 PKD
ROOT
HETATM    1  C   UNL     1     -11.186  13.585  67.507  1.00  0.00    -0.307 C  
HETATM    2  C   UNL     1     -11.836  13.106  68.576  1.00  0.00    -0.377 C  
ENDROOT
BRANCH   1   3
HETATM    3  C   UNL     1     -11.128  15.036  67.261  1.00  0.00    -0.334 C  
HETATM    4  O   UNL     1     -11.493  15.895  68.044  1.00  0.00    -0.328 OA 
BRANCH   3   5
HETATM    5  O   UNL     1     -10.602  15.227  66.026  1.00  0.00    -0.295 OA 
HETATM    6  C   UNL     1     -10.484  14.034  65.250  1.00  0.00    -0.382 C  
ENDBRANCH   3   5
ENDBRANCH   1   3
BRANCH   2   7
HETATM    7  C   UNL     1     -11.868  11.648  68.782  1.00  0.00    -0.325 C  
HETATM    8  O   UNL     1     -11.925  11.102  69.872  1.00  0.00    -0.302 OA 
BRANCH   7   9
HETATM    9  O   UNL     1     -11.825  11.035  67.574  1.00  0.00    -0.571 OA 
HETATM   10  C   UNL     1     -10.806  10.038  67.480  1.00  0.00    -0.265 C  
ENDBRANCH   7   9
ENDBRANCH   2   7
TORSDOF 4
ENDMDL
MODEL       97
REMARK 921   NORMALIZED FREE ENERGY PREDICTED BY IDOCK:   -2.82 KCAL/MOL
REMARK 922        TOTAL FREE ENERGY PREDICTED BY IDOCK:   -3.58 KCAL/MOL
REMARK 923 INTER-LIGAND FREE ENERGY PREDICTED BY IDOCK:   -3.44 KCAL/MOL
REMARK 924 INTRA-LIGAND FREE ENERGY PREDICTED BY IDOCK:   -0.14 KCAL/MOL
REMARK 927      BINDING AFFINITY PREDICTED BY RF-SCORE:    0.00 PKD
ROOT
HETATM    1  C   UNL     1     -10.697   8.839  71.881  1.00  0.00    -0.429 C  
HETATM    2  C   UNL     1     -11.366   7.947  72.624  1.00  0.00    -0.468 C  
ENDROOT
BRANCH   1   3
HETATM    3  C   UNL     1     -11.427   9.803  71.041  1.00  0.00    -0.383 C  
HETATM    4  O   UNL     1     -10.950  10.418  70.104  1.00  0.00    -0.284 OA 
BRANCH   3   5
HETATM    5  O   UNL     1     -12.701   9.873  71.499  1.00  0.00    -0.349 OA 
HETATM    6  C   UNL     1     -13.148  11.199  71.779  1.00  0.00    -0.431 C  
ENDBRANCH   3   5
ENDBRANCH   1   3
BRANCH   2   7
HETATM    7  C   UNL     1     -10.594   7.003  73.449  1.00  0.00    -0.364 C  
HETATM    8  O   UNL     1      -9.627   7.304  74.129  1.00  0.00    -0.265 OA 
BRANCH   7   9
HETATM    9  O   UNL     1     -11.136   5.767  73.321  1.00  0.00    -0.263 OA 
HETATM   10  C   UNL     1     -10.616   5.031  72.212  1.00  0.00    -0.206 C  
ENDBRANCH   7   9
ENDBRANCH   2   7
TORSDOF 4
ENDMDL
MODEL       98
REMARK 921   NORMALIZED FREE ENERGY PREDICTED BY IDOCK:   -2.80 KCAL/MOL
REMARK 922        TOTAL FREE ENERGY PREDICTED BY IDOCK:   -3.56 KCAL/MOL
REMARK 923 INTER-LIGAND FREE ENERGY PREDICTED BY IDOCK:   -3.46 KCAL/MOL
REMARK 924 INTRA-LIGAND FREE ENERGY PREDICTED BY IDOCK:   -0.10 KCAL/MOL
REMARK 927      BINDING AFFINITY PREDICTED BY RF-SCORE:    0.00 PKD
ROOT
HETATM    1  C   UNL     1      -9.510  18.226  67.472  1.00  0.00    -0.267 C  
HETATM    2  C   UNL     1     -10.645  17.618  67.843  1.00  0.00    -0.390 C  
ENDROOT
BRANCH   1   3
HETATM    3  C   UNL     1      -9.542  19.327  66.495  1.00  0.00    -0.363 C  
HETATM    4  O   UNL     1     -10.482  20.081  66.319  1.00  0.00    -0.454 OA 
BRANCH   3   5
HETATM    5  O   UNL     1      -8.353  19.339  65.843  1.00  0.00    -0.443 OA 
HETATM    6  C   UNL     1      -7.217  19.218  66.700  1.00  0.00    -0.216 C  
ENDBRANCH   3   5
ENDBRANCH   1   3
BRANCH   2   7
HETATM    7  C   UNL     1     -10.566  16.522  68.824  1.00  0.00    -0.322 C  
HETATM    8  O   UNL     1      -9.568  16.236  69.466  1.00  0.00    -0.216 OA 
BRANCH   7   9
HETATM    9  O   UNL     1     -11.769  15.902  68.885  1.00  0.00    -0.390 OA 
HETATM   10  C   UNL     1     -12.178  15.587  70.217  1.00  0.00    -0.400 C  
ENDBRANCH   7   9
ENDBRANCH   2   7
TORSDOF 4
ENDMDL
MODEL       99
REMARK 921   NORMALIZED FREE ENERGY PREDICTED BY IDOCK:   -2.78 KCAL/MOL
REMARK 922        TOTAL FREE ENERGY PREDICTED BY IDOCK:   -3.53 KCAL/MOL
REMARK 923 INTER-LIGAND FREE ENERGY PREDICTED BY IDOCK:   -3.45 KCAL/MOL
REMARK 924 INTRA-LIGAND FREE ENERGY PREDICTED BY IDOCK:   -0.08 KCAL/MOL
REMARK 927      BINDING AFFINITY PREDICTED BY RF-SCORE:    0.00 PKD
ROOT
HETATM    1  C   UNL     1     -11.806   9.322  71.903  1.00  0.00    -0.426 C  
HETATM    2  C   UNL     1     -10.977   9.656  70.905  1.00  0.00    -0.412 C  
ENDROOT
BRANCH   1   3
HETATM    3  C   UNL     1     -13.123   9.969  72.026  1.00  0.00    -0.441 C  
HETATM    4  O   UNL     1     -13.336  11.159  71.867  1.00  0.00    -0.417 OA 
BRANCH   3   5
HETATM    5  O   UNL     1     -14.030   9.013  72.340  1.00  0.00    -0.465 OA 
HETATM    6  C   UNL     1     -14.195   8.012  71.335  1.00  0.00    -0.346 C  
ENDBRANCH   3   5
ENDBRANCH   1   3
BRANCH   2   7
HETATM    7  C   UNL     1      -9.671   8.982  70.822  1.00  0.00    -0.246 C  
HETATM    8  O   UNL     1      -8.616   9.464  71.199  1.00  0.00    -0.297 OA 
BRANCH   7   9
HETATM    9  O   UNL     1      -9.845   7.758  70.266  1.00  0.00    -0.183 OA 
HETATM   10  C   UNL     1     -10.319   7.809  68.918  1.00  0.00    -0.213 C  
ENDBRANCH   7   9
ENDBRANCH   2   7
TORSDOF 4
ENDMDL
MODEL      100
REMARK 921   NORMALIZED FREE ENERGY PREDICTED BY IDOCK:   -2.77 KCAL/MOL
REMARK 922        TOTAL FREE ENERGY PREDICTED BY IDOCK:   -3.52 KCAL/MOL
REMARK 923 INTER-LIGAND FREE ENERGY PREDICTED BY IDOCK:   -3.38 KCAL/MOL
REMARK 924 INTRA-LIGAND FREE ENERGY PREDICTED BY IDOCK:   -0.14 KCAL/MOL
REMARK 927      BINDING AFFINITY PREDICTED BY RF-SCORE:    0.00 PKD
ROOT
HETATM    1  C   UNL     1     -10.691  15.650  65.986  1.00  0.00    -0.322 C  
HETATM    2  C   UNL     1     -10.199  14.494  65.520  1.00  0.00    -0.394 C  
ENDROOT
BRANCH   1   3
HETATM    3  C   UNL     1      -9.810  16.816  66.162  1.00  0.00    -0.309 C  
HETATM    4  O   UNL     1     -10.047  17.941  65.761  1.00  0.00    -0.563 OA 
BRANCH   3   5
HETATM    5  O   UNL     1      -8.709  16.407  66.840  1.00  0.00    -0.177 OA 
HETATM    6  C   UNL     1      -7.527  17.148  66.536  1.00  0.00    -0.283 C  
ENDBRANCH   3   5
ENDBRANCH   1   3
BRANCH   2   7
HETATM    7  C   UNL     1     -11.118  13.354  65.360  1.00  0.00    -0.287 C  
HETATM    8  O   UNL     1     -11.114  12.587  64.411  1.00  0.00    -0.304 OA 
BRANCH   7   9
HETATM    9  O   UNL     1     -11.950  13.311  66.428  1.00  0.00    -0.384 OA 
HETATM   10  C   UNL     1     -11.653  12.248  67.337  1.00  0.00    -0.355 C  
ENDBRANCH   7   9
ENDBRANCH   2   7
TORSDOF 4
ENDMDL
MODEL      101
REMARK 921   NORMALIZED FREE ENERGY PREDICTED BY IDOCK:   -2.77 KCAL/MOL
REMARK 922        TOTAL FREE ENERGY PREDICTED BY IDOCK:   -3.52 KCAL/MOL
REMARK 923 INTER-LIGAND FREE ENERGY PREDICTED BY IDOCK:   -3.43 KCAL/MOL
REMARK 924 INTRA-LIGAND FREE ENERGY PREDICTED BY IDOCK:   -0.09 KCAL/MOL
REMARK 927      BINDING AFFINITY PREDICTED BY RF-SCORE:    0.00 PKD
ROOT
HETATM    1  C   UNL     1     -10.427  14.527  64.987  1.00  0.00    -0.454 C  
HETATM    2  C   UNL     1      -9.905  14.666  66.213  1.00  0.00    -0.320 C  
ENDROOT
BRANCH   1   3
HETATM    3  C   UNL     1     -11.322  13.398  64.683  1.00  0.00    -0.350 C  
HETATM    4  O   UNL     1     -12.403  13.199  65.209  1.00  0.00    -0.430 OA 
BRANCH   3   5
HETATM    5  O   UNL     1     -10.727  12.640  63.730  1.00  0.00    -0.416 OA 
HETATM    6  C   UNL     1      -9.970  11.544  64.243  1.00  0.00    -0.271 C  
ENDBRANCH   3   5
ENDBRANCH   1   3
BRANCH   2   7
HETATM    7  C   UNL     1      -9.015  15.811  66.470  1.00  0.00    -0.306 C  
HETATM    8  O   UNL     1      -8.884  16.770  65.727  1.00  0.00    -0.505 OA 
BRANCH   7   9
HETATM    9  O   UNL     1      -8.382  15.615  67.653  1.00  0.00    -0.147 OA 
HETATM   10  C   UNL     1      -9.076  16.178  68.768  1.00  0.00    -0.229 C  
ENDBRANCH   7   9
ENDBRANCH   2   7
TORSDOF 4
ENDMDL
MODEL      102
REMARK 921   NORMALIZED FREE ENERGY PREDICTED BY IDOCK:   -2.76 KCAL/MOL
REMARK 922        TOTAL FREE ENERGY PREDICTED BY IDOCK:   -3.51 KCAL/MOL
REMARK 923 INTER-LIGAND FREE ENERGY PREDICTED BY IDOCK:   -3.38 KCAL/MOL
REMARK 924 INTRA-LIGAND FREE ENERGY PREDICTED BY IDOCK:   -0.12 KCAL/MOL
REMARK 927      BINDING AFFINITY PREDICTED BY RF-SCORE:    0.00 PKD
ROOT
HETATM    1  C   UNL     1     -11.090  13.149  65.783  1.00  0.00    -0.293 C  
HETATM    2  C   UNL     1     -11.371  11.874  66.083  1.00  0.00    -0.383 C  
ENDROOT
BRANCH   1   3
HETATM    3  C   UNL     1     -12.137  14.035  65.248  1.00  0.00    -0.408 C  
HETATM    4  O   UNL     1     -13.317  13.748  65.152  1.00  0.00    -0.688 OA 
BRANCH   3   5
HETATM    5  O   UNL     1     -11.550  15.203  64.889  1.00  0.00    -0.376 OA 
HETATM    6  C   UNL     1     -10.319  15.468  65.562  1.00  0.00    -0.394 C  
ENDBRANCH   3   5
ENDBRANCH   1   3
BRANCH   2   7
HETATM    7  C   UNL     1     -10.293  11.025  66.616  1.00  0.00    -0.240 C  
HETATM    8  O   UNL     1     -10.455  10.113  67.411  1.00  0.00    -0.221 OA 
BRANCH   7   9
HETATM    9  O   UNL     1      -9.115  11.427  66.081  1.00  0.00    -0.199 OA 
HETATM   10  C   UNL     1      -8.612  10.537  65.081  1.00  0.00    -0.180 C  
ENDBRANCH   7   9
ENDBRANCH   2   7
TORSDOF 4
ENDMDL
MODEL      103
REMARK 921   NORMALIZED FREE ENERGY PREDICTED BY IDOCK:   -2.73 KCAL/MOL
REMARK 922        TOTAL FREE ENERGY PREDICTED BY IDOCK:   -3.46 KCAL/MOL
REMARK 923 INTER-LIGAND FREE ENERGY PREDICTED BY IDOCK:   -3.35 KCAL/MOL
REMARK 924 INTRA-LIGAND FREE ENERGY PREDICTED BY IDOCK:   -0.11 KCAL/MOL
REMARK 927      BINDING AFFINITY PREDICTED BY RF-SCORE:    0.00 PKD
ROOT
HETATM    1  C   UNL     1     -11.719  11.817  67.673  1.00  0.00    -0.320 C  
HETATM    2  C   UNL     1     -11.345  11.943  66.392  1.00  0.00    -0.400 C  
ENDROOT
BRANCH   1   3
HETATM    3  C   UNL     1     -11.367  10.608  68.435  1.00  0.00    -0.283 C  
HETATM    4  O   UNL     1     -11.301  10.539  69.649  1.00  0.00    -0.243 OA 
BRANCH   3   5
HETATM    5  O   UNL     1     -11.136   9.609  67.547  1.00  0.00    -0.206 OA 
HETATM    6  C   UNL     1      -9.960   8.847  67.820  1.00  0.00    -0.192 C  
ENDBRANCH   3   5
ENDBRANCH   1   3
BRANCH   2   7
HETATM    7  C   UNL     1     -11.719  13.170  65.669  1.00  0.00    -0.364 C  
HETATM    8  O   UNL     1     -12.309  14.116  66.166  1.00  0.00    -0.450 OA 
BRANCH   7   9
HETATM    9  O   UNL     1     -11.301  13.065  64.384  1.00  0.00    -0.326 OA 
HETATM   10  C   UNL     1     -12.176  12.288  63.564  1.00  0.00    -0.568 C  
ENDBRANCH   7   9
ENDBRANCH   2   7
TORSDOF 4
ENDMDL
MODEL      104
REMARK 921   NORMALIZED FREE ENERGY PREDICTED BY IDOCK:   -2.72 KCAL/MOL
REMARK 922        TOTAL FREE ENERGY PREDICTED BY IDOCK:   -3.46 KCAL/MOL
REMARK 923 INTER-LIGAND FREE ENERGY PREDICTED BY IDOCK:   -3.37 KCAL/MOL
REMARK 924 INTRA-LIGAND FREE ENERGY PREDICTED BY IDOCK:   -0.08 KCAL/MOL
REMARK 927      BINDING AFFINITY PREDICTED BY RF-SCORE:    0.00 PKD
ROOT
HETATM    1  C   UNL     1     -10.827   6.798  70.283  1.00  0.00    -0.314 C  
HETATM    2  C   UNL     1     -12.007   6.965  70.896  1.00  0.00    -0.430 C  
ENDROOT
BRANCH   1   3
HETATM    3  C   UNL     1     -10.670   5.773  69.238  1.00  0.00    -0.316 C  
HETATM    4  O   UNL     1     -10.180   4.670  69.406  1.00  0.00    -0.184 OA 
BRANCH   3   5
HETATM    5  O   UNL     1     -11.163   6.279  68.081  1.00  0.00    -0.327 OA 
HETATM    6  C   UNL     1     -10.657   5.647  66.906  1.00  0.00    -0.296 C  
ENDBRANCH   3   5
ENDBRANCH   1   3
BRANCH   2   7
HETATM    7  C   UNL     1     -12.117   8.003  71.934  1.00  0.00    -0.317 C  
HETATM    8  O   UNL     1     -11.280   8.215  72.796  1.00  0.00    -0.389 OA 
BRANCH   7   9
HETATM    9  O   UNL     1     -13.288   8.665  71.768  1.00  0.00    -0.341 OA 
HETATM   10  C   UNL     1     -13.150  10.086  71.828  1.00  0.00    -0.457 C  
ENDBRANCH   7   9
ENDBRANCH   2   7
TORSDOF 4
ENDMDL
MODEL      105
REMARK 921   NORMALIZED FREE ENERGY PREDICTED BY IDOCK:   -2.72 KCAL/MOL
REMARK 922        TOTAL FREE ENERGY PREDICTED BY IDOCK:   -3.46 KCAL/MOL
REMARK 923 INTER-LIGAND FREE ENERGY PREDICTED BY IDOCK:   -3.38 KCAL/MOL
REMARK 924 INTRA-LIGAND FREE ENERGY PREDICTED BY IDOCK:   -0.08 KCAL/MOL
REMARK 927      BINDING AFFINITY PREDICTED BY RF-SCORE:    0.00 PKD
ROOT
HETATM    1  C   UNL     1     -12.111  12.603  70.561  1.00  0.00    -0.360 C  
HETATM    2  C   UNL     1     -12.123  13.302  69.418  1.00  0.00    -0.301 C  
ENDROOT
BRANCH   1   3
HETATM    3  C   UNL     1     -12.276  11.140  70.540  1.00  0.00    -0.384 C  
HETATM    4  O   UNL     1     -13.141  10.524  71.138  1.00  0.00    -0.376 OA 
BRANCH   3   5
HETATM    5  O   UNL     1     -11.305  10.623  69.748  1.00  0.00    -0.255 OA 
HETATM    6  C   UNL     1     -10.481   9.653  70.393  1.00  0.00    -0.293 C  
ENDBRANCH   3   5
ENDBRANCH   1   3
BRANCH   2   7
HETATM    7  C   UNL     1     -11.954  14.763  69.488  1.00  0.00    -0.311 C  
HETATM    8  O   UNL     1     -11.258  15.419  68.730  1.00  0.00    -0.265 OA 
BRANCH   7   9
HETATM    9  O   UNL     1     -12.692  15.240  70.520  1.00  0.00    -0.384 OA 
HETATM   10  C   UNL     1     -11.948  16.069  71.414  1.00  0.00    -0.449 C  
ENDBRANCH   7   9
ENDBRANCH   2   7
TORSDOF 4
ENDMDL
MODEL      106
REMARK 921   NORMALIZED FREE ENERGY PREDICTED BY IDOCK:   -2.71 KCAL/MOL
REMARK 922        TOTAL FREE ENERGY PREDICTED BY IDOCK:   -3.45 KCAL/MOL
REMARK 923 INTER-LIGAND FREE ENERGY PREDICTED BY IDOCK:   -3.36 KCAL/MOL
REMARK 924 INTRA-LIGAND FREE ENERGY PREDICTED BY IDOCK:   -0.09 KCAL/MOL
REMARK 927      BINDING AFFINITY PREDICTED BY RF-SCORE:    0.00 PKD
ROOT
HETATM    1  C   UNL     1     -10.669   9.489  71.196  1.00  0.00    -0.408 C  
HETATM    2  C   UNL     1     -11.545  10.316  70.609  1.00  0.00    -0.435 C  
ENDROOT
BRANCH   1   3
HETATM    3  C   UNL     1      -9.379   9.194  70.551  1.00  0.00    -0.240 C  
HETATM    4  O   UNL     1      -8.295   9.603  70.931  1.00  0.00    -0.272 OA 
BRANCH   3   5
HETATM    5  O   UNL     1      -9.621   8.399  69.480  1.00  0.00    -0.168 OA 
HETATM    6  C   UNL     1      -8.793   8.674  68.350  1.00  0.00    -0.142 C  
ENDBRANCH   3   5
ENDBRANCH   1   3
BRANCH   2   7
HETATM    7  C   UNL     1     -12.823  10.582  71.291  1.00  0.00    -0.431 C  
HETATM    8  O   UNL     1     -13.105  11.627  71.853  1.00  0.00    -0.478 OA 
BRANCH   7   9
HETATM    9  O   UNL     1     -13.611   9.485  71.186  1.00  0.00    -0.337 OA 
HETATM   10  C   UNL     1     -13.992   8.936  72.449  1.00  0.00    -0.448 C  
ENDBRANCH   7   9
ENDBRANCH   2   7
TORSDOF 4
ENDMDL
MODEL      107
REMARK 921   NORMALIZED FREE ENERGY PREDICTED BY IDOCK:   -2.71 KCAL/MOL
REMARK 922        TOTAL FREE ENERGY PREDICTED BY IDOCK:   -3.44 KCAL/MOL
REMARK 923 INTER-LIGAND FREE ENERGY PREDICTED BY IDOCK:   -3.35 KCAL/MOL
REMARK 924 INTRA-LIGAND FREE ENERGY PREDICTED BY IDOCK:   -0.09 KCAL/MOL
REMARK 927      BINDING AFFINITY PREDICTED BY RF-SCORE:    0.00 PKD
ROOT
HETATM    1  C   UNL     1     -11.018  16.920  68.331  1.00  0.00    -0.296 C  
HETATM    2  C   UNL     1      -9.881  17.368  68.881  1.00  0.00    -0.286 C  
ENDROOT
BRANCH   1   3
HETATM    3  C   UNL     1     -11.420  15.514  68.497  1.00  0.00    -0.361 C  
HETATM    4  O   UNL     1     -11.187  14.619  67.703  1.00  0.00    -0.295 OA 
BRANCH   3   5
HETATM    5  O   UNL     1     -12.084  15.407  69.674  1.00  0.00    -0.338 OA 
HETATM    6  C   UNL     1     -12.111  14.085  70.211  1.00  0.00    -0.355 C  
ENDBRANCH   3   5
ENDBRANCH   1   3
BRANCH   2   7
HETATM    7  C   UNL     1      -9.518  18.782  68.689  1.00  0.00    -0.368 C  
HETATM    8  O   UNL     1     -10.193  19.729  69.061  1.00  0.00    -0.434 OA 
BRANCH   7   9
HETATM    9  O   UNL     1      -8.330  18.844  68.040  1.00  0.00    -0.278 OA 
HETATM   10  C   UNL     1      -7.224  19.104  68.907  1.00  0.00    -0.341 C  
ENDBRANCH   7   9
ENDBRANCH   2   7
TORSDOF 4
ENDMDL
MODEL      108
REMARK 921   NORMALIZED FREE ENERGY PREDICTED BY IDOCK:   -2.69 KCAL/MOL
REMARK 922        TOTAL FREE ENERGY PREDICTED BY IDOCK:   -3.42 KCAL/MOL
REMARK 923 INTER-LIGAND FREE ENERGY PREDICTED BY IDOCK:   -3.35 KCAL/MOL
REMARK 924 INTRA-LIGAND FREE ENERGY PREDICTED BY IDOCK:   -0.07 KCAL/MOL
REMARK 927      BINDING AFFINITY PREDICTED BY RF-SCORE:    0.00 PKD
ROOT
HETATM    1  C   UNL     1     -10.875  13.446  68.160  1.00  0.00    -0.273 C  
HETATM    2  C   UNL     1     -11.149  14.474  67.345  1.00  0.00    -0.320 C  
ENDROOT
BRANCH   1   3
HETATM    3  C   UNL     1     -11.666  12.206  68.085  1.00  0.00    -0.341 C  
HETATM    4  O   UNL     1     -11.959  11.623  67.056  1.00  0.00    -0.593 OA 
BRANCH   3   5
HETATM    5  O   UNL     1     -11.998  11.847  69.350  1.00  0.00    -0.306 OA 
HETATM    6  C   UNL     1     -11.302  10.697  69.831  1.00  0.00    -0.313 C  
ENDBRANCH   3   5
ENDBRANCH   1   3
BRANCH   2   7
HETATM    7  C   UNL     1     -10.331  15.693  67.455  1.00  0.00    -0.277 C  
HETATM    8  O   UNL     1      -9.265  15.868  66.889  1.00  0.00    -0.207 OA 
BRANCH   7   9
HETATM    9  O   UNL     1     -10.959  16.567  68.279  1.00  0.00    -0.337 OA 
HETATM   10  C   UNL     1     -10.361  17.865  68.292  1.00  0.00    -0.383 C  
ENDBRANCH   7   9
ENDBRANCH   2   7
TORSDOF 4
ENDMDL
MODEL      109
REMARK 921   NORMALIZED FREE ENERGY PREDICTED BY IDOCK:   -2.69 KCAL/MOL
REMARK 922        TOTAL FREE ENERGY PREDICTED BY IDOCK:   -3.42 KCAL/MOL
REMARK 923 INTER-LIGAND FREE ENERGY PREDICTED BY IDOCK:   -3.29 KCAL/MOL
REMARK 924 INTRA-LIGAND FREE ENERGY PREDICTED BY IDOCK:   -0.13 KCAL/MOL
REMARK 927      BINDING AFFINITY PREDICTED BY RF-SCORE:    0.00 PKD
ROOT
HETATM    1  C   UNL     1     -10.988  16.340  69.469  1.00  0.00    -0.339 C  
HETATM    2  C   UNL     1     -11.124  16.336  68.135  1.00  0.00    -0.329 C  
ENDROOT
BRANCH   1   3
HETATM    3  C   UNL     1     -11.568  15.255  70.278  1.00  0.00    -0.301 C  
HETATM    4  O   UNL     1     -11.558  15.207  71.496  1.00  0.00    -0.347 OA 
BRANCH   3   5
HETATM    5  O   UNL     1     -12.101  14.342  69.430  1.00  0.00    -0.316 OA 
HETATM    6  C   UNL     1     -12.059  13.000  69.916  1.00  0.00    -0.277 C  
ENDBRANCH   3   5
ENDBRANCH   1   3
BRANCH   2   7
HETATM    7  C   UNL     1     -10.528  17.441  67.367  1.00  0.00    -0.336 C  
HETATM    8  O   UNL     1     -10.860  18.611  67.462  1.00  0.00    -0.435 OA 
BRANCH   7   9
HETATM    9  O   UNL     1      -9.567  16.939  66.553  1.00  0.00    -0.252 OA 
HETATM   10  C   UNL     1     -10.049  15.935  65.658  1.00  0.00    -0.358 C  
ENDBRANCH   7   9
ENDBRANCH   2   7
TORSDOF 4
ENDMDL
MODEL      110
REMARK 921   NORMALIZED FREE ENERGY PREDICTED BY IDOCK:   -2.69 KCAL/MOL
REMARK 922        TOTAL FREE ENERGY PREDICTED BY IDOCK:   -3.42 KCAL/MOL
REMARK 923 INTER-LIGAND FREE ENERGY PREDICTED BY IDOCK:   -3.40 KCAL/MOL
REMARK 924 INTRA-LIGAND FREE ENERGY PREDICTED BY IDOCK:   -0.02 KCAL/MOL
REMARK 927      BINDING AFFINITY PREDICTED BY RF-SCORE:    0.00 PKD
ROOT
HETATM    1  C   UNL     1     -11.852   9.377  71.473  1.00  0.00    -0.456 C  
HETATM    2  C   UNL     1     -11.109   8.675  72.339  1.00  0.00    -0.328 C  
ENDROOT
BRANCH   1   3
HETATM    3  C   UNL     1     -13.064  10.077  71.930  1.00  0.00    -0.460 C  
HETATM    4  O   UNL     1     -13.228  11.284  71.905  1.00  0.00    -0.482 OA 
BRANCH   3   5
HETATM    5  O   UNL     1     -13.942   9.144  72.373  1.00  0.00    -0.471 OA 
HETATM    6  C   UNL     1     -14.404   8.250  71.360  1.00  0.00    -0.361 C  
ENDBRANCH   3   5
ENDBRANCH   1   3
BRANCH   2   7
HETATM    7  C   UNL     1      -9.905   7.991  71.837  1.00  0.00    -0.191 C  
HETATM    8  O   UNL     1      -9.188   8.414  70.945  1.00  0.00    -0.144 OA 
BRANCH   7   9
HETATM    9  O   UNL     1      -9.740   6.836  72.526  1.00  0.00    -0.154 OA 
HETATM   10  C   UNL     1     -10.445   6.810  73.769  1.00  0.00    -0.354 C  
ENDBRANCH   7   9
ENDBRANCH   2   7
TORSDOF 4
ENDMDL
MODEL      111
REMARK 921   NORMALIZED FREE ENERGY PREDICTED BY IDOCK:   -2.69 KCAL/MOL
REMARK 922        TOTAL FREE ENERGY PREDICTED BY IDOCK:   -3.42 KCAL/MOL
REMARK 923 INTER-LIGAND FREE ENERGY PREDICTED BY IDOCK:   -3.32 KCAL/MOL
REMARK 924 INTRA-LIGAND FREE ENERGY PREDICTED BY IDOCK:   -0.09 KCAL/MOL
REMARK 927      BINDING AFFINITY PREDICTED BY RF-SCORE:    0.00 PKD
ROOT
HETATM    1  C   UNL     1     -10.821   8.593  72.112  1.00  0.00    -0.424 C  
HETATM    2  C   UNL     1     -11.729   9.226  71.356  1.00  0.00    -0.431 C  
ENDROOT
BRANCH   1   3
HETATM    3  C   UNL     1      -9.674   7.915  71.487  1.00  0.00    -0.161 C  
HETATM    4  O   UNL     1      -9.391   7.965  70.302  1.00  0.00    -0.159 OA 
BRANCH   3   5
HETATM    5  O   UNL     1      -9.008   7.243  72.457  1.00  0.00    -0.125 OA 
HETATM    6  C   UNL     1      -8.803   7.995  73.653  1.00  0.00    -0.260 C  
ENDBRANCH   3   5
ENDBRANCH   1   3
BRANCH   2   7
HETATM    7  C   UNL     1     -12.859   9.889  72.025  1.00  0.00    -0.395 C  
HETATM    8  O   UNL     1     -13.028  11.097  72.071  1.00  0.00    -0.447 OA 
BRANCH   7   9
HETATM    9  O   UNL     1     -13.662   8.942  72.569  1.00  0.00    -0.451 OA 
HETATM   10  C   UNL     1     -14.381   8.181  71.597  1.00  0.00    -0.469 C  
ENDBRANCH   7   9
ENDBRANCH   2   7
TORSDOF 4
ENDMDL
MODEL      112
REMARK 921   NORMALIZED FREE ENERGY PREDICTED BY IDOCK:   -2.69 KCAL/MOL
REMARK 922        TOTAL FREE ENERGY PREDICTED BY IDOCK:   -3.42 KCAL/MOL
REMARK 923 INTER-LIGAND FREE ENERGY PREDICTED BY IDOCK:   -3.30 KCAL/MOL
REMARK 924 INTRA-LIGAND FREE ENERGY PREDICTED BY IDOCK:   -0.11 KCAL/MOL
REMARK 927      BINDING AFFINITY PREDICTED BY RF-SCORE:    0.00 PKD
ROOT
HETATM    1  C   UNL     1     -11.821   7.043  71.258  1.00  0.00    -0.371 C  
HETATM    2  C   UNL     1     -11.702   6.542  70.021  1.00  0.00    -0.388 C  
ENDROOT
BRANCH   1   3
HETATM    3  C   UNL     1     -13.067   7.707  71.675  1.00  0.00    -0.353 C  
HETATM    4  O   UNL     1     -14.191   7.307  71.428  1.00  0.00    -0.422 OA 
BRANCH   3   5
HETATM    5  O   UNL     1     -12.732   8.822  72.369  1.00  0.00    -0.386 OA 
HETATM    6  C   UNL     1     -12.225   9.883  71.558  1.00  0.00    -0.416 C  
ENDBRANCH   3   5
ENDBRANCH   1   3
BRANCH   2   7
HETATM    7  C   UNL     1     -10.437   5.886  69.649  1.00  0.00    -0.277 C  
HETATM    8  O   UNL     1      -9.924   4.967  70.266  1.00  0.00    -0.214 OA 
BRANCH   7   9
HETATM    9  O   UNL     1      -9.956   6.471  68.525  1.00  0.00    -0.135 OA 
HETATM   10  C   UNL     1     -10.942   6.634  67.503  1.00  0.00    -0.338 C  
ENDBRANCH   7   9
ENDBRANCH   2   7
TORSDOF 4
ENDMDL
MODEL      113
REMARK 921   NORMALIZED FREE ENERGY PREDICTED BY IDOCK:   -2.67 KCAL/MOL
REMARK 922        TOTAL FREE ENERGY PREDICTED BY IDOCK:   -3.40 KCAL/MOL
REMARK 923 INTER-LIGAND FREE ENERGY PREDICTED BY IDOCK:   -3.28 KCAL/MOL
REMARK 924 INTRA-LIGAND FREE ENERGY PREDICTED BY IDOCK:   -0.12 KCAL/MOL
REMARK 927      BINDING AFFINITY PREDICTED BY RF-SCORE:    0.00 PKD
ROOT
HETATM    1  C   UNL     1     -10.905  15.131  67.447  1.00  0.00    -0.302 C  
HETATM    2  C   UNL     1     -11.888  14.287  67.791  1.00  0.00    -0.414 C  
ENDROOT
BRANCH   1   3
HETATM    3  C   UNL     1     -10.737  15.546  66.045  1.00  0.00    -0.326 C  
HETATM    4  O   UNL     1     -11.218  14.974  65.082  1.00  0.00    -0.356 OA 
BRANCH   3   5
HETATM    5  O   UNL     1      -9.964  16.659  66.030  1.00  0.00    -0.315 OA 
HETATM    6  C   UNL     1      -9.588  17.126  67.326  1.00  0.00    -0.245 C  
ENDBRANCH   3   5
ENDBRANCH   1   3
BRANCH   2   7
HETATM    7  C   UNL     1     -12.017  13.900  69.205  1.00  0.00    -0.357 C  
HETATM    8  O   UNL     1     -11.990  12.751  69.616  1.00  0.00    -0.314 OA 
BRANCH   7   9
HETATM    9  O   UNL     1     -12.168  15.020  69.953  1.00  0.00    -0.313 OA 
HETATM   10  C   UNL     1     -11.903  14.815  71.342  1.00  0.00    -0.335 C  
ENDBRANCH   7   9
ENDBRANCH   2   7
TORSDOF 4
ENDMDL
MODEL      114
REMARK 921   NORMALIZED FREE ENERGY PREDICTED BY IDOCK:   -2.67 KCAL/MOL
REMARK 922        TOTAL FREE ENERGY PREDICTED BY IDOCK:   -3.39 KCAL/MOL
REMARK 923 INTER-LIGAND FREE ENERGY PREDICTED BY IDOCK:   -3.24 KCAL/MOL
REMARK 924 INTRA-LIGAND FREE ENERGY PREDICTED BY IDOCK:   -0.15 KCAL/MOL
REMARK 927      BINDING AFFINITY PREDICTED BY RF-SCORE:    0.00 PKD
ROOT
HETATM    1  C   UNL     1      -9.941  17.521  67.767  1.00  0.00    -0.312 C  
HETATM    2  C   UNL     1     -10.902  16.846  68.412  1.00  0.00    -0.347 C  
ENDROOT
BRANCH   1   3
HETATM    3  C   UNL     1      -9.541  18.863  68.222  1.00  0.00    -0.352 C  
HETATM    4  O   UNL     1     -10.197  19.577  68.959  1.00  0.00    -0.401 OA 
BRANCH   3   5
HETATM    5  O   UNL     1      -8.332  19.144  67.678  1.00  0.00    -0.281 OA 
HETATM    6  C   UNL     1      -8.118  18.555  66.395  1.00  0.00    -0.273 C  
ENDBRANCH   3   5
ENDBRANCH   1   3
BRANCH   2   7
HETATM    7  C   UNL     1     -11.269  15.508  67.920  1.00  0.00    -0.325 C  
HETATM    8  O   UNL     1     -11.994  14.725  68.513  1.00  0.00    -0.309 OA 
BRANCH   7   9
HETATM    9  O   UNL     1     -10.674  15.304  66.720  1.00  0.00    -0.304 OA 
HETATM   10  C   UNL     1     -11.531  14.685  65.759  1.00  0.00    -0.338 C  
ENDBRANCH   7   9
ENDBRANCH   2   7
TORSDOF 4
ENDMDL
MODEL      115
REMARK 921   NORMALIZED FREE ENERGY PREDICTED BY IDOCK:   -2.65 KCAL/MOL
REMARK 922        TOTAL FREE ENERGY PREDICTED BY IDOCK:   -3.38 KCAL/MOL
REMARK 923 INTER-LIGAND FREE ENERGY PREDICTED BY IDOCK:   -3.27 KCAL/MOL
REMARK 924 INTRA-LIGAND FREE ENERGY PREDICTED BY IDOCK:   -0.11 KCAL/MOL
REMARK 927      BINDING AFFINITY PREDICTED BY RF-SCORE:    0.00 PKD
ROOT
HETATM    1  C   UNL     1     -10.804   9.217  71.829  1.00  0.00    -0.416 C  
HETATM    2  C   UNL     1     -11.219   8.203  72.600  1.00  0.00    -0.447 C  
ENDROOT
BRANCH   1   3
HETATM    3  C   UNL     1     -11.762   9.950  70.985  1.00  0.00    -0.382 C  
HETATM    4  O   UNL     1     -12.959  10.035  71.195  1.00  0.00    -0.354 OA 
BRANCH   3   5
HETATM    5  O   UNL     1     -11.073  10.497  69.953  1.00  0.00    -0.267 OA 
HETATM    6  C   UNL     1     -11.864  11.321  69.096  1.00  0.00    -0.355 C  
ENDBRANCH   3   5
ENDBRANCH   1   3
BRANCH   2   7
HETATM    7  C   UNL     1     -10.226   7.499  73.428  1.00  0.00    -0.343 C  
HETATM    8  O   UNL     1     -10.423   6.439  73.999  1.00  0.00    -0.306 OA 
BRANCH   7   9
HETATM    9  O   UNL     1      -9.079   8.221  73.443  1.00  0.00    -0.247 OA 
HETATM   10  C   UNL     1      -7.965   7.507  73.983  1.00  0.00    -0.150 C  
ENDBRANCH   7   9
ENDBRANCH   2   7
TORSDOF 4
ENDMDL
MODEL      116
REMARK 921   NORMALIZED FREE ENERGY PREDICTED BY IDOCK:   -2.64 KCAL/MOL
REMARK 922        TOTAL FREE ENERGY PREDICTED BY IDOCK:   -3.36 KCAL/MOL
REMARK 923 INTER-LIGAND FREE ENERGY PREDICTED BY IDOCK:   -3.27 KCAL/MOL
REMARK 924 INTRA-LIGAND FREE ENERGY PREDICTED BY IDOCK:   -0.09 KCAL/MOL
REMARK 927      BINDING AFFINITY PREDICTED BY RF-SCORE:    0.00 PKD
ROOT
HETATM    1  C   UNL     1      -9.995  17.403  67.452  1.00  0.00    -0.305 C  
HETATM    2  C   UNL     1     -10.728  17.052  68.518  1.00  0.00    -0.352 C  
ENDROOT
BRANCH   1   3
HETATM    3  C   UNL     1      -9.150  18.608  67.494  1.00  0.00    -0.280 C  
HETATM    4  O   UNL     1      -8.537  19.000  68.471  1.00  0.00    -0.336 OA 
BRANCH   3   5
HETATM    5  O   UNL     1      -9.185  19.183  66.267  1.00  0.00    -0.337 OA 
HETATM    6  C   UNL     1     -10.488  19.591  65.850  1.00  0.00    -0.491 C  
ENDBRANCH   3   5
ENDBRANCH   1   3
BRANCH   2   7
HETATM    7  C   UNL     1     -11.557  15.839  68.431  1.00  0.00    -0.338 C  
HETATM    8  O   UNL     1     -11.863  15.280  67.390  1.00  0.00    -0.215 OA 
BRANCH   7   9
HETATM    9  O   UNL     1     -11.914  15.462  69.683  1.00  0.00    -0.320 OA 
HETATM   10  C   UNL     1     -12.351  14.104  69.764  1.00  0.00    -0.299 C  
ENDBRANCH   7   9
ENDBRANCH   2   7
TORSDOF 4
ENDMDL
MODEL      117
REMARK 921   NORMALIZED FREE ENERGY PREDICTED BY IDOCK:   -2.61 KCAL/MOL
REMARK 922        TOTAL FREE ENERGY PREDICTED BY IDOCK:   -3.33 KCAL/MOL
REMARK 923 INTER-LIGAND FREE ENERGY PREDICTED BY IDOCK:   -3.23 KCAL/MOL
REMARK 924 INTRA-LIGAND FREE ENERGY PREDICTED BY IDOCK:   -0.10 KCAL/MOL
REMARK 927      BINDING AFFINITY PREDICTED BY RF-SCORE:    0.00 PKD
ROOT
HETATM    1  C   UNL     1      -8.976  17.463  66.899  1.00  0.00    -0.260 C  
HETATM    2  C   UNL     1      -9.137  16.913  68.110  1.00  0.00    -0.231 C  
ENDROOT
BRANCH   1   3
HETATM    3  C   UNL     1     -10.142  17.714  66.036  1.00  0.00    -0.254 C  
HETATM    4  O   UNL     1     -10.542  16.963  65.164  1.00  0.00    -0.679 OA 
BRANCH   3   5
HETATM    5  O   UNL     1     -10.672  18.910  66.389  1.00  0.00    -0.392 OA 
HETATM    6  C   UNL     1      -9.752  20.000  66.319  1.00  0.00    -0.433 C  
ENDBRANCH   3   5
ENDBRANCH   1   3
BRANCH   2   7
HETATM    7  C   UNL     1      -7.942  16.681  68.939  1.00  0.00    -0.236 C  
HETATM    8  O   UNL     1      -7.692  15.638  69.521  1.00  0.00    -0.224 OA 
BRANCH   7   9
HETATM    9  O   UNL     1      -7.187  17.807  68.942  1.00  0.00    -0.263 OA 
HETATM   10  C   UNL     1      -5.947  17.657  69.636  1.00  0.00    -0.254 C  
ENDBRANCH   7   9
ENDBRANCH   2   7
TORSDOF 4
ENDMDL
MODEL      118
REMARK 921   NORMALIZED FREE ENERGY PREDICTED BY IDOCK:   -2.61 KCAL/MOL
REMARK 922        TOTAL FREE ENERGY PREDICTED BY IDOCK:   -3.32 KCAL/MOL
REMARK 923 INTER-LIGAND FREE ENERGY PREDICTED BY IDOCK:   -3.21 KCAL/MOL
REMARK 924 INTRA-LIGAND FREE ENERGY PREDICTED BY IDOCK:   -0.11 KCAL/MOL
REMARK 927      BINDING AFFINITY PREDICTED BY RF-SCORE:    0.00 PKD
ROOT
HETATM    1  C   UNL     1      -6.707  20.163  65.768  1.00  0.00    -0.282 C  
HETATM    2  C   UNL     1      -7.882  19.612  66.102  1.00  0.00    -0.340 C  
ENDROOT
BRANCH   1   3
HETATM    3  C   UNL     1      -6.044  19.795  64.506  1.00  0.00    -0.261 C  
HETATM    4  O   UNL     1      -5.959  18.663  64.064  1.00  0.00    -0.268 OA 
BRANCH   3   5
HETATM    5  O   UNL     1      -5.560  20.930  63.945  1.00  0.00    -0.222 OA 
HETATM    6  C   UNL     1      -6.259  21.345  62.771  1.00  0.00    -0.311 C  
ENDBRANCH   3   5
ENDBRANCH   1   3
BRANCH   2   7
HETATM    7  C   UNL     1      -8.508  20.010  67.373  1.00  0.00    -0.336 C  
HETATM    8  O   UNL     1      -8.041  19.784  68.478  1.00  0.00    -0.315 OA 
BRANCH   7   9
HETATM    9  O   UNL     1      -9.669  20.657  67.105  1.00  0.00    -0.454 OA 
HETATM   10  C   UNL     1     -10.599  19.869  66.361  1.00  0.00    -0.420 C  
ENDBRANCH   7   9
ENDBRANCH   2   7
TORSDOF 4
ENDMDL
MODEL      119
REMARK 921   NORMALIZED FREE ENERGY PREDICTED BY IDOCK:   -2.60 KCAL/MOL
REMARK 922        TOTAL FREE ENERGY PREDICTED BY IDOCK:   -3.30 KCAL/MOL
REMARK 923 INTER-LIGAND FREE ENERGY PREDICTED BY IDOCK:   -3.21 KCAL/MOL
REMARK 924 INTRA-LIGAND FREE ENERGY PREDICTED BY IDOCK:   -0.10 KCAL/MOL
REMARK 927      BINDING AFFINITY PREDICTED BY RF-SCORE:    0.00 PKD
ROOT
HETATM    1  C   UNL     1     -11.192  13.742  68.174  1.00  0.00    -0.298 C  
HETATM    2  C   UNL     1     -11.678  14.415  69.226  1.00  0.00    -0.358 C  
ENDROOT
BRANCH   1   3
HETATM    3  C   UNL     1     -10.526  14.461  67.075  1.00  0.00    -0.268 C  
HETATM    4  O   UNL     1     -10.729  15.624  66.774  1.00  0.00    -0.308 OA 
BRANCH   3   5
HETATM    5  O   UNL     1      -9.664  13.602  66.478  1.00  0.00    -0.277 OA 
HETATM    6  C   UNL     1      -8.421  13.451  67.164  1.00  0.00    -0.170 C  
ENDBRANCH   3   5
ENDBRANCH   1   3
BRANCH   2   7
HETATM    7  C   UNL     1     -12.337  13.654  70.301  1.00  0.00    -0.322 C  
HETATM    8  O   UNL     1     -12.187  12.459  70.498  1.00  0.00    -0.361 OA 
BRANCH   7   9
HETATM    9  O   UNL     1     -13.120  14.497  71.017  1.00  0.00    -0.350 OA 
HETATM   10  C   UNL     1     -13.871  13.842  72.041  1.00  0.00    -0.497 C  
ENDBRANCH   7   9
ENDBRANCH   2   7
TORSDOF 4
ENDMDL
MODEL      120
REMARK 921   NORMALIZED FREE ENERGY PREDICTED BY IDOCK:   -2.59 KCAL/MOL
REMARK 922        TOTAL FREE ENERGY PREDICTED BY IDOCK:   -3.30 KCAL/MOL
REMARK 923 INTER-LIGAND FREE ENERGY PREDICTED BY IDOCK:   -3.23 KCAL/MOL
REMARK 924 INTRA-LIGAND FREE ENERGY PREDICTED BY IDOCK:   -0.07 KCAL/MOL
REMARK 927      BINDING AFFINITY PREDICTED BY RF-SCORE:    0.00 PKD
ROOT
HETATM    1  C   UNL     1      -6.745  19.508  67.310  1.00  0.00    -0.216 C  
HETATM    2  C   UNL     1      -7.337  19.599  68.509  1.00  0.00    -0.371 C  
ENDROOT
BRANCH   1   3
HETATM    3  C   UNL     1      -7.546  19.582  66.077  1.00  0.00    -0.315 C  
HETATM    4  O   UNL     1      -7.157  20.036  65.015  1.00  0.00    -0.321 OA 
BRANCH   3   5
HETATM    5  O   UNL     1      -8.769  19.062  66.344  1.00  0.00    -0.314 OA 
HETATM    6  C   UNL     1      -9.855  19.928  66.017  1.00  0.00    -0.417 C  
ENDBRANCH   3   5
ENDBRANCH   1   3
BRANCH   2   7
HETATM    7  C   UNL     1      -6.496  19.519  69.715  1.00  0.00    -0.293 C  
HETATM    8  O   UNL     1      -6.271  20.453  70.468  1.00  0.00    -0.487 OA 
BRANCH   7   9
HETATM    9  O   UNL     1      -6.027  18.254  69.838  1.00  0.00    -0.238 OA 
HETATM   10  C   UNL     1      -5.142  18.082  70.946  1.00  0.00    -0.263 C  
ENDBRANCH   7   9
ENDBRANCH   2   7
TORSDOF 4
ENDMDL
MODEL      121
REMARK 921   NORMALIZED FREE ENERGY PREDICTED BY IDOCK:   -2.59 KCAL/MOL
REMARK 922        TOTAL FREE ENERGY PREDICTED BY IDOCK:   -3.29 KCAL/MOL
REMARK 923 INTER-LIGAND FREE ENERGY PREDICTED BY IDOCK:   -3.20 KCAL/MOL
REMARK 924 INTRA-LIGAND FREE ENERGY PREDICTED BY IDOCK:   -0.09 KCAL/MOL
REMARK 927      BINDING AFFINITY PREDICTED BY RF-SCORE:    0.00 PKD
ROOT
HETATM    1  C   UNL     1     -12.359   6.952  71.208  1.00  0.00    -0.422 C  
HETATM    2  C   UNL     1     -12.223   8.263  71.453  1.00  0.00    -0.328 C  
ENDROOT
BRANCH   1   3
HETATM    3  C   UNL     1     -11.169   6.102  71.031  1.00  0.00    -0.296 C  
HETATM    4  O   UNL     1     -10.351   6.219  70.136  1.00  0.00    -0.186 OA 
BRANCH   3   5
HETATM    5  O   UNL     1     -11.160   5.187  72.031  1.00  0.00    -0.145 OA 
HETATM    6  C   UNL     1      -9.913   5.091  72.721  1.00  0.00    -0.163 C  
ENDBRANCH   3   5
ENDBRANCH   1   3
BRANCH   2   7
HETATM    7  C   UNL     1     -13.440   9.074  71.623  1.00  0.00    -0.386 C  
HETATM    8  O   UNL     1     -14.395   8.757  72.314  1.00  0.00    -0.456 OA 
BRANCH   7   9
HETATM    9  O   UNL     1     -13.315  10.209  70.893  1.00  0.00    -0.388 OA 
HETATM   10  C   UNL     1     -12.913  11.340  71.667  1.00  0.00    -0.432 C  
ENDBRANCH   7   9
ENDBRANCH   2   7
TORSDOF 4
ENDMDL
MODEL      122
REMARK 921   NORMALIZED FREE ENERGY PREDICTED BY IDOCK:   -2.58 KCAL/MOL
REMARK 922        TOTAL FREE ENERGY PREDICTED BY IDOCK:   -3.29 KCAL/MOL
REMARK 923 INTER-LIGAND FREE ENERGY PREDICTED BY IDOCK:   -3.22 KCAL/MOL
REMARK 924 INTRA-LIGAND FREE ENERGY PREDICTED BY IDOCK:   -0.06 KCAL/MOL
REMARK 927      BINDING AFFINITY PREDICTED BY RF-SCORE:    0.00 PKD
ROOT
HETATM    1  C   UNL     1     -10.579  10.846  65.836  1.00  0.00    -0.244 C  
HETATM    2  C   UNL     1     -10.557  11.690  66.877  1.00  0.00    -0.276 C  
ENDROOT
BRANCH   1   3
HETATM    3  C   UNL     1      -9.536   9.818  65.689  1.00  0.00    -0.263 C  
HETATM    4  O   UNL     1      -9.159   9.071  66.575  1.00  0.00    -0.146 OA 
BRANCH   3   5
HETATM    5  O   UNL     1      -9.086   9.860  64.411  1.00  0.00    -0.220 OA 
HETATM    6  C   UNL     1      -9.777  10.794  63.580  1.00  0.00    -0.327 C  
ENDBRANCH   3   5
ENDBRANCH   1   3
BRANCH   2   7
HETATM    7  C   UNL     1     -11.621  12.702  66.982  1.00  0.00    -0.365 C  
HETATM    8  O   UNL     1     -11.810  13.412  67.957  1.00  0.00    -0.337 OA 
BRANCH   7   9
HETATM    9  O   UNL     1     -12.336  12.705  65.831  1.00  0.00    -0.593 OA 
HETATM   10  C   UNL     1     -12.308  13.961  65.149  1.00  0.00    -0.449 C  
ENDBRANCH   7   9
ENDBRANCH   2   7
TORSDOF 4
ENDMDL
MODEL      123
REMARK 921   NORMALIZED FREE ENERGY PREDICTED BY IDOCK:   -2.56 KCAL/MOL
REMARK 922        TOTAL FREE ENERGY PREDICTED BY IDOCK:   -3.26 KCAL/MOL
REMARK 923 INTER-LIGAND FREE ENERGY PREDICTED BY IDOCK:   -3.16 KCAL/MOL
REMARK 924 INTRA-LIGAND FREE ENERGY PREDICTED BY IDOCK:   -0.10 KCAL/MOL
REMARK 927      BINDING AFFINITY PREDICTED BY RF-SCORE:    0.00 PKD
ROOT
HETATM    1  C   UNL     1     -10.581   7.444  70.397  1.00  0.00    -0.238 C  
HETATM    2  C   UNL     1     -11.446   8.379  70.810  1.00  0.00    -0.277 C  
ENDROOT
BRANCH   1   3
HETATM    3  C   UNL     1     -10.167   7.386  68.985  1.00  0.00    -0.199 C  
HETATM    4  O   UNL     1      -9.343   8.118  68.465  1.00  0.00    -0.139 OA 
BRANCH   3   5
HETATM    5  O   UNL     1     -10.862   6.387  68.388  1.00  0.00    -0.258 OA 
HETATM    6  C   UNL     1     -10.996   6.532  66.974  1.00  0.00    -0.396 C  
ENDBRANCH   3   5
ENDBRANCH   1   3
BRANCH   2   7
HETATM    7  C   UNL     1     -11.831   8.399  72.231  1.00  0.00    -0.389 C  
HETATM    8  O   UNL     1     -11.244   7.801  73.118  1.00  0.00    -0.402 OA 
BRANCH   7   9
HETATM    9  O   UNL     1     -12.928   9.181  72.377  1.00  0.00    -0.410 OA 
HETATM   10  C   UNL     1     -14.127   8.574  71.891  1.00  0.00    -0.447 C  
ENDBRANCH   7   9
ENDBRANCH   2   7
TORSDOF 4
ENDMDL
MODEL      124
REMARK 921   NORMALIZED FREE ENERGY PREDICTED BY IDOCK:   -2.56 KCAL/MOL
REMARK 922        TOTAL FREE ENERGY PREDICTED BY IDOCK:   -3.26 KCAL/MOL
REMARK 923 INTER-LIGAND FREE ENERGY PREDICTED BY IDOCK:   -3.15 KCAL/MOL
REMARK 924 INTRA-LIGAND FREE ENERGY PREDICTED BY IDOCK:   -0.11 KCAL/MOL
REMARK 927      BINDING AFFINITY PREDICTED BY RF-SCORE:    0.00 PKD
ROOT
HETATM    1  C   UNL     1     -10.150  12.137  66.178  1.00  0.00    -0.251 C  
HETATM    2  C   UNL     1     -11.485  12.031  66.122  1.00  0.00    -0.401 C  
ENDROOT
BRANCH   1   3
HETATM    3  C   UNL     1      -9.385  11.376  67.179  1.00  0.00    -0.172 C  
HETATM    4  O   UNL     1      -9.543  10.194  67.432  1.00  0.00    -0.151 OA 
BRANCH   3   5
HETATM    5  O   UNL     1      -8.494  12.221  67.752  1.00  0.00    -0.144 OA 
HETATM    6  C   UNL     1      -7.166  11.700  67.834  1.00  0.00    -0.083 C  
ENDBRANCH   3   5
ENDBRANCH   1   3
BRANCH   2   7
HETATM    7  C   UNL     1     -12.208  12.811  65.104  1.00  0.00    -0.477 C  
HETATM    8  O   UNL     1     -13.347  12.579  64.731  1.00  0.00    -0.773 OA 
BRANCH   7   9
HETATM    9  O   UNL     1     -11.403  13.809  64.665  1.00  0.00    -0.345 OA 
HETATM   10  C   UNL     1     -12.120  14.964  64.223  1.00  0.00    -0.353 C  
ENDBRANCH   7   9
ENDBRANCH   2   7
TORSDOF 4
ENDMDL
MODEL      125
REMARK 921   NORMALIZED FREE ENERGY PREDICTED BY IDOCK:   -2.55 KCAL/MOL
REMARK 922        TOTAL FREE ENERGY PREDICTED BY IDOCK:   -3.25 KCAL/MOL
REMARK 923 INTER-LIGAND FREE ENERGY PREDICTED BY IDOCK:   -3.12 KCAL/MOL
REMARK 924 INTRA-LIGAND FREE ENERGY PREDICTED BY IDOCK:   -0.13 KCAL/MOL
REMARK 927      BINDING AFFINITY PREDICTED BY RF-SCORE:    0.00 PKD
ROOT
HETATM    1  C   UNL     1     -10.417  11.450  66.724  1.00  0.00    -0.284 C  
HETATM    2  C   UNL     1     -11.156  10.530  67.359  1.00  0.00    -0.322 C  
ENDROOT
BRANCH   1   3
HETATM    3  C   UNL     1     -11.003  12.750  66.357  1.00  0.00    -0.276 C  
HETATM    4  O   UNL     1     -10.400  13.808  66.328  1.00  0.00    -0.281 OA 
BRANCH   3   5
HETATM    5  O   UNL     1     -12.311  12.549  66.063  1.00  0.00    -0.615 OA 
HETATM    6  C   UNL     1     -12.617  12.633  64.671  1.00  0.00    -0.440 C  
ENDBRANCH   3   5
ENDBRANCH   1   3
BRANCH   2   7
HETATM    7  C   UNL     1     -10.528   9.245  67.706  1.00  0.00    -0.255 C  
HETATM    8  O   UNL     1     -10.225   8.903  68.838  1.00  0.00    -0.196 OA 
BRANCH   7   9
HETATM    9  O   UNL     1     -10.349   8.525  66.572  1.00  0.00    -0.283 OA 
HETATM   10  C   UNL     1      -9.252   7.611  66.646  1.00  0.00    -0.170 C  
ENDBRANCH   7   9
ENDBRANCH   2   7
TORSDOF 4
ENDMDL
MODEL      126
REMARK 921   NORMALIZED FREE ENERGY PREDICTED BY IDOCK:   -2.53 KCAL/MOL
REMARK 922        TOTAL FREE ENERGY PREDICTED BY IDOCK:   -3.22 KCAL/MOL
REMARK 923 INTER-LIGAND FREE ENERGY PREDICTED BY IDOCK:   -3.10 KCAL/MOL
REMARK 924 INTRA-LIGAND FREE ENERGY PREDICTED BY IDOCK:   -0.12 KCAL/MOL
REMARK 927      BINDING AFFINITY PREDICTED BY RF-SCORE:    0.00 PKD
ROOT
HETATM    1  C   UNL     1     -11.157   6.850  70.766  1.00  0.00    -0.317 C  
HETATM    2  C   UNL     1     -11.492   6.291  69.596  1.00  0.00    -0.425 C  
ENDROOT
BRANCH   1   3
HETATM    3  C   UNL     1     -12.199   7.357  71.674  1.00  0.00    -0.330 C  
HETATM    4  O   UNL     1     -13.376   7.041  71.636  1.00  0.00    -0.369 OA 
BRANCH   3   5
HETATM    5  O   UNL     1     -11.614   8.221  72.539  1.00  0.00    -0.383 OA 
HETATM    6  C   UNL     1     -10.203   8.355  72.364  1.00  0.00    -0.329 C  
ENDBRANCH   3   5
ENDBRANCH   1   3
BRANCH   2   7
HETATM    7  C   UNL     1     -10.415   5.797  68.720  1.00  0.00    -0.242 C  
HETATM    8  O   UNL     1      -9.373   5.301  69.114  1.00  0.00    -0.113 OA 
BRANCH   7   9
HETATM    9  O   UNL     1     -10.780   5.989  67.429  1.00  0.00    -0.250 OA 
HETATM   10  C   UNL     1     -10.569   7.326  66.972  1.00  0.00    -0.344 C  
ENDBRANCH   7   9
ENDBRANCH   2   7
TORSDOF 4
ENDMDL
MODEL      127
REMARK 921   NORMALIZED FREE ENERGY PREDICTED BY IDOCK:   -2.51 KCAL/MOL
REMARK 922        TOTAL FREE ENERGY PREDICTED BY IDOCK:   -3.20 KCAL/MOL
REMARK 923 INTER-LIGAND FREE ENERGY PREDICTED BY IDOCK:   -3.11 KCAL/MOL
REMARK 924 INTRA-LIGAND FREE ENERGY PREDICTED BY IDOCK:   -0.09 KCAL/MOL
REMARK 927      BINDING AFFINITY PREDICTED BY RF-SCORE:    0.00 PKD
ROOT
HETATM    1  C   UNL     1     -10.734   9.101  71.604  1.00  0.00    -0.441 C  
HETATM    2  C   UNL     1     -10.984   9.470  70.340  1.00  0.00    -0.333 C  
ENDROOT
BRANCH   1   3
HETATM    3  C   UNL     1     -11.774   8.431  72.402  1.00  0.00    -0.382 C  
HETATM    4  O   UNL     1     -12.953   8.738  72.416  1.00  0.00    -0.392 OA 
BRANCH   3   5
HETATM    5  O   UNL     1     -11.183   7.432  73.101  1.00  0.00    -0.335 OA 
HETATM    6  C   UNL     1      -9.795   7.644  73.363  1.00  0.00    -0.303 C  
ENDBRANCH   3   5
ENDBRANCH   1   3
BRANCH   2   7
HETATM    7  C   UNL     1      -9.914  10.137  69.580  1.00  0.00    -0.232 C  
HETATM    8  O   UNL     1      -8.724   9.892  69.695  1.00  0.00    -0.177 OA 
BRANCH   7   9
HETATM    9  O   UNL     1     -10.472  11.050  68.749  1.00  0.00    -0.181 OA 
HETATM   10  C   UNL     1     -11.890  11.156  68.892  1.00  0.00    -0.337 C  
ENDBRANCH   7   9
ENDBRANCH   2   7
TORSDOF 4
ENDMDL
MODEL      128
REMARK 921   NORMALIZED FREE ENERGY PREDICTED BY IDOCK:   -2.50 KCAL/MOL
REMARK 922        TOTAL FREE ENERGY PREDICTED BY IDOCK:   -3.19 KCAL/MOL
REMARK 923 INTER-LIGAND FREE ENERGY PREDICTED BY IDOCK:   -3.07 KCAL/MOL
REMARK 924 INTRA-LIGAND FREE ENERGY PREDICTED BY IDOCK:   -0.12 KCAL/MOL
REMARK 927      BINDING AFFINITY PREDICTED BY RF-SCORE:    0.00 PKD
ROOT
HETATM    1  C   UNL     1     -11.346  10.118  70.468  1.00  0.00    -0.416 C  
HETATM    2  C   UNL     1     -11.477   8.862  70.915  1.00  0.00    -0.339 C  
ENDROOT
BRANCH   1   3
HETATM    3  C   UNL     1     -10.226  10.479  69.583  1.00  0.00    -0.168 C  
HETATM    4  O   UNL     1      -9.204   9.830  69.446  1.00  0.00    -0.178 OA 
BRANCH   3   5
HETATM    5  O   UNL     1     -10.542  11.644  68.966  1.00  0.00    -0.207 OA 
HETATM    6  C   UNL     1     -11.908  11.737  68.560  1.00  0.00    -0.303 C  
ENDBRANCH   3   5
ENDBRANCH   1   3
BRANCH   2   7
HETATM    7  C   UNL     1     -12.613   8.546  71.797  1.00  0.00    -0.346 C  
HETATM    8  O   UNL     1     -13.313   9.378  72.353  1.00  0.00    -0.452 OA 
BRANCH   7   9
HETATM    9  O   UNL     1     -12.741   7.200  71.881  1.00  0.00    -0.321 OA 
HETATM   10  C   UNL     1     -11.709   6.488  71.195  1.00  0.00    -0.335 C  
ENDBRANCH   7   9
ENDBRANCH   2   7
TORSDOF 4
ENDMDL
MODEL      129
REMARK 921   NORMALIZED FREE ENERGY PREDICTED BY IDOCK:   -2.50 KCAL/MOL
REMARK 922        TOTAL FREE ENERGY PREDICTED BY IDOCK:   -3.18 KCAL/MOL
REMARK 923 INTER-LIGAND FREE ENERGY PREDICTED BY IDOCK:   -3.08 KCAL/MOL
REMARK 924 INTRA-LIGAND FREE ENERGY PREDICTED BY IDOCK:   -0.11 KCAL/MOL
REMARK 927      BINDING AFFINITY PREDICTED BY RF-SCORE:    0.00 PKD
ROOT
HETATM    1  C   UNL     1     -11.695   8.606  71.605  1.00  0.00    -0.380 C  
HETATM    2  C   UNL     1     -12.361   7.444  71.566  1.00  0.00    -0.385 C  
ENDROOT
BRANCH   1   3
HETATM    3  C   UNL     1     -12.374   9.865  71.258  1.00  0.00    -0.381 C  
HETATM    4  O   UNL     1     -13.263  10.384  71.910  1.00  0.00    -0.439 OA 
BRANCH   3   5
HETATM    5  O   UNL     1     -11.835  10.325  70.103  1.00  0.00    -0.264 OA 
HETATM    6  C   UNL     1     -10.432  10.086  69.979  1.00  0.00    -0.287 C  
ENDBRANCH   3   5
ENDBRANCH   1   3
BRANCH   2   7
HETATM    7  C   UNL     1     -11.641   6.210  71.921  1.00  0.00    -0.296 C  
HETATM    8  O   UNL     1     -11.856   5.542  72.919  1.00  0.00    -0.247 OA 
BRANCH   7   9
HETATM    9  O   UNL     1     -10.717   5.953  70.963  1.00  0.00    -0.244 OA 
HETATM   10  C   UNL     1      -9.539   5.318  71.467  1.00  0.00    -0.154 C  
ENDBRANCH   7   9
ENDBRANCH   2   7
TORSDOF 4
ENDMDL
MODEL      130
REMARK 921   NORMALIZED FREE ENERGY PREDICTED BY IDOCK:   -2.50 KCAL/MOL
REMARK 922        TOTAL FREE ENERGY PREDICTED BY IDOCK:   -3.18 KCAL/MOL
REMARK 923 INTER-LIGAND FREE ENERGY PREDICTED BY IDOCK:   -3.03 KCAL/MOL
REMARK 924 INTRA-LIGAND FREE ENERGY PREDICTED BY IDOCK:   -0.15 KCAL/MOL
REMARK 927      BINDING AFFINITY PREDICTED BY RF-SCORE:    0.00 PKD
ROOT
HETATM    1  C   UNL     1     -11.232   6.506  69.236  1.00  0.00    -0.390 C  
HETATM    2  C   UNL     1     -10.917   5.884  70.381  1.00  0.00    -0.376 C  
ENDROOT
BRANCH   1   3
HETATM    3  C   UNL     1     -10.706   6.012  67.953  1.00  0.00    -0.284 C  
HETATM    4  O   UNL     1     -11.109   6.350  66.854  1.00  0.00    -0.384 OA 
BRANCH   3   5
HETATM    5  O   UNL     1      -9.712   5.130  68.222  1.00  0.00    -0.129 OA 
HETATM    6  C   UNL     1      -9.608   4.063  67.280  1.00  0.00    -0.189 C  
ENDBRANCH   3   5
ENDBRANCH   1   3
BRANCH   2   7
HETATM    7  C   UNL     1     -11.467   6.413  71.640  1.00  0.00    -0.303 C  
HETATM    8  O   UNL     1     -11.177   6.001  72.752  1.00  0.00    -0.260 OA 
BRANCH   7   9
HETATM    9  O   UNL     1     -12.332   7.416  71.353  1.00  0.00    -0.329 OA 
HETATM   10  C   UNL     1     -12.189   8.552  72.207  1.00  0.00    -0.389 C  
ENDBRANCH   7   9
ENDBRANCH   2   7
TORSDOF 4
ENDMDL
MODEL      131
REMARK 921   NORMALIZED FREE ENERGY PREDICTED BY IDOCK:   -2.49 KCAL/MOL
REMARK 922        TOTAL FREE ENERGY PREDICTED BY IDOCK:   -3.18 KCAL/MOL
REMARK 923 INTER-LIGAND FREE ENERGY PREDICTED BY IDOCK:   -3.07 KCAL/MOL
REMARK 924 INTRA-LIGAND FREE ENERGY PREDICTED BY IDOCK:   -0.11 KCAL/MOL
REMARK 927      BINDING AFFINITY PREDICTED BY RF-SCORE:    0.00 PKD
ROOT
HETATM    1  C   UNL     1     -11.235  11.952  66.747  1.00  0.00    -0.384 C  
HETATM    2  C   UNL     1     -10.974  10.837  67.443  1.00  0.00    -0.361 C  
ENDROOT
BRANCH   1   3
HETATM    3  C   UNL     1     -11.801  13.133  67.420  1.00  0.00    -0.361 C  
HETATM    4  O   UNL     1     -12.508  13.971  66.888  1.00  0.00    -0.364 OA 
BRANCH   3   5
HETATM    5  O   UNL     1     -11.394  13.111  68.713  1.00  0.00    -0.254 OA 
HETATM    6  C   UNL     1     -12.113  14.001  69.566  1.00  0.00    -0.347 C  
ENDBRANCH   3   5
ENDBRANCH   1   3
BRANCH   2   7
HETATM    7  C   UNL     1     -10.408   9.681  66.729  1.00  0.00    -0.222 C  
HETATM    8  O   UNL     1      -9.866   9.736  65.637  1.00  0.00    -0.277 OA 
BRANCH   7   9
HETATM    9  O   UNL     1     -10.592   8.569  67.482  1.00  0.00    -0.256 OA 
HETATM   10  C   UNL     1     -10.265   7.359  66.797  1.00  0.00    -0.242 C  
ENDBRANCH   7   9
ENDBRANCH   2   7
TORSDOF 4
ENDMDL
MODEL      132
REMARK 921   NORMALIZED FREE ENERGY PREDICTED BY IDOCK:   -2.48 KCAL/MOL
REMARK 922        TOTAL FREE ENERGY PREDICTED BY IDOCK:   -3.16 KCAL/MOL
REMARK 923 INTER-LIGAND FREE ENERGY PREDICTED BY IDOCK:   -3.06 KCAL/MOL
REMARK 924 INTRA-LIGAND FREE ENERGY PREDICTED BY IDOCK:   -0.10 KCAL/MOL
REMARK 927      BINDING AFFINITY PREDICTED BY RF-SCORE:    0.00 PKD
ROOT
HETATM    1  C   UNL     1     -11.614   8.710  70.489  1.00  0.00    -0.158 C  
HETATM    2  C   UNL     1     -11.067   9.933  70.458  1.00  0.00    -0.398 C  
ENDROOT
BRANCH   1   3
HETATM    3  C   UNL     1     -11.453   7.855  71.677  1.00  0.00    -0.263 C  
HETATM    4  O   UNL     1     -11.133   8.247  72.785  1.00  0.00    -0.367 OA 
BRANCH   3   5
HETATM    5  O   UNL     1     -11.723   6.578  71.310  1.00  0.00    -0.311 OA 
HETATM    6  C   UNL     1     -11.143   6.194  70.063  1.00  0.00    -0.392 C  
ENDBRANCH   3   5
ENDBRANCH   1   3
BRANCH   2   7
HETATM    7  C   UNL     1     -11.253  10.753  69.249  1.00  0.00    -0.272 C  
HETATM    8  O   UNL     1     -12.305  10.863  68.640  1.00  0.00    -0.501 OA 
BRANCH   7   9
HETATM    9  O   UNL     1     -10.076  11.350  68.940  1.00  0.00    -0.204 OA 
HETATM   10  C   UNL     1     -10.191  12.332  67.909  1.00  0.00    -0.200 C  
ENDBRANCH   7   9
ENDBRANCH   2   7
TORSDOF 4
ENDMDL
MODEL      133
REMARK 921   NORMALIZED FREE ENERGY PREDICTED BY IDOCK:   -2.48 KCAL/MOL
REMARK 922        TOTAL FREE ENERGY PREDICTED BY IDOCK:   -3.16 KCAL/MOL
REMARK 923 INTER-LIGAND FREE ENERGY PREDICTED BY IDOCK:   -3.08 KCAL/MOL
REMARK 924 INTRA-LIGAND FREE ENERGY PREDICTED BY IDOCK:   -0.09 KCAL/MOL
REMARK 927      BINDING AFFINITY PREDICTED BY RF-SCORE:    0.00 PKD
ROOT
HETATM    1  C   UNL     1      -9.598   8.522  72.257  1.00  0.00    -0.377 C  
HETATM    2  C   UNL     1     -10.377   9.119  71.344  1.00  0.00    -0.409 C  
ENDROOT
BRANCH   1   3
HETATM    3  C   UNL     1      -8.164   8.319  71.991  1.00  0.00    -0.160 C  
HETATM    4  O   UNL     1      -7.706   7.739  71.023  1.00  0.00    -0.081 OA 
BRANCH   3   5
HETATM    5  O   UNL     1      -7.468   8.888  73.006  1.00  0.00    -0.355 OA 
HETATM    6  C   UNL     1      -7.444   8.111  74.204  1.00  0.00    -0.191 C  
ENDBRANCH   3   5
ENDBRANCH   1   3
BRANCH   2   7
HETATM    7  C   UNL     1     -11.805   9.302  71.653  1.00  0.00    -0.383 C  
HETATM    8  O   UNL     1     -12.456   8.573  72.385  1.00  0.00    -0.373 OA 
BRANCH   7   9
HETATM    9  O   UNL     1     -12.258  10.397  70.996  1.00  0.00    -0.326 OA 
HETATM   10  C   UNL     1     -13.107  11.226  71.793  1.00  0.00    -0.422 C  
ENDBRANCH   7   9
ENDBRANCH   2   7
TORSDOF 4
ENDMDL
MODEL      134
REMARK 921   NORMALIZED FREE ENERGY PREDICTED BY IDOCK:   -2.48 KCAL/MOL
REMARK 922        TOTAL FREE ENERGY PREDICTED BY IDOCK:   -3.16 KCAL/MOL
REMARK 923 INTER-LIGAND FREE ENERGY PREDICTED BY IDOCK:   -3.02 KCAL/MOL
REMARK 924 INTRA-LIGAND FREE ENERGY PREDICTED BY IDOCK:   -0.13 KCAL/MOL
REMARK 927      BINDING AFFINITY PREDICTED BY RF-SCORE:    0.00 PKD
ROOT
HETATM    1  C   UNL     1     -11.139  10.713  67.871  1.00  0.00    -0.371 C  
HETATM    2  C   UNL     1     -10.789  10.285  69.092  1.00  0.00    -0.270 C  
ENDROOT
BRANCH   1   3
HETATM    3  C   UNL     1     -11.527  12.117  67.659  1.00  0.00    -0.331 C  
HETATM    4  O   UNL     1     -12.248  12.517  66.762  1.00  0.00    -0.532 OA 
BRANCH   3   5
HETATM    5  O   UNL     1     -10.942  12.861  68.629  1.00  0.00    -0.244 OA 
HETATM    6  C   UNL     1     -11.662  14.046  68.969  1.00  0.00    -0.330 C  
ENDBRANCH   3   5
ENDBRANCH   1   3
BRANCH   2   7
HETATM    7  C   UNL     1     -10.409   8.872  69.257  1.00  0.00    -0.213 C  
HETATM    8  O   UNL     1     -10.433   8.037  68.367  1.00  0.00    -0.206 OA 
BRANCH   7   9
HETATM    9  O   UNL     1     -10.035   8.668  70.544  1.00  0.00    -0.179 OA 
HETATM   10  C   UNL     1     -11.033   9.047  71.493  1.00  0.00    -0.348 C  
ENDBRANCH   7   9
ENDBRANCH   2   7
TORSDOF 4
ENDMDL
MODEL      135
REMARK 921   NORMALIZED FREE ENERGY PREDICTED BY IDOCK:   -2.45 KCAL/MOL
REMARK 922        TOTAL FREE ENERGY PREDICTED BY IDOCK:   -3.12 KCAL/MOL
REMARK 923 INTER-LIGAND FREE ENERGY PREDICTED BY IDOCK:   -3.00 KCAL/MOL
REMARK 924 INTRA-LIGAND FREE ENERGY PREDICTED BY IDOCK:   -0.12 KCAL/MOL
REMARK 927      BINDING AFFINITY PREDICTED BY RF-SCORE:    0.00 PKD
ROOT
HETATM    1  C   UNL     1     -10.725   9.757  67.149  1.00  0.00    -0.273 C  
HETATM    2  C   UNL     1     -10.474   9.925  68.455  1.00  0.00    -0.239 C  
ENDROOT
BRANCH   1   3
HETATM    3  C   UNL     1      -9.808   8.967  66.312  1.00  0.00    -0.285 C  
HETATM    4  O   UNL     1      -9.667   7.758  66.375  1.00  0.00    -0.206 OA 
BRANCH   3   5
HETATM    5  O   UNL     1      -9.167   9.821  65.477  1.00  0.00    -0.181 OA 
HETATM    6  C   UNL     1     -10.004  10.395  64.473  1.00  0.00    -0.331 C  
ENDBRANCH   3   5
ENDBRANCH   1   3
BRANCH   2   7
HETATM    7  C   UNL     1     -11.419  10.723  69.254  1.00  0.00    -0.298 C  
HETATM    8  O   UNL     1     -11.573  10.615  70.459  1.00  0.00    -0.315 OA 
BRANCH   7   9
HETATM    9  O   UNL     1     -12.072  11.579  68.431  1.00  0.00    -0.556 OA 
HETATM   10  C   UNL     1     -11.800  12.954  68.710  1.00  0.00    -0.315 C  
ENDBRANCH   7   9
ENDBRANCH   2   7
TORSDOF 4
ENDMDL
MODEL      136
REMARK 921   NORMALIZED FREE ENERGY PREDICTED BY IDOCK:   -2.42 KCAL/MOL
REMARK 922        TOTAL FREE ENERGY PREDICTED BY IDOCK:   -3.09 KCAL/MOL
REMARK 923 INTER-LIGAND FREE ENERGY PREDICTED BY IDOCK:   -2.98 KCAL/MOL
REMARK 924 INTRA-LIGAND FREE ENERGY PREDICTED BY IDOCK:   -0.11 KCAL/MOL
REMARK 927      BINDING AFFINITY PREDICTED BY RF-SCORE:    0.00 PKD
ROOT
HETATM    1  C   UNL     1      -7.323  18.125  68.100  1.00  0.00    -0.254 C  
HETATM    2  C   UNL     1      -7.438  19.400  68.498  1.00  0.00    -0.366 C  
ENDROOT
BRANCH   1   3
HETATM    3  C   UNL     1      -6.831  17.097  69.031  1.00  0.00    -0.231 C  
HETATM    4  O   UNL     1      -7.501  16.190  69.493  1.00  0.00    -0.216 OA 
BRANCH   3   5
HETATM    5  O   UNL     1      -5.520  17.346  69.271  1.00  0.00    -0.170 OA 
HETATM    6  C   UNL     1      -5.194  17.476  70.655  1.00  0.00    -0.268 C  
ENDBRANCH   3   5
ENDBRANCH   1   3
BRANCH   2   7
HETATM    7  C   UNL     1      -7.935  20.394  67.533  1.00  0.00    -0.291 C  
HETATM    8  O   UNL     1      -9.006  20.322  66.952  1.00  0.00    -0.335 OA 
BRANCH   7   9
HETATM    9  O   UNL     1      -7.014  21.380  67.408  1.00  0.00    -0.572 OA 
HETATM   10  C   UNL     1      -6.134  21.198  66.297  1.00  0.00    -0.277 C  
ENDBRANCH   7   9
ENDBRANCH   2   7
TORSDOF 4
ENDMDL
MODEL      137
REMARK 921   NORMALIZED FREE ENERGY PREDICTED BY IDOCK:   -2.40 KCAL/MOL
REMARK 922        TOTAL FREE ENERGY PREDICTED BY IDOCK:   -3.06 KCAL/MOL
REMARK 923 INTER-LIGAND FREE ENERGY PREDICTED BY IDOCK:   -2.98 KCAL/MOL
REMARK 924 INTRA-LIGAND FREE ENERGY PREDICTED BY IDOCK:   -0.09 KCAL/MOL
REMARK 927      BINDING AFFINITY PREDICTED BY RF-SCORE:    0.00 PKD
ROOT
HETATM    1  C   UNL     1     -11.056   6.104  68.731  1.00  0.00    -0.398 C  
HETATM    2  C   UNL     1     -11.208   6.980  69.733  1.00  0.00    -0.257 C  
ENDROOT
BRANCH   1   3
HETATM    3  C   UNL     1     -10.544   6.551  67.425  1.00  0.00    -0.298 C  
HETATM    4  O   UNL     1     -10.761   7.639  66.921  1.00  0.00    -0.351 OA 
BRANCH   3   5
HETATM    5  O   UNL     1      -9.802   5.544  66.903  1.00  0.00    -0.136 OA 
HETATM    6  C   UNL     1     -10.500   4.735  65.955  1.00  0.00    -0.292 C  
ENDBRANCH   3   5
ENDBRANCH   1   3
BRANCH   2   7
HETATM    7  C   UNL     1     -11.724   6.489  71.022  1.00  0.00    -0.343 C  
HETATM    8  O   UNL     1     -12.774   6.845  71.532  1.00  0.00    -0.370 OA 
BRANCH   7   9
HETATM    9  O   UNL     1     -10.845   5.590  71.530  1.00  0.00    -0.244 OA 
HETATM   10  C   UNL     1     -10.985   5.394  72.938  1.00  0.00    -0.287 C  
ENDBRANCH   7   9
ENDBRANCH   2   7
TORSDOF 4
ENDMDL
MODEL      138
REMARK 921   NORMALIZED FREE ENERGY PREDICTED BY IDOCK:   -2.40 KCAL/MOL
REMARK 922        TOTAL FREE ENERGY PREDICTED BY IDOCK:   -3.06 KCAL/MOL
REMARK 923 INTER-LIGAND FREE ENERGY PREDICTED BY IDOCK:   -3.02 KCAL/MOL
REMARK 924 INTRA-LIGAND FREE ENERGY PREDICTED BY IDOCK:   -0.04 KCAL/MOL
REMARK 927      BINDING AFFINITY PREDICTED BY RF-SCORE:    0.00 PKD
ROOT
HETATM    1  C   UNL     1      -8.102  18.186  68.082  1.00  0.00    -0.289 C  
HETATM    2  C   UNL     1      -7.051  18.959  67.774  1.00  0.00    -0.245 C  
ENDROOT
BRANCH   1   3
HETATM    3  C   UNL     1      -8.737  17.350  67.051  1.00  0.00    -0.234 C  
HETATM    4  O   UNL     1      -8.702  17.567  65.852  1.00  0.00    -0.525 OA 
BRANCH   3   5
HETATM    5  O   UNL     1      -9.354  16.316  67.675  1.00  0.00    -0.216 OA 
HETATM    6  C   UNL     1     -10.707  16.112  67.267  1.00  0.00    -0.277 C  
ENDBRANCH   3   5
ENDBRANCH   1   3
BRANCH   2   7
HETATM    7  C   UNL     1      -6.448  19.778  68.838  1.00  0.00    -0.303 C  
HETATM    8  O   UNL     1      -6.227  19.390  69.974  1.00  0.00    -0.268 OA 
BRANCH   7   9
HETATM    9  O   UNL     1      -6.187  21.013  68.344  1.00  0.00    -0.331 OA 
HETATM   10  C   UNL     1      -6.549  21.163  66.970  1.00  0.00    -0.335 C  
ENDBRANCH   7   9
ENDBRANCH   2   7
TORSDOF 4
ENDMDL
MODEL      139
REMARK 921   NORMALIZED FREE ENERGY PREDICTED BY IDOCK:   -2.40 KCAL/MOL
REMARK 922        TOTAL FREE ENERGY PREDICTED BY IDOCK:   -3.06 KCAL/MOL
REMARK 923 INTER-LIGAND FREE ENERGY PREDICTED BY IDOCK:   -2.94 KCAL/MOL
REMARK 924 INTRA-LIGAND FREE ENERGY PREDICTED BY IDOCK:   -0.12 KCAL/MOL
REMARK 927      BINDING AFFINITY PREDICTED BY RF-SCORE:    0.00 PKD
ROOT
HETATM    1  C   UNL     1     -11.365   6.295  69.317  1.00  0.00    -0.411 C  
HETATM    2  C   UNL     1     -11.231   7.288  70.206  1.00  0.00    -0.287 C  
ENDROOT
BRANCH   1   3
HETATM    3  C   UNL     1     -10.541   6.273  68.097  1.00  0.00    -0.257 C  
HETATM    4  O   UNL     1      -9.552   5.580  67.932  1.00  0.00    -0.116 OA 
BRANCH   3   5
HETATM    5  O   UNL     1     -11.079   7.149  67.215  1.00  0.00    -0.288 OA 
HETATM    6  C   UNL     1     -10.155   8.115  66.714  1.00  0.00    -0.295 C  
ENDBRANCH   3   5
ENDBRANCH   1   3
BRANCH   2   7
HETATM    7  C   UNL     1     -12.077   7.269  71.411  1.00  0.00    -0.335 C  
HETATM    8  O   UNL     1     -13.192   6.777  71.470  1.00  0.00    -0.291 OA 
BRANCH   7   9
HETATM    9  O   UNL     1     -11.412   7.881  72.421  1.00  0.00    -0.324 OA 
HETATM   10  C   UNL     1     -10.265   8.614  71.984  1.00  0.00    -0.337 C  
ENDBRANCH   7   9
ENDBRANCH   2   7
TORSDOF 4
ENDMDL
MODEL      140
REMARK 921   NORMALIZED FREE ENERGY PREDICTED BY IDOCK:   -2.39 KCAL/MOL
REMARK 922        TOTAL FREE ENERGY PREDICTED BY IDOCK:   -3.05 KCAL/MOL
REMARK 923 INTER-LIGAND FREE ENERGY PREDICTED BY IDOCK:   -2.95 KCAL/MOL
REMARK 924 INTRA-LIGAND FREE ENERGY PREDICTED BY IDOCK:   -0.10 KCAL/MOL
REMARK 927      BINDING AFFINITY PREDICTED BY RF-SCORE:    0.00 PKD
ROOT
HETATM    1  C   UNL     1     -11.511   9.107  70.985  1.00  0.00    -0.372 C  
HETATM    2  C   UNL     1     -11.531   7.774  70.851  1.00  0.00    -0.294 C  
ENDROOT
BRANCH   1   3
HETATM    3  C   UNL     1     -10.487   9.908  70.294  1.00  0.00    -0.291 C  
HETATM    4  O   UNL     1     -10.715  10.831  69.532  1.00  0.00    -0.227 OA 
BRANCH   3   5
HETATM    5  O   UNL     1      -9.271   9.432  70.658  1.00  0.00    -0.244 OA 
HETATM    6  C   UNL     1      -8.202   9.854  69.811  1.00  0.00    -0.180 C  
ENDBRANCH   3   5
ENDBRANCH   1   3
BRANCH   2   7
HETATM    7  C   UNL     1     -12.574   7.014  71.560  1.00  0.00    -0.385 C  
HETATM    8  O   UNL     1     -13.765   7.275  71.530  1.00  0.00    -0.390 OA 
BRANCH   7   9
HETATM    9  O   UNL     1     -11.988   5.995  72.237  1.00  0.00    -0.318 OA 
HETATM   10  C   UNL     1     -10.693   5.654  71.739  1.00  0.00    -0.244 C  
ENDBRANCH   7   9
ENDBRANCH   2   7
TORSDOF 4
ENDMDL
MODEL      141
REMARK 921   NORMALIZED FREE ENERGY PREDICTED BY IDOCK:   -2.38 KCAL/MOL
REMARK 922        TOTAL FREE ENERGY PREDICTED BY IDOCK:   -3.04 KCAL/MOL
REMARK 923 INTER-LIGAND FREE ENERGY PREDICTED BY IDOCK:   -2.94 KCAL/MOL
REMARK 924 INTRA-LIGAND FREE ENERGY PREDICTED BY IDOCK:   -0.10 KCAL/MOL
REMARK 927      BINDING AFFINITY PREDICTED BY RF-SCORE:    0.00 PKD
ROOT
HETATM    1  C   UNL     1     -10.224  12.392  66.982  1.00  0.00    -0.232 C  
HETATM    2  C   UNL     1      -9.793  13.179  67.977  1.00  0.00    -0.231 C  
ENDROOT
BRANCH   1   3
HETATM    3  C   UNL     1     -11.572  11.802  67.032  1.00  0.00    -0.244 C  
HETATM    4  O   UNL     1     -12.003  11.115  67.941  1.00  0.00    -0.624 OA 
BRANCH   3   5
HETATM    5  O   UNL     1     -12.225  12.160  65.899  1.00  0.00    -0.604 OA 
HETATM    6  C   UNL     1     -11.423  12.101  64.720  1.00  0.00    -0.322 C  
ENDBRANCH   3   5
ENDBRANCH   1   3
BRANCH   2   7
HETATM    7  C   UNL     1      -8.438  13.748  67.884  1.00  0.00    -0.176 C  
HETATM    8  O   UNL     1      -7.467  13.160  67.434  1.00  0.00    -0.156 OA 
BRANCH   7   9
HETATM    9  O   UNL     1      -8.459  15.010  68.376  1.00  0.00    -0.142 OA 
HETATM   10  C   UNL     1      -7.489  15.237  69.400  1.00  0.00    -0.212 C  
ENDBRANCH   7   9
ENDBRANCH   2   7
TORSDOF 4
ENDMDL
MODEL      142
REMARK 921   NORMALIZED FREE ENERGY PREDICTED BY IDOCK:   -2.36 KCAL/MOL
REMARK 922        TOTAL FREE ENERGY PREDICTED BY IDOCK:   -3.01 KCAL/MOL
REMARK 923 INTER-LIGAND FREE ENERGY PREDICTED BY IDOCK:   -2.90 KCAL/MOL
REMARK 924 INTRA-LIGAND FREE ENERGY PREDICTED BY IDOCK:   -0.11 KCAL/MOL
REMARK 927      BINDING AFFINITY PREDICTED BY RF-SCORE:    0.00 PKD
ROOT
HETATM    1  C   UNL     1     -10.760   5.895  70.409  1.00  0.00    -0.373 C  
HETATM    2  C   UNL     1     -11.414   6.417  69.362  1.00  0.00    -0.374 C  
ENDROOT
BRANCH   1   3
HETATM    3  C   UNL     1     -11.305   6.034  71.770  1.00  0.00    -0.265 C  
HETATM    4  O   UNL     1     -11.241   5.184  72.641  1.00  0.00    -0.246 OA 
BRANCH   3   5
HETATM    5  O   UNL     1     -11.878   7.259  71.866  1.00  0.00    -0.279 OA 
HETATM    6  C   UNL     1     -11.110   8.205  72.611  1.00  0.00    -0.380 C  
ENDBRANCH   3   5
ENDBRANCH   1   3
BRANCH   2   7
HETATM    7  C   UNL     1     -10.831   6.254  68.020  1.00  0.00    -0.326 C  
HETATM    8  O   UNL     1     -10.303   5.232  67.612  1.00  0.00    -0.185 OA 
BRANCH   7   9
HETATM    9  O   UNL     1     -10.982   7.413  67.334  1.00  0.00    -0.243 OA 
HETATM   10  C   UNL     1      -9.744   7.994  66.922  1.00  0.00    -0.225 C  
ENDBRANCH   7   9
ENDBRANCH   2   7
TORSDOF 4
ENDMDL
MODEL      143
REMARK 921   NORMALIZED FREE ENERGY PREDICTED BY IDOCK:   -2.35 KCAL/MOL
REMARK 922        TOTAL FREE ENERGY PREDICTED BY IDOCK:   -3.00 KCAL/MOL
REMARK 923 INTER-LIGAND FREE ENERGY PREDICTED BY IDOCK:   -2.88 KCAL/MOL
REMARK 924 INTRA-LIGAND FREE ENERGY PREDICTED BY IDOCK:   -0.12 KCAL/MOL
REMARK 927      BINDING AFFINITY PREDICTED BY RF-SCORE:    0.00 PKD
ROOT
HETATM    1  C   UNL     1      -9.016  18.910  68.265  1.00  0.00    -0.364 C  
HETATM    2  C   UNL     1      -8.481  19.125  67.055  1.00  0.00    -0.304 C  
ENDROOT
BRANCH   1   3
HETATM    3  C   UNL     1     -10.050  17.878  68.447  1.00  0.00    -0.383 C  
HETATM    4  O   UNL     1     -10.533  17.551  69.517  1.00  0.00    -0.217 OA 
BRANCH   3   5
HETATM    5  O   UNL     1     -10.354  17.373  67.226  1.00  0.00    -0.322 OA 
HETATM    6  C   UNL     1     -10.408  15.947  67.182  1.00  0.00    -0.300 C  
ENDBRANCH   3   5
ENDBRANCH   1   3
BRANCH   2   7
HETATM    7  C   UNL     1      -7.450  20.168  66.920  1.00  0.00    -0.281 C  
HETATM    8  O   UNL     1      -7.062  20.627  65.859  1.00  0.00    -0.180 OA 
BRANCH   7   9
HETATM    9  O   UNL     1      -7.020  20.519  68.156  1.00  0.00    -0.283 OA 
HETATM   10  C   UNL     1      -5.636  20.240  68.376  1.00  0.00    -0.244 C  
ENDBRANCH   7   9
ENDBRANCH   2   7
TORSDOF 4
ENDMDL
MODEL      144
REMARK 921   NORMALIZED FREE ENERGY PREDICTED BY IDOCK:   -2.33 KCAL/MOL
REMARK 922        TOTAL FREE ENERGY PREDICTED BY IDOCK:   -2.98 KCAL/MOL
REMARK 923 INTER-LIGAND FREE ENERGY PREDICTED BY IDOCK:   -2.90 KCAL/MOL
REMARK 924 INTRA-LIGAND FREE ENERGY PREDICTED BY IDOCK:   -0.08 KCAL/MOL
REMARK 927      BINDING AFFINITY PREDICTED BY RF-SCORE:    0.00 PKD
ROOT
HETATM    1  C   UNL     1     -10.113  13.282  66.540  1.00  0.00    -0.275 C  
HETATM    2  C   UNL     1      -9.335  12.746  67.491  1.00  0.00    -0.189 C  
ENDROOT
BRANCH   1   3
HETATM    3  C   UNL     1     -11.575  13.122  66.599  1.00  0.00    -0.356 C  
HETATM    4  O   UNL     1     -12.157  12.135  67.014  1.00  0.00    -0.591 OA 
BRANCH   3   5
HETATM    5  O   UNL     1     -12.137  14.257  66.115  1.00  0.00    -0.407 OA 
HETATM    6  C   UNL     1     -12.128  14.351  64.690  1.00  0.00    -0.471 C  
ENDBRANCH   3   5
ENDBRANCH   1   3
BRANCH   2   7
HETATM    7  C   UNL     1      -7.878  12.932  67.391  1.00  0.00    -0.170 C  
HETATM    8  O   UNL     1      -7.309  14.010  67.445  1.00  0.00    -0.177 OA 
BRANCH   7   9
HETATM    9  O   UNL     1      -7.293  11.719  67.233  1.00  0.00    -0.123 OA 
HETATM   10  C   UNL     1      -5.868  11.783  67.152  1.00  0.00    -0.136 C  
ENDBRANCH   7   9
ENDBRANCH   2   7
TORSDOF 4
ENDMDL
MODEL      145
REMARK 921   NORMALIZED FREE ENERGY PREDICTED BY IDOCK:   -2.30 KCAL/MOL
REMARK 922        TOTAL FREE ENERGY PREDICTED BY IDOCK:   -2.94 KCAL/MOL
REMARK 923 INTER-LIGAND FREE ENERGY PREDICTED BY IDOCK:   -2.85 KCAL/MOL
REMARK 924 INTRA-LIGAND FREE ENERGY PREDICTED BY IDOCK:   -0.09 KCAL/MOL
REMARK 927      BINDING AFFINITY PREDICTED BY RF-SCORE:    0.00 PKD
ROOT
HETATM    1  C   UNL     1     -11.231  10.380  69.523  1.00  0.00    -0.325 C  
HETATM    2  C   UNL     1     -10.858   9.421  68.664  1.00  0.00    -0.149 C  
ENDROOT
BRANCH   1   3
HETATM    3  C   UNL     1     -11.882  10.027  70.795  1.00  0.00    -0.346 C  
HETATM    4  O   UNL     1     -13.085  10.030  70.991  1.00  0.00    -0.375 OA 
BRANCH   3   5
HETATM    5  O   UNL     1     -10.911   9.706  71.685  1.00  0.00    -0.322 OA 
HETATM    6  C   UNL     1     -10.949   8.348  72.124  1.00  0.00    -0.341 C  
ENDBRANCH   3   5
ENDBRANCH   1   3
BRANCH   2   7
HETATM    7  C   UNL     1     -10.209   9.822  67.405  1.00  0.00    -0.230 C  
HETATM    8  O   UNL     1      -9.871  10.961  67.129  1.00  0.00    -0.179 OA 
BRANCH   7   9
HETATM    9  O   UNL     1     -10.058   8.725  66.623  1.00  0.00    -0.258 OA 
HETATM   10  C   UNL     1     -10.465   7.513  67.261  1.00  0.00    -0.321 C  
ENDBRANCH   7   9
ENDBRANCH   2   7
TORSDOF 4
ENDMDL
MODEL      146
REMARK 921   NORMALIZED FREE ENERGY PREDICTED BY IDOCK:   -2.29 KCAL/MOL
REMARK 922        TOTAL FREE ENERGY PREDICTED BY IDOCK:   -2.93 KCAL/MOL
REMARK 923 INTER-LIGAND FREE ENERGY PREDICTED BY IDOCK:   -2.83 KCAL/MOL
REMARK 924 INTRA-LIGAND FREE ENERGY PREDICTED BY IDOCK:   -0.10 KCAL/MOL
REMARK 927      BINDING AFFINITY PREDICTED BY RF-SCORE:    0.00 PKD
ROOT
HETATM    1  C   UNL     1     -10.348   9.319  67.286  1.00  0.00    -0.332 C  
HETATM    2  C   UNL     1     -10.382  10.560  67.789  1.00  0.00    -0.248 C  
ENDROOT
BRANCH   1   3
HETATM    3  C   UNL     1      -9.106   8.530  67.337  1.00  0.00    -0.133 C  
HETATM    4  O   UNL     1      -8.378   8.430  68.309  1.00  0.00    -0.128 OA 
BRANCH   3   5
HETATM    5  O   UNL     1      -8.932   7.949  66.124  1.00  0.00    -0.168 OA 
HETATM    6  C   UNL     1      -7.575   7.625  65.822  1.00  0.00    -0.088 C  
ENDBRANCH   3   5
ENDBRANCH   1   3
BRANCH   2   7
HETATM    7  C   UNL     1     -11.646  11.312  67.717  1.00  0.00    -0.230 C  
HETATM    8  O   UNL     1     -11.958  12.060  66.804  1.00  0.00    -0.616 OA 
BRANCH   7   9
HETATM    9  O   UNL     1     -12.384  11.033  68.818  1.00  0.00    -0.533 OA 
HETATM   10  C   UNL     1     -11.789  11.495  70.033  1.00  0.00    -0.355 C  
ENDBRANCH   7   9
ENDBRANCH   2   7
TORSDOF 4
ENDMDL
MODEL      147
REMARK 921   NORMALIZED FREE ENERGY PREDICTED BY IDOCK:   -2.28 KCAL/MOL
REMARK 922        TOTAL FREE ENERGY PREDICTED BY IDOCK:   -2.92 KCAL/MOL
REMARK 923 INTER-LIGAND FREE ENERGY PREDICTED BY IDOCK:   -2.83 KCAL/MOL
REMARK 924 INTRA-LIGAND FREE ENERGY PREDICTED BY IDOCK:   -0.09 KCAL/MOL
REMARK 927      BINDING AFFINITY PREDICTED BY RF-SCORE:    0.00 PKD
ROOT
HETATM    1  C   UNL     1      -7.808  18.346  68.032  1.00  0.00    -0.286 C  
HETATM    2  C   UNL     1      -9.125  18.418  67.796  1.00  0.00    -0.288 C  
ENDROOT
BRANCH   1   3
HETATM    3  C   UNL     1      -7.077  19.523  68.529  1.00  0.00    -0.317 C  
HETATM    4  O   UNL     1      -6.892  20.550  67.900  1.00  0.00    -0.288 OA 
BRANCH   3   5
HETATM    5  O   UNL     1      -6.659  19.252  69.790  1.00  0.00    -0.267 OA 
HETATM    6  C   UNL     1      -5.960  20.328  70.417  1.00  0.00    -0.340 C  
ENDBRANCH   3   5
ENDBRANCH   1   3
BRANCH   2   7
HETATM    7  C   UNL     1      -9.815  17.215  67.300  1.00  0.00    -0.265 C  
HETATM    8  O   UNL     1     -10.460  17.162  66.265  1.00  0.00    -0.319 OA 
BRANCH   7   9
HETATM    9  O   UNL     1      -9.612  16.202  68.177  1.00  0.00    -0.213 OA 
HETATM   10  C   UNL     1     -10.434  15.060  67.925  1.00  0.00    -0.247 C  
ENDBRANCH   7   9
ENDBRANCH   2   7
TORSDOF 4
ENDMDL
MODEL      148
REMARK 921   NORMALIZED FREE ENERGY PREDICTED BY IDOCK:   -2.26 KCAL/MOL
REMARK 922        TOTAL FREE ENERGY PREDICTED BY IDOCK:   -2.89 KCAL/MOL
REMARK 923 INTER-LIGAND FREE ENERGY PREDICTED BY IDOCK:   -2.82 KCAL/MOL
REMARK 924 INTRA-LIGAND FREE ENERGY PREDICTED BY IDOCK:   -0.07 KCAL/MOL
REMARK 927      BINDING AFFINITY PREDICTED BY RF-SCORE:    0.00 PKD
ROOT
HETATM    1  C   UNL     1     -10.933  10.232  68.284  1.00  0.00    -0.315 C  
HETATM    2  C   UNL     1     -11.438  11.339  68.845  1.00  0.00    -0.363 C  
ENDROOT
BRANCH   1   3
HETATM    3  C   UNL     1     -10.637   9.049  69.108  1.00  0.00    -0.203 C  
HETATM    4  O   UNL     1     -10.849   8.956  70.304  1.00  0.00    -0.230 OA 
BRANCH   3   5
HETATM    5  O   UNL     1     -10.095   8.104  68.300  1.00  0.00    -0.185 OA 
HETATM    6  C   UNL     1     -10.340   6.763  68.725  1.00  0.00    -0.196 C  
ENDBRANCH   3   5
ENDBRANCH   1   3
BRANCH   2   7
HETATM    7  C   UNL     1     -11.719  12.498  67.982  1.00  0.00    -0.355 C  
HETATM    8  O   UNL     1     -11.580  12.511  66.770  1.00  0.00    -0.342 OA 
BRANCH   7   9
HETATM    9  O   UNL     1     -12.151  13.524  68.755  1.00  0.00    -0.344 OA 
HETATM   10  C   UNL     1     -11.304  14.674  68.696  1.00  0.00    -0.283 C  
ENDBRANCH   7   9
ENDBRANCH   2   7
TORSDOF 4
ENDMDL
MODEL      149
REMARK 921   NORMALIZED FREE ENERGY PREDICTED BY IDOCK:   -2.26 KCAL/MOL
REMARK 922        TOTAL FREE ENERGY PREDICTED BY IDOCK:   -2.89 KCAL/MOL
REMARK 923 INTER-LIGAND FREE ENERGY PREDICTED BY IDOCK:   -2.78 KCAL/MOL
REMARK 924 INTRA-LIGAND FREE ENERGY PREDICTED BY IDOCK:   -0.11 KCAL/MOL
REMARK 927      BINDING AFFINITY PREDICTED BY RF-SCORE:    0.00 PKD
ROOT
HETATM    1  C   UNL     1     -10.817   9.118  71.130  1.00  0.00    -0.381 C  
HETATM    2  C   UNL     1     -10.238   8.431  70.136  1.00  0.00    -0.198 C  
ENDROOT
BRANCH   1   3
HETATM    3  C   UNL     1     -11.730  10.233  70.830  1.00  0.00    -0.379 C  
HETATM    4  O   UNL     1     -11.658  10.953  69.851  1.00  0.00    -0.273 OA 
BRANCH   3   5
HETATM    5  O   UNL     1     -12.644  10.302  71.829  1.00  0.00    -0.405 OA 
HETATM    6  C   UNL     1     -13.280   9.059  72.125  1.00  0.00    -0.446 C  
ENDBRANCH   3   5
ENDBRANCH   1   3
BRANCH   2   7
HETATM    7  C   UNL     1      -9.332   7.323  70.483  1.00  0.00    -0.158 C  
HETATM    8  O   UNL     1      -8.462   7.380  71.336  1.00  0.00    -0.112 OA 
BRANCH   7   9
HETATM    9  O   UNL     1      -9.630   6.254  69.706  1.00  0.00    -0.150 OA 
HETATM   10  C   UNL     1     -10.402   5.259  70.380  1.00  0.00    -0.275 C  
ENDBRANCH   7   9
ENDBRANCH   2   7
TORSDOF 4
ENDMDL
MODEL      150
REMARK 921   NORMALIZED FREE ENERGY PREDICTED BY IDOCK:   -2.25 KCAL/MOL
REMARK 922        TOTAL FREE ENERGY PREDICTED BY IDOCK:   -2.87 KCAL/MOL
REMARK 923 INTER-LIGAND FREE ENERGY PREDICTED BY IDOCK:   -2.75 KCAL/MOL
REMARK 924 INTRA-LIGAND FREE ENERGY PREDICTED BY IDOCK:   -0.12 KCAL/MOL
REMARK 927      BINDING AFFINITY PREDICTED BY RF-SCORE:    0.00 PKD
ROOT
HETATM    1  C   UNL     1     -10.661   8.962  68.800  1.00  0.00    -0.185 C  
HETATM    2  C   UNL     1     -10.342   9.560  69.956  1.00  0.00    -0.284 C  
ENDROOT
BRANCH   1   3
HETATM    3  C   UNL     1      -9.639   8.223  68.039  1.00  0.00    -0.153 C  
HETATM    4  O   UNL     1      -8.667   7.671  68.524  1.00  0.00    -0.128 OA 
BRANCH   3   5
HETATM    5  O   UNL     1      -9.979   8.275  66.728  1.00  0.00    -0.235 OA 
HETATM    6  C   UNL     1      -9.987   9.593  66.179  1.00  0.00    -0.276 C  
ENDBRANCH   3   5
ENDBRANCH   1   3
BRANCH   2   7
HETATM    7  C   UNL     1     -11.396  10.287  70.683  1.00  0.00    -0.347 C  
HETATM    8  O   UNL     1     -11.864  11.360  70.338  1.00  0.00    -0.336 OA 
BRANCH   7   9
HETATM    9  O   UNL     1     -11.746   9.570  71.779  1.00  0.00    -0.383 OA 
HETATM   10  C   UNL     1     -13.154   9.356  71.891  1.00  0.00    -0.424 C  
ENDBRANCH   7   9
ENDBRANCH   2   7
TORSDOF 4
ENDMDL
MODEL      151
REMARK 921   NORMALIZED FREE ENERGY PREDICTED BY IDOCK:   -2.23 KCAL/MOL
REMARK 922        TOTAL FREE ENERGY PREDICTED BY IDOCK:   -2.85 KCAL/MOL
REMARK 923 INTER-LIGAND FREE ENERGY PREDICTED BY IDOCK:   -2.75 KCAL/MOL
REMARK 924 INTRA-LIGAND FREE ENERGY PREDICTED BY IDOCK:   -0.10 KCAL/MOL
REMARK 927      BINDING AFFINITY PREDICTED BY RF-SCORE:    0.00 PKD
ROOT
HETATM    1  C   UNL     1     -11.638   6.527  72.400  1.00  0.00    -0.292 C  
HETATM    2  C   UNL     1     -10.915   5.399  72.432  1.00  0.00    -0.298 C  
ENDROOT
BRANCH   1   3
HETATM    3  C   UNL     1     -11.991   7.148  71.113  1.00  0.00    -0.342 C  
HETATM    4  O   UNL     1     -11.488   6.868  70.038  1.00  0.00    -0.306 OA 
BRANCH   3   5
HETATM    5  O   UNL     1     -12.958   8.068  71.346  1.00  0.00    -0.311 OA 
HETATM    6  C   UNL     1     -14.266   7.515  71.495  1.00  0.00    -0.445 C  
ENDBRANCH   3   5
ENDBRANCH   1   3
BRANCH   2   7
HETATM    7  C   UNL     1     -10.587   4.813  73.742  1.00  0.00    -0.272 C  
HETATM    8  O   UNL     1      -9.756   5.262  74.515  1.00  0.00    -0.148 OA 
BRANCH   7   9
HETATM    9  O   UNL     1     -11.354   3.712  73.933  1.00  0.00    -0.146 OA 
HETATM   10  C   UNL     1     -10.791   2.524  73.373  1.00  0.00    -0.189 C  
ENDBRANCH   7   9
ENDBRANCH   2   7
TORSDOF 4
ENDMDL
MODEL      152
REMARK 921   NORMALIZED FREE ENERGY PREDICTED BY IDOCK:   -2.22 KCAL/MOL
REMARK 922        TOTAL FREE ENERGY PREDICTED BY IDOCK:   -2.84 KCAL/MOL
REMARK 923 INTER-LIGAND FREE ENERGY PREDICTED BY IDOCK:   -2.73 KCAL/MOL
REMARK 924 INTRA-LIGAND FREE ENERGY PREDICTED BY IDOCK:   -0.11 KCAL/MOL
REMARK 927      BINDING AFFINITY PREDICTED BY RF-SCORE:    0.00 PKD
ROOT
HETATM    1  C   UNL     1     -11.023   6.330  67.578  1.00  0.00    -0.444 C  
HETATM    2  C   UNL     1     -10.565   6.169  68.827  1.00  0.00    -0.330 C  
ENDROOT
BRANCH   1   3
HETATM    3  C   UNL     1     -10.416   5.587  66.462  1.00  0.00    -0.271 C  
HETATM    4  O   UNL     1     -10.965   4.703  65.827  1.00  0.00    -0.237 OA 
BRANCH   3   5
HETATM    5  O   UNL     1      -9.159   6.062  66.280  1.00  0.00    -0.145 OA 
HETATM    6  C   UNL     1      -8.182   5.049  66.039  1.00  0.00    -0.113 C  
ENDBRANCH   3   5
ENDBRANCH   1   3
BRANCH   2   7
HETATM    7  C   UNL     1     -11.203   6.932  69.912  1.00  0.00    -0.285 C  
HETATM    8  O   UNL     1     -12.021   6.477  70.694  1.00  0.00    -0.386 OA 
BRANCH   7   9
HETATM    9  O   UNL     1     -10.731   8.203  69.889  1.00  0.00    -0.244 OA 
HETATM   10  C   UNL     1     -11.037   8.944  71.071  1.00  0.00    -0.276 C  
ENDBRANCH   7   9
ENDBRANCH   2   7
TORSDOF 4
ENDMDL
MODEL      153
REMARK 921   NORMALIZED FREE ENERGY PREDICTED BY IDOCK:   -2.22 KCAL/MOL
REMARK 922        TOTAL FREE ENERGY PREDICTED BY IDOCK:   -2.84 KCAL/MOL
REMARK 923 INTER-LIGAND FREE ENERGY PREDICTED BY IDOCK:   -2.69 KCAL/MOL
REMARK 924 INTRA-LIGAND FREE ENERGY PREDICTED BY IDOCK:   -0.15 KCAL/MOL
REMARK 927      BINDING AFFINITY PREDICTED BY RF-SCORE:    0.00 PKD
ROOT
HETATM    1  C   UNL     1      -8.793  16.575  67.345  1.00  0.00    -0.201 C  
HETATM    2  C   UNL     1      -7.495  16.388  67.067  1.00  0.00    -0.250 C  
ENDROOT
BRANCH   1   3
HETATM    3  C   UNL     1      -9.488  17.782  66.868  1.00  0.00    -0.271 C  
HETATM    4  O   UNL     1      -9.032  18.587  66.076  1.00  0.00    -0.491 OA 
BRANCH   3   5
HETATM    5  O   UNL     1     -10.705  17.824  67.465  1.00  0.00    -0.375 OA 
HETATM    6  C   UNL     1     -10.856  16.905  68.547  1.00  0.00    -0.335 C  
ENDBRANCH   3   5
ENDBRANCH   1   3
BRANCH   2   7
HETATM    7  C   UNL     1      -6.841  15.166  67.564  1.00  0.00    -0.174 C  
HETATM    8  O   UNL     1      -5.651  14.921  67.453  1.00  0.00    -0.341 OA 
BRANCH   7   9
HETATM    9  O   UNL     1      -7.774  14.380  68.155  1.00  0.00    -0.111 OA 
HETATM   10  C   UNL     1      -7.548  12.983  67.956  1.00  0.00    -0.139 C  
ENDBRANCH   7   9
ENDBRANCH   2   7
TORSDOF 4
ENDMDL
MODEL      154
REMARK 921   NORMALIZED FREE ENERGY PREDICTED BY IDOCK:   -2.21 KCAL/MOL
REMARK 922        TOTAL FREE ENERGY PREDICTED BY IDOCK:   -2.83 KCAL/MOL
REMARK 923 INTER-LIGAND FREE ENERGY PREDICTED BY IDOCK:   -2.75 KCAL/MOL
REMARK 924 INTRA-LIGAND FREE ENERGY PREDICTED BY IDOCK:   -0.08 KCAL/MOL
REMARK 927      BINDING AFFINITY PREDICTED BY RF-SCORE:    0.00 PKD
ROOT
HETATM    1  C   UNL     1      -6.845  18.018  69.477  1.00  0.00    -0.038 C  
HETATM    2  C   UNL     1      -5.760  18.783  69.659  1.00  0.00    -0.251 C  
ENDROOT
BRANCH   1   3
HETATM    3  C   UNL     1      -7.195  17.530  68.133  1.00  0.00    -0.216 C  
HETATM    4  O   UNL     1      -7.057  18.162  67.100  1.00  0.00    -0.190 OA 
BRANCH   3   5
HETATM    5  O   UNL     1      -7.686  16.273  68.261  1.00  0.00    -0.149 OA 
HETATM    6  C   UNL     1      -6.794  15.250  67.820  1.00  0.00    -0.168 C  
ENDBRANCH   3   5
ENDBRANCH   1   3
BRANCH   2   7
HETATM    7  C   UNL     1      -5.450  19.247  71.021  1.00  0.00    -0.237 C  
HETATM    8  O   UNL     1      -5.230  18.515  71.972  1.00  0.00    -0.731 OA 
BRANCH   7   9
HETATM    9  O   UNL     1      -5.451  20.603  71.031  1.00  0.00    -0.465 OA 
HETATM   10  C   UNL     1      -5.142  21.180  69.761  1.00  0.00    -0.301 C  
ENDBRANCH   7   9
ENDBRANCH   2   7
TORSDOF 4
ENDMDL
MODEL      155
REMARK 921   NORMALIZED FREE ENERGY PREDICTED BY IDOCK:   -2.20 KCAL/MOL
REMARK 922        TOTAL FREE ENERGY PREDICTED BY IDOCK:   -2.82 KCAL/MOL
REMARK 923 INTER-LIGAND FREE ENERGY PREDICTED BY IDOCK:   -2.75 KCAL/MOL
REMARK 924 INTRA-LIGAND FREE ENERGY PREDICTED BY IDOCK:   -0.07 KCAL/MOL
REMARK 927      BINDING AFFINITY PREDICTED BY RF-SCORE:    0.00 PKD
ROOT
HETATM    1  C   UNL     1      -8.634  17.171  67.412  1.00  0.00    -0.212 C  
HETATM    2  C   UNL     1      -8.593  18.185  66.537  1.00  0.00    -0.282 C  
ENDROOT
BRANCH   1   3
HETATM    3  C   UNL     1      -9.895  16.822  68.087  1.00  0.00    -0.264 C  
HETATM    4  O   UNL     1     -11.010  17.025  67.638  1.00  0.00    -0.290 OA 
BRANCH   3   5
HETATM    5  O   UNL     1      -9.587  16.245  69.274  1.00  0.00    -0.248 OA 
HETATM    6  C   UNL     1     -10.722  15.907  70.071  1.00  0.00    -0.339 C  
ENDBRANCH   3   5
ENDBRANCH   1   3
BRANCH   2   7
HETATM    7  C   UNL     1      -7.310  18.499  65.887  1.00  0.00    -0.207 C  
HETATM    8  O   UNL     1      -6.330  17.771  65.896  1.00  0.00    -0.231 OA 
BRANCH   7   9
HETATM    9  O   UNL     1      -7.407  19.712  65.291  1.00  0.00    -0.400 OA 
HETATM   10  C   UNL     1      -6.190  20.141  64.675  1.00  0.00    -0.280 C  
ENDBRANCH   7   9
ENDBRANCH   2   7
TORSDOF 4
ENDMDL
MODEL      156
REMARK 921   NORMALIZED FREE ENERGY PREDICTED BY IDOCK:   -2.18 KCAL/MOL
REMARK 922        TOTAL FREE ENERGY PREDICTED BY IDOCK:   -2.80 KCAL/MOL
REMARK 923 INTER-LIGAND FREE ENERGY PREDICTED BY IDOCK:   -2.68 KCAL/MOL
REMARK 924 INTRA-LIGAND FREE ENERGY PREDICTED BY IDOCK:   -0.12 KCAL/MOL
REMARK 927      BINDING AFFINITY PREDICTED BY RF-SCORE:    0.00 PKD
ROOT
HETATM    1  C   UNL     1     -10.745   8.355  70.009  1.00  0.00    -0.236 C  
HETATM    2  C   UNL     1     -10.627   9.601  70.487  1.00  0.00    -0.369 C  
ENDROOT
BRANCH   1   3
HETATM    3  C   UNL     1     -10.325   7.203  70.824  1.00  0.00    -0.206 C  
HETATM    4  O   UNL     1      -9.266   7.114  71.419  1.00  0.00    -0.150 OA 
BRANCH   3   5
HETATM    5  O   UNL     1     -11.320   6.282  70.787  1.00  0.00    -0.317 OA 
HETATM    6  C   UNL     1     -12.367   6.517  71.728  1.00  0.00    -0.287 C  
ENDBRANCH   3   5
ENDBRANCH   1   3
BRANCH   2   7
HETATM    7  C   UNL     1     -11.059  10.722  69.637  1.00  0.00    -0.279 C  
HETATM    8  O   UNL     1     -10.324  11.359  68.900  1.00  0.00    -0.206 OA 
BRANCH   7   9
HETATM    9  O   UNL     1     -12.389  10.917  69.813  1.00  0.00    -0.330 OA 
HETATM   10  C   UNL     1     -12.706  11.608  71.023  1.00  0.00    -0.298 C  
ENDBRANCH   7   9
ENDBRANCH   2   7
TORSDOF 4
ENDMDL
MODEL      157
REMARK 921   NORMALIZED FREE ENERGY PREDICTED BY IDOCK:   -2.18 KCAL/MOL
REMARK 922        TOTAL FREE ENERGY PREDICTED BY IDOCK:   -2.79 KCAL/MOL
REMARK 923 INTER-LIGAND FREE ENERGY PREDICTED BY IDOCK:   -2.69 KCAL/MOL
REMARK 924 INTRA-LIGAND FREE ENERGY PREDICTED BY IDOCK:   -0.10 KCAL/MOL
REMARK 927      BINDING AFFINITY PREDICTED BY RF-SCORE:    0.00 PKD
ROOT
HETATM    1  C   UNL     1     -11.020  10.197  67.647  1.00  0.00    -0.331 C  
HETATM    2  C   UNL     1     -10.542  10.991  66.679  1.00  0.00    -0.315 C  
ENDROOT
BRANCH   1   3
HETATM    3  C   UNL     1     -10.166   9.157  68.244  1.00  0.00    -0.206 C  
HETATM    4  O   UNL     1      -9.944   8.064  67.753  1.00  0.00    -0.157 OA 
BRANCH   3   5
HETATM    5  O   UNL     1      -9.685   9.636  69.417  1.00  0.00    -0.173 OA 
HETATM    6  C   UNL     1      -9.180   8.631  70.296  1.00  0.00    -0.166 C  
ENDBRANCH   3   5
ENDBRANCH   1   3
BRANCH   2   7
HETATM    7  C   UNL     1     -11.432  12.017  66.111  1.00  0.00    -0.339 C  
HETATM    8  O   UNL     1     -12.398  12.493  66.685  1.00  0.00    -0.483 OA 
BRANCH   7   9
HETATM    9  O   UNL     1     -10.998  12.332  64.866  1.00  0.00    -0.285 OA 
HETATM   10  C   UNL     1     -11.081  11.244  63.944  1.00  0.00    -0.238 C  
ENDBRANCH   7   9
ENDBRANCH   2   7
TORSDOF 4
ENDMDL
MODEL      158
REMARK 921   NORMALIZED FREE ENERGY PREDICTED BY IDOCK:   -2.17 KCAL/MOL
REMARK 922        TOTAL FREE ENERGY PREDICTED BY IDOCK:   -2.78 KCAL/MOL
REMARK 923 INTER-LIGAND FREE ENERGY PREDICTED BY IDOCK:   -2.75 KCAL/MOL
REMARK 924 INTRA-LIGAND FREE ENERGY PREDICTED BY IDOCK:   -0.03 KCAL/MOL
REMARK 927      BINDING AFFINITY PREDICTED BY RF-SCORE:    0.00 PKD
ROOT
HETATM    1  C   UNL     1     -10.066  12.642  67.791  1.00  0.00    -0.220 C  
HETATM    2  C   UNL     1     -10.620  13.384  66.822  1.00  0.00    -0.277 C  
ENDROOT
BRANCH   1   3
HETATM    3  C   UNL     1      -8.765  11.987  67.574  1.00  0.00    -0.166 C  
HETATM    4  O   UNL     1      -7.752  12.548  67.195  1.00  0.00    -0.162 OA 
BRANCH   3   5
HETATM    5  O   UNL     1      -8.908  10.672  67.870  1.00  0.00    -0.129 OA 
HETATM    6  C   UNL     1      -9.052  10.399  69.264  1.00  0.00    -0.175 C  
ENDBRANCH   3   5
ENDBRANCH   1   3
BRANCH   2   7
HETATM    7  C   UNL     1     -11.921  14.021  67.084  1.00  0.00    -0.430 C  
HETATM    8  O   UNL     1     -12.239  14.544  68.139  1.00  0.00    -0.234 OA 
BRANCH   7   9
HETATM    9  O   UNL     1     -12.687  13.924  65.969  1.00  0.00    -0.463 OA 
HETATM   10  C   UNL     1     -12.394  12.771  65.178  1.00  0.00    -0.496 C  
ENDBRANCH   7   9
ENDBRANCH   2   7
TORSDOF 4
ENDMDL
MODEL      159
REMARK 921   NORMALIZED FREE ENERGY PREDICTED BY IDOCK:   -2.17 KCAL/MOL
REMARK 922        TOTAL FREE ENERGY PREDICTED BY IDOCK:   -2.78 KCAL/MOL
REMARK 923 INTER-LIGAND FREE ENERGY PREDICTED BY IDOCK:   -2.65 KCAL/MOL
REMARK 924 INTRA-LIGAND FREE ENERGY PREDICTED BY IDOCK:   -0.13 KCAL/MOL
REMARK 927      BINDING AFFINITY PREDICTED BY RF-SCORE:    0.00 PKD
ROOT
HETATM    1  C   UNL     1      -9.004  16.402  67.338  1.00  0.00    -0.200 C  
HETATM    2  C   UNL     1      -7.790  16.958  67.229  1.00  0.00    -0.204 C  
ENDROOT
BRANCH   1   3
HETATM    3  C   UNL     1      -9.934  16.418  66.197  1.00  0.00    -0.339 C  
HETATM    4  O   UNL     1     -10.065  17.341  65.412  1.00  0.00    -0.574 OA 
BRANCH   3   5
HETATM    5  O   UNL     1     -10.600  15.237  66.186  1.00  0.00    -0.294 OA 
HETATM    6  C   UNL     1     -11.296  14.949  67.399  1.00  0.00    -0.347 C  
ENDBRANCH   3   5
ENDBRANCH   1   3
BRANCH   2   7
HETATM    7  C   UNL     1      -6.894  16.918  68.397  1.00  0.00    -0.167 C  
HETATM    8  O   UNL     1      -5.928  17.648  68.557  1.00  0.00    -0.169 OA 
BRANCH   7   9
HETATM    9  O   UNL     1      -7.321  15.950  69.243  1.00  0.00    -0.198 OA 
HETATM   10  C   UNL     1      -6.255  15.222  69.858  1.00  0.00    -0.161 C  
ENDBRANCH   7   9
ENDBRANCH   2   7
TORSDOF 4
ENDMDL
MODEL      160
REMARK 921   NORMALIZED FREE ENERGY PREDICTED BY IDOCK:   -2.16 KCAL/MOL
REMARK 922        TOTAL FREE ENERGY PREDICTED BY IDOCK:   -2.77 KCAL/MOL
REMARK 923 INTER-LIGAND FREE ENERGY PREDICTED BY IDOCK:   -2.65 KCAL/MOL
REMARK 924 INTRA-LIGAND FREE ENERGY PREDICTED BY IDOCK:   -0.12 KCAL/MOL
REMARK 927      BINDING AFFINITY PREDICTED BY RF-SCORE:    0.00 PKD
ROOT
HETATM    1  C   UNL     1     -10.674  11.134  66.608  1.00  0.00    -0.322 C  
HETATM    2  C   UNL     1     -10.319  10.787  65.363  1.00  0.00    -0.315 C  
ENDROOT
BRANCH   1   3
HETATM    3  C   UNL     1     -11.445  12.366  66.844  1.00  0.00    -0.360 C  
HETATM    4  O   UNL     1     -11.342  13.392  66.195  1.00  0.00    -0.294 OA 
BRANCH   3   5
HETATM    5  O   UNL     1     -12.270  12.145  67.896  1.00  0.00    -0.438 OA 
HETATM    6  C   UNL     1     -11.598  11.756  69.094  1.00  0.00    -0.310 C  
ENDBRANCH   3   5
ENDBRANCH   1   3
BRANCH   2   7
HETATM    7  C   UNL     1      -9.549   9.546  65.175  1.00  0.00    -0.200 C  
HETATM    8  O   UNL     1      -9.768   8.497  65.758  1.00  0.00    -0.118 OA 
BRANCH   7   9
HETATM    9  O   UNL     1      -8.575   9.771  64.259  1.00  0.00    -0.159 OA 
HETATM   10  C   UNL     1      -7.337  10.189  64.838  1.00  0.00    -0.136 C  
ENDBRANCH   7   9
ENDBRANCH   2   7
TORSDOF 4
ENDMDL
MODEL      161
REMARK 921   NORMALIZED FREE ENERGY PREDICTED BY IDOCK:   -2.16 KCAL/MOL
REMARK 922        TOTAL FREE ENERGY PREDICTED BY IDOCK:   -2.76 KCAL/MOL
REMARK 923 INTER-LIGAND FREE ENERGY PREDICTED BY IDOCK:   -2.65 KCAL/MOL
REMARK 924 INTRA-LIGAND FREE ENERGY PREDICTED BY IDOCK:   -0.11 KCAL/MOL
REMARK 927      BINDING AFFINITY PREDICTED BY RF-SCORE:    0.00 PKD
ROOT
HETATM    1  C   UNL     1     -11.169   6.156  69.264  1.00  0.00    -0.438 C  
HETATM    2  C   UNL     1     -10.057   5.414  69.167  1.00  0.00    -0.293 C  
ENDROOT
BRANCH   1   3
HETATM    3  C   UNL     1     -11.368   7.047  70.419  1.00  0.00    -0.310 C  
HETATM    4  O   UNL     1     -12.218   6.900  71.279  1.00  0.00    -0.349 OA 
BRANCH   3   5
HETATM    5  O   UNL     1     -10.447   8.039  70.343  1.00  0.00    -0.210 OA 
HETATM    6  C   UNL     1     -10.783   9.205  71.095  1.00  0.00    -0.310 C  
ENDBRANCH   3   5
ENDBRANCH   1   3
BRANCH   2   7
HETATM    7  C   UNL     1      -9.900   4.537  67.994  1.00  0.00    -0.092 C  
HETATM    8  O   UNL     1      -9.422   3.414  68.026  1.00  0.00    -0.187 OA 
BRANCH   7   9
HETATM    9  O   UNL     1     -10.370   5.183  66.899  1.00  0.00    -0.224 OA 
HETATM   10  C   UNL     1     -10.173   4.457  65.684  1.00  0.00    -0.238 C  
ENDBRANCH   7   9
ENDBRANCH   2   7
TORSDOF 4
ENDMDL
MODEL      162
REMARK 921   NORMALIZED FREE ENERGY PREDICTED BY IDOCK:   -2.13 KCAL/MOL
REMARK 922        TOTAL FREE ENERGY PREDICTED BY IDOCK:   -2.73 KCAL/MOL
REMARK 923 INTER-LIGAND FREE ENERGY PREDICTED BY IDOCK:   -2.61 KCAL/MOL
REMARK 924 INTRA-LIGAND FREE ENERGY PREDICTED BY IDOCK:   -0.12 KCAL/MOL
REMARK 927      BINDING AFFINITY PREDICTED BY RF-SCORE:    0.00 PKD
ROOT
HETATM    1  C   UNL     1     -10.313   8.471  66.788  1.00  0.00    -0.346 C  
HETATM    2  C   UNL     1     -10.450   7.802  67.941  1.00  0.00    -0.263 C  
ENDROOT
BRANCH   1   3
HETATM    3  C   UNL     1      -9.831   9.863  66.789  1.00  0.00    -0.201 C  
HETATM    4  O   UNL     1      -8.924  10.290  66.097  1.00  0.00    -0.149 OA 
BRANCH   3   5
HETATM    5  O   UNL     1     -10.572  10.559  67.685  1.00  0.00    -0.212 OA 
HETATM    6  C   UNL     1      -9.806  11.403  68.545  1.00  0.00    -0.198 C  
ENDBRANCH   3   5
ENDBRANCH   1   3
BRANCH   2   7
HETATM    7  C   UNL     1     -10.935   6.413  67.892  1.00  0.00    -0.325 C  
HETATM    8  O   UNL     1     -10.854   5.683  66.918  1.00  0.00    -0.286 OA 
BRANCH   7   9
HETATM    9  O   UNL     1     -11.475   6.096  69.094  1.00  0.00    -0.379 OA 
HETATM   10  C   UNL     1     -10.670   6.501  70.203  1.00  0.00    -0.252 C  
ENDBRANCH   7   9
ENDBRANCH   2   7
TORSDOF 4
ENDMDL
MODEL      163
REMARK 921   NORMALIZED FREE ENERGY PREDICTED BY IDOCK:   -2.13 KCAL/MOL
REMARK 922        TOTAL FREE ENERGY PREDICTED BY IDOCK:   -2.73 KCAL/MOL
REMARK 923 INTER-LIGAND FREE ENERGY PREDICTED BY IDOCK:   -2.63 KCAL/MOL
REMARK 924 INTRA-LIGAND FREE ENERGY PREDICTED BY IDOCK:   -0.10 KCAL/MOL
REMARK 927      BINDING AFFINITY PREDICTED BY RF-SCORE:    0.00 PKD
ROOT
HETATM    1  C   UNL     1      -9.987  10.606  66.582  1.00  0.00    -0.259 C  
HETATM    2  C   UNL     1      -9.937   9.488  65.845  1.00  0.00    -0.342 C  
ENDROOT
BRANCH   1   3
HETATM    3  C   UNL     1     -11.276  11.269  66.840  1.00  0.00    -0.230 C  
HETATM    4  O   UNL     1     -12.005  11.041  67.789  1.00  0.00    -0.609 OA 
BRANCH   3   5
HETATM    5  O   UNL     1     -11.491  12.162  65.842  1.00  0.00    -0.345 OA 
HETATM    6  C   UNL     1     -10.453  13.129  65.691  1.00  0.00    -0.282 C  
ENDBRANCH   3   5
ENDBRANCH   1   3
BRANCH   2   7
HETATM    7  C   UNL     1      -8.626   8.859  65.614  1.00  0.00    -0.166 C  
HETATM    8  O   UNL     1      -7.841   8.545  66.494  1.00  0.00    -0.093 OA 
BRANCH   7   9
HETATM    9  O   UNL     1      -8.450   8.694  64.280  1.00  0.00    -0.158 OA 
HETATM   10  C   UNL     1      -7.841   9.819  63.644  1.00  0.00    -0.142 C  
ENDBRANCH   7   9
ENDBRANCH   2   7
TORSDOF 4
ENDMDL
MODEL      164
REMARK 921   NORMALIZED FREE ENERGY PREDICTED BY IDOCK:   -2.13 KCAL/MOL
REMARK 922        TOTAL FREE ENERGY PREDICTED BY IDOCK:   -2.73 KCAL/MOL
REMARK 923 INTER-LIGAND FREE ENERGY PREDICTED BY IDOCK:   -2.65 KCAL/MOL
REMARK 924 INTRA-LIGAND FREE ENERGY PREDICTED BY IDOCK:   -0.07 KCAL/MOL
REMARK 927      BINDING AFFINITY PREDICTED BY RF-SCORE:    0.00 PKD
ROOT
HETATM    1  C   UNL     1      -9.997  13.921  67.591  1.00  0.00    -0.237 C  
HETATM    2  C   UNL     1     -10.154  13.612  66.297  1.00  0.00    -0.301 C  
ENDROOT
BRANCH   1   3
HETATM    3  C   UNL     1      -8.657  13.915  68.200  1.00  0.00    -0.180 C  
HETATM    4  O   UNL     1      -7.774  13.115  67.943  1.00  0.00    -0.118 OA 
BRANCH   3   5
HETATM    5  O   UNL     1      -8.594  14.944  69.079  1.00  0.00    -0.180 OA 
HETATM    6  C   UNL     1      -7.793  16.041  68.637  1.00  0.00    -0.179 C  
ENDBRANCH   3   5
ENDBRANCH   1   3
BRANCH   2   7
HETATM    7  C   UNL     1     -11.513  13.632  65.731  1.00  0.00    -0.315 C  
HETATM    8  O   UNL     1     -12.490  13.117  66.251  1.00  0.00    -0.386 OA 
BRANCH   7   9
HETATM    9  O   UNL     1     -11.488  14.308  64.556  1.00  0.00    -0.374 OA 
HETATM   10  C   UNL     1     -11.200  15.699  64.708  1.00  0.00    -0.382 C  
ENDBRANCH   7   9
ENDBRANCH   2   7
TORSDOF 4
ENDMDL
MODEL      165
REMARK 921   NORMALIZED FREE ENERGY PREDICTED BY IDOCK:   -2.10 KCAL/MOL
REMARK 922        TOTAL FREE ENERGY PREDICTED BY IDOCK:   -2.69 KCAL/MOL
REMARK 923 INTER-LIGAND FREE ENERGY PREDICTED BY IDOCK:   -2.58 KCAL/MOL
REMARK 924 INTRA-LIGAND FREE ENERGY PREDICTED BY IDOCK:   -0.11 KCAL/MOL
REMARK 927      BINDING AFFINITY PREDICTED BY RF-SCORE:    0.00 PKD
ROOT
HETATM    1  C   UNL     1      -9.929   5.272  68.557  1.00  0.00    -0.227 C  
HETATM    2  C   UNL     1     -10.567   5.644  67.439  1.00  0.00    -0.312 C  
ENDROOT
BRANCH   1   3
HETATM    3  C   UNL     1     -10.569   5.445  69.872  1.00  0.00    -0.281 C  
HETATM    4  O   UNL     1     -10.204   4.912  70.905  1.00  0.00    -0.227 OA 
BRANCH   3   5
HETATM    5  O   UNL     1     -11.617   6.291  69.716  1.00  0.00    -0.436 OA 
HETATM    6  C   UNL     1     -11.953   7.026  70.893  1.00  0.00    -0.364 C  
ENDBRANCH   3   5
ENDBRANCH   1   3
BRANCH   2   7
HETATM    7  C   UNL     1      -9.888   5.452  66.147  1.00  0.00    -0.136 C  
HETATM    8  O   UNL     1      -8.930   6.102  65.762  1.00  0.00    -0.151 OA 
BRANCH   7   9
HETATM    9  O   UNL     1     -10.502   4.446  65.476  1.00  0.00    -0.265 OA 
HETATM   10  C   UNL     1      -9.699   3.885  64.436  1.00  0.00    -0.181 C  
ENDBRANCH   7   9
ENDBRANCH   2   7
TORSDOF 4
ENDMDL
MODEL      166
REMARK 921   NORMALIZED FREE ENERGY PREDICTED BY IDOCK:   -2.10 KCAL/MOL
REMARK 922        TOTAL FREE ENERGY PREDICTED BY IDOCK:   -2.69 KCAL/MOL
REMARK 923 INTER-LIGAND FREE ENERGY PREDICTED BY IDOCK:   -2.58 KCAL/MOL
REMARK 924 INTRA-LIGAND FREE ENERGY PREDICTED BY IDOCK:   -0.11 KCAL/MOL
REMARK 927      BINDING AFFINITY PREDICTED BY RF-SCORE:    0.00 PKD
ROOT
HETATM    1  C   UNL     1     -11.140   8.810  70.682  1.00  0.00    -0.285 C  
HETATM    2  C   UNL     1     -10.177   8.205  69.974  1.00  0.00    -0.202 C  
ENDROOT
BRANCH   1   3
HETATM    3  C   UNL     1     -12.101   8.013  71.463  1.00  0.00    -0.298 C  
HETATM    4  O   UNL     1     -12.138   6.796  71.496  1.00  0.00    -0.328 OA 
BRANCH   3   5
HETATM    5  O   UNL     1     -12.916   8.873  72.122  1.00  0.00    -0.360 OA 
HETATM    6  C   UNL     1     -14.303   8.547  72.030  1.00  0.00    -0.447 C  
ENDBRANCH   3   5
ENDBRANCH   1   3
BRANCH   2   7
HETATM    7  C   UNL     1      -9.238   9.042  69.208  1.00  0.00    -0.145 C  
HETATM    8  O   UNL     1      -8.465   8.623  68.362  1.00  0.00    -0.128 OA 
BRANCH   7   9
HETATM    9  O   UNL     1      -9.383  10.331  69.601  1.00  0.00    -0.205 OA 
HETATM   10  C   UNL     1      -9.165  11.273  68.548  1.00  0.00    -0.181 C  
ENDBRANCH   7   9
ENDBRANCH   2   7
TORSDOF 4
ENDMDL
MODEL      167
REMARK 921   NORMALIZED FREE ENERGY PREDICTED BY IDOCK:   -2.10 KCAL/MOL
REMARK 922        TOTAL FREE ENERGY PREDICTED BY IDOCK:   -2.69 KCAL/MOL
REMARK 923 INTER-LIGAND FREE ENERGY PREDICTED BY IDOCK:   -2.58 KCAL/MOL
REMARK 924 INTRA-LIGAND FREE ENERGY PREDICTED BY IDOCK:   -0.11 KCAL/MOL
REMARK 927      BINDING AFFINITY PREDICTED BY RF-SCORE:    0.00 PKD
ROOT
HETATM    1  C   UNL     1     -10.648  11.675  68.308  1.00  0.00    -0.232 C  
HETATM    2  C   UNL     1     -11.294  12.580  69.057  1.00  0.00    -0.342 C  
ENDROOT
BRANCH   1   3
HETATM    3  C   UNL     1      -9.945  10.549  68.945  1.00  0.00    -0.204 C  
HETATM    4  O   UNL     1     -10.287  10.003  69.979  1.00  0.00    -0.253 OA 
BRANCH   3   5
HETATM    5  O   UNL     1      -8.868  10.245  68.179  1.00  0.00    -0.121 OA 
HETATM    6  C   UNL     1      -7.635  10.770  68.671  1.00  0.00    -0.106 C  
ENDBRANCH   3   5
ENDBRANCH   1   3
BRANCH   2   7
HETATM    7  C   UNL     1     -11.984  13.688  68.377  1.00  0.00    -0.356 C  
HETATM    8  O   UNL     1     -12.144  13.771  67.170  1.00  0.00    -0.398 OA 
BRANCH   7   9
HETATM    9  O   UNL     1     -12.402  14.580  69.308  1.00  0.00    -0.263 OA 
HETATM   10  C   UNL     1     -11.339  15.352  69.872  1.00  0.00    -0.304 C  
ENDBRANCH   7   9
ENDBRANCH   2   7
TORSDOF 4
ENDMDL
MODEL      168
REMARK 921   NORMALIZED FREE ENERGY PREDICTED BY IDOCK:   -2.09 KCAL/MOL
REMARK 922        TOTAL FREE ENERGY PREDICTED BY IDOCK:   -2.67 KCAL/MOL
REMARK 923 INTER-LIGAND FREE ENERGY PREDICTED BY IDOCK:   -2.58 KCAL/MOL
REMARK 924 INTRA-LIGAND FREE ENERGY PREDICTED BY IDOCK:   -0.09 KCAL/MOL
REMARK 927      BINDING AFFINITY PREDICTED BY RF-SCORE:    0.00 PKD
ROOT
HETATM    1  C   UNL     1     -10.177   9.877  66.556  1.00  0.00    -0.292 C  
HETATM    2  C   UNL     1      -9.641   8.712  66.945  1.00  0.00    -0.254 C  
ENDROOT
BRANCH   1   3
HETATM    3  C   UNL     1      -9.371  10.851  65.802  1.00  0.00    -0.203 C  
HETATM    4  O   UNL     1      -8.551  11.609  66.289  1.00  0.00    -0.175 OA 
BRANCH   3   5
HETATM    5  O   UNL     1      -9.709  10.745  64.493  1.00  0.00    -0.242 OA 
HETATM    6  C   UNL     1     -10.689  11.691  64.065  1.00  0.00    -0.384 C  
ENDBRANCH   3   5
ENDBRANCH   1   3
BRANCH   2   7
HETATM    7  C   UNL     1     -10.484   7.768  67.697  1.00  0.00    -0.239 C  
HETATM    8  O   UNL     1     -10.552   7.715  68.914  1.00  0.00    -0.211 OA 
BRANCH   7   9
HETATM    9  O   UNL     1     -11.157   6.987  66.818  1.00  0.00    -0.289 OA 
HETATM   10  C   UNL     1     -10.590   5.683  66.667  1.00  0.00    -0.295 C  
ENDBRANCH   7   9
ENDBRANCH   2   7
TORSDOF 4
ENDMDL
MODEL      169
REMARK 921   NORMALIZED FREE ENERGY PREDICTED BY IDOCK:   -2.08 KCAL/MOL
REMARK 922        TOTAL FREE ENERGY PREDICTED BY IDOCK:   -2.66 KCAL/MOL
REMARK 923 INTER-LIGAND FREE ENERGY PREDICTED BY IDOCK:   -2.55 KCAL/MOL
REMARK 924 INTRA-LIGAND FREE ENERGY PREDICTED BY IDOCK:   -0.11 KCAL/MOL
REMARK 927      BINDING AFFINITY PREDICTED BY RF-SCORE:    0.00 PKD
ROOT
HETATM    1  C   UNL     1     -10.669  10.317  68.941  1.00  0.00    -0.256 C  
HETATM    2  C   UNL     1      -9.351  10.557  68.985  1.00  0.00    -0.205 C  
ENDROOT
BRANCH   1   3
HETATM    3  C   UNL     1     -11.615  11.410  68.660  1.00  0.00    -0.320 C  
HETATM    4  O   UNL     1     -12.138  11.623  67.580  1.00  0.00    -0.615 OA 
BRANCH   3   5
HETATM    5  O   UNL     1     -11.787  12.116  69.804  1.00  0.00    -0.314 OA 
HETATM    6  C   UNL     1     -12.427  11.384  70.850  1.00  0.00    -0.379 C  
ENDBRANCH   3   5
ENDBRANCH   1   3
BRANCH   2   7
HETATM    7  C   UNL     1      -8.443   9.434  69.269  1.00  0.00    -0.141 C  
HETATM    8  O   UNL     1      -8.801   8.329  69.644  1.00  0.00    -0.137 OA 
BRANCH   7   9
HETATM    9  O   UNL     1      -7.168   9.835  69.046  1.00  0.00    -0.071 OA 
HETATM   10  C   UNL     1      -6.815  11.023  69.757  1.00  0.00    -0.116 C  
ENDBRANCH   7   9
ENDBRANCH   2   7
TORSDOF 4
ENDMDL
MODEL      170
REMARK 921   NORMALIZED FREE ENERGY PREDICTED BY IDOCK:   -2.06 KCAL/MOL
REMARK 922        TOTAL FREE ENERGY PREDICTED BY IDOCK:   -2.64 KCAL/MOL
REMARK 923 INTER-LIGAND FREE ENERGY PREDICTED BY IDOCK:   -2.55 KCAL/MOL
REMARK 924 INTRA-LIGAND FREE ENERGY PREDICTED BY IDOCK:   -0.10 KCAL/MOL
REMARK 927      BINDING AFFINITY PREDICTED BY RF-SCORE:    0.00 PKD
ROOT
HETATM    1  C   UNL     1     -10.269   8.951  69.656  1.00  0.00    -0.209 C  
HETATM    2  C   UNL     1     -10.527   9.907  68.753  1.00  0.00    -0.234 C  
ENDROOT
BRANCH   1   3
HETATM    3  C   UNL     1     -10.372   9.241  71.096  1.00  0.00    -0.322 C  
HETATM    4  O   UNL     1     -11.409   9.466  71.693  1.00  0.00    -0.372 OA 
BRANCH   3   5
HETATM    5  O   UNL     1      -9.120   9.211  71.616  1.00  0.00    -0.334 OA 
HETATM    6  C   UNL     1      -8.823   8.025  72.353  1.00  0.00    -0.173 C  
ENDBRANCH   3   5
ENDBRANCH   1   3
BRANCH   2   7
HETATM    7  C   UNL     1     -10.412   9.571  67.324  1.00  0.00    -0.262 C  
HETATM    8  O   UNL     1      -9.845   8.583  66.886  1.00  0.00    -0.195 OA 
BRANCH   7   9
HETATM    9  O   UNL     1     -11.034  10.532  66.598  1.00  0.00    -0.160 OA 
HETATM   10  C   UNL     1     -11.442  11.658  67.377  1.00  0.00    -0.285 C  
ENDBRANCH   7   9
ENDBRANCH   2   7
TORSDOF 4
ENDMDL
MODEL      171
REMARK 921   NORMALIZED FREE ENERGY PREDICTED BY IDOCK:   -2.06 KCAL/MOL
REMARK 922        TOTAL FREE ENERGY PREDICTED BY IDOCK:   -2.64 KCAL/MOL
REMARK 923 INTER-LIGAND FREE ENERGY PREDICTED BY IDOCK:   -2.53 KCAL/MOL
REMARK 924 INTRA-LIGAND FREE ENERGY PREDICTED BY IDOCK:   -0.11 KCAL/MOL
REMARK 927      BINDING AFFINITY PREDICTED BY RF-SCORE:    0.00 PKD
ROOT
HETATM    1  C   UNL     1      -9.955   9.131  71.341  1.00  0.00    -0.373 C  
HETATM    2  C   UNL     1      -9.315   9.103  70.165  1.00  0.00    -0.235 C  
ENDROOT
BRANCH   1   3
HETATM    3  C   UNL     1     -11.412   8.927  71.399  1.00  0.00    -0.311 C  
HETATM    4  O   UNL     1     -12.208   9.696  71.910  1.00  0.00    -0.376 OA 
BRANCH   3   5
HETATM    5  O   UNL     1     -11.693   7.749  70.790  1.00  0.00    -0.284 OA 
HETATM    6  C   UNL     1     -12.742   7.007  71.411  1.00  0.00    -0.374 C  
ENDBRANCH   3   5
ENDBRANCH   1   3
BRANCH   2   7
HETATM    7  C   UNL     1      -7.857   9.311  70.155  1.00  0.00    -0.125 C  
HETATM    8  O   UNL     1      -7.257  10.060  70.909  1.00  0.00    -0.326 OA 
BRANCH   7   9
HETATM    9  O   UNL     1      -7.312   8.540  69.182  1.00  0.00    -0.076 OA 
HETATM   10  C   UNL     1      -6.895   7.254  69.644  1.00  0.00    -0.049 C  
ENDBRANCH   7   9
ENDBRANCH   2   7
TORSDOF 4
ENDMDL
MODEL      172
REMARK 921   NORMALIZED FREE ENERGY PREDICTED BY IDOCK:   -2.06 KCAL/MOL
REMARK 922        TOTAL FREE ENERGY PREDICTED BY IDOCK:   -2.64 KCAL/MOL
REMARK 923 INTER-LIGAND FREE ENERGY PREDICTED BY IDOCK:   -2.54 KCAL/MOL
REMARK 924 INTRA-LIGAND FREE ENERGY PREDICTED BY IDOCK:   -0.11 KCAL/MOL
REMARK 927      BINDING AFFINITY PREDICTED BY RF-SCORE:    0.00 PKD
ROOT
HETATM    1  C   UNL     1     -10.123  14.349  68.490  1.00  0.00    -0.244 C  
HETATM    2  C   UNL     1      -9.446  13.762  67.493  1.00  0.00    -0.220 C  
ENDROOT
BRANCH   1   3
HETATM    3  C   UNL     1      -9.849  15.750  68.850  1.00  0.00    -0.224 C  
HETATM    4  O   UNL     1      -8.828  16.151  69.379  1.00  0.00    -0.229 OA 
BRANCH   3   5
HETATM    5  O   UNL     1     -10.926  16.490  68.489  1.00  0.00    -0.331 OA 
HETATM    6  C   UNL     1     -10.599  17.771  67.950  1.00  0.00    -0.382 C  
ENDBRANCH   3   5
ENDBRANCH   1   3
BRANCH   2   7
HETATM    7  C   UNL     1      -9.753  12.359  67.168  1.00  0.00    -0.207 C  
HETATM    8  O   UNL     1      -9.118  11.398  67.571  1.00  0.00    -0.153 OA 
BRANCH   7   9
HETATM    9  O   UNL     1     -10.841  12.326  66.360  1.00  0.00    -0.248 OA 
HETATM   10  C   UNL     1     -10.524  12.469  64.974  1.00  0.00    -0.297 C  
ENDBRANCH   7   9
ENDBRANCH   2   7
TORSDOF 4
ENDMDL
MODEL      173
REMARK 921   NORMALIZED FREE ENERGY PREDICTED BY IDOCK:   -2.01 KCAL/MOL
REMARK 922        TOTAL FREE ENERGY PREDICTED BY IDOCK:   -2.58 KCAL/MOL
REMARK 923 INTER-LIGAND FREE ENERGY PREDICTED BY IDOCK:   -2.47 KCAL/MOL
REMARK 924 INTRA-LIGAND FREE ENERGY PREDICTED BY IDOCK:   -0.11 KCAL/MOL
REMARK 927      BINDING AFFINITY PREDICTED BY RF-SCORE:    0.00 PKD
ROOT
HETATM    1  C   UNL     1     -10.360  11.796  67.116  1.00  0.00    -0.242 C  
HETATM    2  C   UNL     1      -9.544  12.782  66.721  1.00  0.00    -0.244 C  
ENDROOT
BRANCH   1   3
HETATM    3  C   UNL     1      -9.820  10.619  67.817  1.00  0.00    -0.165 C  
HETATM    4  O   UNL     1      -8.804  10.610  68.490  1.00  0.00    -0.134 OA 
BRANCH   3   5
HETATM    5  O   UNL     1     -10.649   9.574  67.577  1.00  0.00    -0.259 OA 
HETATM    6  C   UNL     1     -10.114   8.598  66.684  1.00  0.00    -0.294 C  
ENDBRANCH   3   5
ENDBRANCH   1   3
BRANCH   2   7
HETATM    7  C   UNL     1     -10.129  13.939  66.023  1.00  0.00    -0.313 C  
HETATM    8  O   UNL     1     -10.014  14.161  64.829  1.00  0.00    -0.289 OA 
BRANCH   7   9
HETATM    9  O   UNL     1     -10.801  14.698  66.923  1.00  0.00    -0.293 OA 
HETATM   10  C   UNL     1      -9.961  15.602  67.644  1.00  0.00    -0.237 C  
ENDBRANCH   7   9
ENDBRANCH   2   7
TORSDOF 4
ENDMDL
MODEL      174
REMARK 921   NORMALIZED FREE ENERGY PREDICTED BY IDOCK:   -2.01 KCAL/MOL
REMARK 922        TOTAL FREE ENERGY PREDICTED BY IDOCK:   -2.58 KCAL/MOL
REMARK 923 INTER-LIGAND FREE ENERGY PREDICTED BY IDOCK:   -2.46 KCAL/MOL
REMARK 924 INTRA-LIGAND FREE ENERGY PREDICTED BY IDOCK:   -0.12 KCAL/MOL
REMARK 927      BINDING AFFINITY PREDICTED BY RF-SCORE:    0.00 PKD
ROOT
HETATM    1  C   UNL     1      -8.968  14.924  67.585  1.00  0.00    -0.181 C  
HETATM    2  C   UNL     1      -9.356  15.574  68.691  1.00  0.00    -0.201 C  
ENDROOT
BRANCH   1   3
HETATM    3  C   UNL     1      -7.770  14.068  67.608  1.00  0.00    -0.177 C  
HETATM    4  O   UNL     1      -6.666  14.396  67.210  1.00  0.00    -0.269 OA 
BRANCH   3   5
HETATM    5  O   UNL     1      -8.123  12.873  68.143  1.00  0.00    -0.141 OA 
HETATM    6  C   UNL     1      -7.051  12.181  68.783  1.00  0.00    -0.110 C  
ENDBRANCH   3   5
ENDBRANCH   1   3
BRANCH   2   7
HETATM    7  C   UNL     1     -10.560  16.419  68.621  1.00  0.00    -0.305 C  
HETATM    8  O   UNL     1     -11.651  16.041  68.229  1.00  0.00    -0.338 OA 
BRANCH   7   9
HETATM    9  O   UNL     1     -10.247  17.662  69.061  1.00  0.00    -0.364 OA 
HETATM   10  C   UNL     1     -10.341  18.664  68.047  1.00  0.00    -0.377 C  
ENDBRANCH   7   9
ENDBRANCH   2   7
TORSDOF 4
ENDMDL
MODEL      175
REMARK 921   NORMALIZED FREE ENERGY PREDICTED BY IDOCK:   -1.96 KCAL/MOL
REMARK 922        TOTAL FREE ENERGY PREDICTED BY IDOCK:   -2.53 KCAL/MOL
REMARK 923 INTER-LIGAND FREE ENERGY PREDICTED BY IDOCK:   -2.46 KCAL/MOL
REMARK 924 INTRA-LIGAND FREE ENERGY PREDICTED BY IDOCK:   -0.07 KCAL/MOL
REMARK 927      BINDING AFFINITY PREDICTED BY RF-SCORE:    0.00 PKD
ROOT
HETATM    1  C   UNL     1     -10.526   6.740  69.607  1.00  0.00    -0.243 C  
HETATM    2  C   UNL     1     -10.765   7.833  68.870  1.00  0.00    -0.108 C  
ENDROOT
BRANCH   1   3
HETATM    3  C   UNL     1     -11.368   6.431  70.775  1.00  0.00    -0.350 C  
HETATM    4  O   UNL     1     -12.499   6.848  70.953  1.00  0.00    -0.378 OA 
BRANCH   3   5
HETATM    5  O   UNL     1     -10.661   5.614  71.593  1.00  0.00    -0.244 OA 
HETATM    6  C   UNL     1     -11.270   5.394  72.865  1.00  0.00    -0.314 C  
ENDBRANCH   3   5
ENDBRANCH   1   3
BRANCH   2   7
HETATM    7  C   UNL     1      -9.897   8.102  67.712  1.00  0.00    -0.166 C  
HETATM    8  O   UNL     1      -8.918   7.440  67.409  1.00  0.00    -0.122 OA 
BRANCH   7   9
HETATM    9  O   UNL     1     -10.369   9.190  67.056  1.00  0.00    -0.250 OA 
HETATM   10  C   UNL     1      -9.677   9.460  65.834  1.00  0.00    -0.285 C  
ENDBRANCH   7   9
ENDBRANCH   2   7
TORSDOF 4
ENDMDL
MODEL      176
REMARK 921   NORMALIZED FREE ENERGY PREDICTED BY IDOCK:   -1.93 KCAL/MOL
REMARK 922        TOTAL FREE ENERGY PREDICTED BY IDOCK:   -2.48 KCAL/MOL
REMARK 923 INTER-LIGAND FREE ENERGY PREDICTED BY IDOCK:   -2.41 KCAL/MOL
REMARK 924 INTRA-LIGAND FREE ENERGY PREDICTED BY IDOCK:   -0.08 KCAL/MOL
REMARK 927      BINDING AFFINITY PREDICTED BY RF-SCORE:    0.00 PKD
ROOT
HETATM    1  C   UNL     1     -10.077   5.004  67.428  1.00  0.00    -0.213 C  
HETATM    2  C   UNL     1     -10.420   6.200  67.926  1.00  0.00    -0.286 C  
ENDROOT
BRANCH   1   3
HETATM    3  C   UNL     1     -10.064   4.782  65.972  1.00  0.00    -0.257 C  
HETATM    4  O   UNL     1     -11.029   4.456  65.304  1.00  0.00    -0.250 OA 
BRANCH   3   5
HETATM    5  O   UNL     1      -8.802   5.004  65.529  1.00  0.00    -0.137 OA 
HETATM    6  C   UNL     1      -8.656   4.908  64.112  1.00  0.00    -0.135 C  
ENDBRANCH   3   5
ENDBRANCH   1   3
BRANCH   2   7
HETATM    7  C   UNL     1     -10.419   6.376  69.388  1.00  0.00    -0.228 C  
HETATM    8  O   UNL     1      -9.416   6.482  70.074  1.00  0.00    -0.156 OA 
BRANCH   7   9
HETATM    9  O   UNL     1     -11.702   6.400  69.826  1.00  0.00    -0.414 OA 
HETATM   10  C   UNL     1     -11.815   6.528  71.245  1.00  0.00    -0.329 C  
ENDBRANCH   7   9
ENDBRANCH   2   7
TORSDOF 4
ENDMDL
MODEL      177
REMARK 921   NORMALIZED FREE ENERGY PREDICTED BY IDOCK:   -1.92 KCAL/MOL
REMARK 922        TOTAL FREE ENERGY PREDICTED BY IDOCK:   -2.48 KCAL/MOL
REMARK 923 INTER-LIGAND FREE ENERGY PREDICTED BY IDOCK:   -2.38 KCAL/MOL
REMARK 924 INTRA-LIGAND FREE ENERGY PREDICTED BY IDOCK:   -0.10 KCAL/MOL
REMARK 927      BINDING AFFINITY PREDICTED BY RF-SCORE:    0.00 PKD
ROOT
HETATM    1  C   UNL     1     -10.615   7.837  71.584  1.00  0.00    -0.252 C  
HETATM    2  C   UNL     1     -10.158   7.186  70.506  1.00  0.00    -0.202 C  
ENDROOT
BRANCH   1   3
HETATM    3  C   UNL     1     -12.056   7.852  71.888  1.00  0.00    -0.312 C  
HETATM    4  O   UNL     1     -12.776   6.869  71.920  1.00  0.00    -0.336 OA 
BRANCH   3   5
HETATM    5  O   UNL     1     -12.419   9.137  72.119  1.00  0.00    -0.368 OA 
HETATM    6  C   UNL     1     -13.804   9.306  72.422  1.00  0.00    -0.416 C  
ENDBRANCH   3   5
ENDBRANCH   1   3
BRANCH   2   7
HETATM    7  C   UNL     1      -8.709   7.198  70.242  1.00  0.00    -0.144 C  
HETATM    8  O   UNL     1      -8.178   7.783  69.312  1.00  0.00    -0.125 OA 
BRANCH   7   9
HETATM    9  O   UNL     1      -8.086   6.461  71.193  1.00  0.00    -0.114 OA 
HETATM   10  C   UNL     1      -8.167   5.053  70.964  1.00  0.00    -0.109 C  
ENDBRANCH   7   9
ENDBRANCH   2   7
TORSDOF 4
ENDMDL
MODEL      178
REMARK 921   NORMALIZED FREE ENERGY PREDICTED BY IDOCK:   -1.92 KCAL/MOL
REMARK 922        TOTAL FREE ENERGY PREDICTED BY IDOCK:   -2.47 KCAL/MOL
REMARK 923 INTER-LIGAND FREE ENERGY PREDICTED BY IDOCK:   -2.37 KCAL/MOL
REMARK 924 INTRA-LIGAND FREE ENERGY PREDICTED BY IDOCK:   -0.11 KCAL/MOL
REMARK 927      BINDING AFFINITY PREDICTED BY RF-SCORE:    0.00 PKD
ROOT
HETATM    1  C   UNL     1      -8.403  14.323  67.811  1.00  0.00    -0.174 C  
HETATM    2  C   UNL     1      -9.166  14.586  66.742  1.00  0.00    -0.286 C  
ENDROOT
BRANCH   1   3
HETATM    3  C   UNL     1      -7.775  13.001  67.969  1.00  0.00    -0.145 C  
HETATM    4  O   UNL     1      -8.311  11.936  67.720  1.00  0.00    -0.134 OA 
BRANCH   3   5
HETATM    5  O   UNL     1      -6.516  13.191  68.434  1.00  0.00    -0.072 OA 
HETATM    6  C   UNL     1      -6.130  12.280  69.463  1.00  0.00    -0.118 C  
ENDBRANCH   3   5
ENDBRANCH   1   3
BRANCH   2   7
HETATM    7  C   UNL     1      -9.774  15.922  66.625  1.00  0.00    -0.253 C  
HETATM    8  O   UNL     1      -9.742  16.614  65.621  1.00  0.00    -0.530 OA 
BRANCH   7   9
HETATM    9  O   UNL     1     -10.362  16.239  67.804  1.00  0.00    -0.270 OA 
HETATM   10  C   UNL     1     -10.307  17.634  68.109  1.00  0.00    -0.386 C  
ENDBRANCH   7   9
ENDBRANCH   2   7
TORSDOF 4
ENDMDL
MODEL      179
REMARK 921   NORMALIZED FREE ENERGY PREDICTED BY IDOCK:   -1.92 KCAL/MOL
REMARK 922        TOTAL FREE ENERGY PREDICTED BY IDOCK:   -2.47 KCAL/MOL
REMARK 923 INTER-LIGAND FREE ENERGY PREDICTED BY IDOCK:   -2.35 KCAL/MOL
REMARK 924 INTRA-LIGAND FREE ENERGY PREDICTED BY IDOCK:   -0.12 KCAL/MOL
REMARK 927      BINDING AFFINITY PREDICTED BY RF-SCORE:    0.00 PKD
ROOT
HETATM    1  C   UNL     1      -9.931   4.935  67.210  1.00  0.00    -0.220 C  
HETATM    2  C   UNL     1     -10.099   4.499  65.954  1.00  0.00    -0.279 C  
ENDROOT
BRANCH   1   3
HETATM    3  C   UNL     1     -10.660   6.120  67.690  1.00  0.00    -0.270 C  
HETATM    4  O   UNL     1     -11.247   6.198  68.755  1.00  0.00    -0.367 OA 
BRANCH   3   5
HETATM    5  O   UNL     1     -10.558   7.084  66.742  1.00  0.00    -0.281 OA 
HETATM    6  C   UNL     1     -10.533   8.413  67.262  1.00  0.00    -0.303 C  
ENDBRANCH   3   5
ENDBRANCH   1   3
BRANCH   2   7
HETATM    7  C   UNL     1      -9.349   3.309  65.517  1.00  0.00    -0.134 C  
HETATM    8  O   UNL     1      -8.788   2.528  66.268  1.00  0.00    -0.122 OA 
BRANCH   7   9
HETATM    9  O   UNL     1      -9.391   3.238  64.165  1.00  0.00    -0.121 OA 
HETATM   10  C   UNL     1     -10.711   3.358  63.630  1.00  0.00    -0.255 C  
ENDBRANCH   7   9
ENDBRANCH   2   7
TORSDOF 4
ENDMDL
MODEL      180
REMARK 921   NORMALIZED FREE ENERGY PREDICTED BY IDOCK:   -1.92 KCAL/MOL
REMARK 922        TOTAL FREE ENERGY PREDICTED BY IDOCK:   -2.47 KCAL/MOL
REMARK 923 INTER-LIGAND FREE ENERGY PREDICTED BY IDOCK:   -2.39 KCAL/MOL
REMARK 924 INTRA-LIGAND FREE ENERGY PREDICTED BY IDOCK:   -0.08 KCAL/MOL
REMARK 927      BINDING AFFINITY PREDICTED BY RF-SCORE:    0.00 PKD
ROOT
HETATM    1  C   UNL     1     -10.749   7.768  70.522  1.00  0.00    -0.238 C  
HETATM    2  C   UNL     1     -10.699   6.619  71.209  1.00  0.00    -0.269 C  
ENDROOT
BRANCH   1   3
HETATM    3  C   UNL     1     -10.308   7.815  69.118  1.00  0.00    -0.215 C  
HETATM    4  O   UNL     1      -9.735   6.913  68.534  1.00  0.00    -0.138 OA 
BRANCH   3   5
HETATM    5  O   UNL     1     -10.654   9.024  68.613  1.00  0.00    -0.212 OA 
HETATM    6  C   UNL     1      -9.847   9.450  67.515  1.00  0.00    -0.173 C  
ENDBRANCH   3   5
ENDBRANCH   1   3
BRANCH   2   7
HETATM    7  C   UNL     1     -11.151   6.619  72.611  1.00  0.00    -0.257 C  
HETATM    8  O   UNL     1     -10.945   7.522  73.406  1.00  0.00    -0.380 OA 
BRANCH   7   9
HETATM    9  O   UNL     1     -11.821   5.467  72.855  1.00  0.00    -0.263 OA 
HETATM   10  C   UNL     1     -10.964   4.371  73.182  1.00  0.00    -0.247 C  
ENDBRANCH   7   9
ENDBRANCH   2   7
TORSDOF 4
ENDMDL
MODEL      181
REMARK 921   NORMALIZED FREE ENERGY PREDICTED BY IDOCK:   -1.90 KCAL/MOL
REMARK 922        TOTAL FREE ENERGY PREDICTED BY IDOCK:   -2.44 KCAL/MOL
REMARK 923 INTER-LIGAND FREE ENERGY PREDICTED BY IDOCK:   -2.31 KCAL/MOL
REMARK 924 INTRA-LIGAND FREE ENERGY PREDICTED BY IDOCK:   -0.13 KCAL/MOL
REMARK 927      BINDING AFFINITY PREDICTED BY RF-SCORE:    0.00 PKD
ROOT
HETATM    1  C   UNL     1     -10.198   6.088  71.173  1.00  0.00    -0.257 C  
HETATM    2  C   UNL     1     -11.201   5.727  71.985  1.00  0.00    -0.307 C  
ENDROOT
BRANCH   1   3
HETATM    3  C   UNL     1     -10.481   6.775  69.901  1.00  0.00    -0.211 C  
HETATM    4  O   UNL     1     -11.288   6.403  69.068  1.00  0.00    -0.355 OA 
BRANCH   3   5
HETATM    5  O   UNL     1      -9.690   7.874  69.837  1.00  0.00    -0.175 OA 
HETATM    6  C   UNL     1     -10.249   9.032  70.457  1.00  0.00    -0.219 C  
ENDBRANCH   3   5
ENDBRANCH   1   3
BRANCH   2   7
HETATM    7  C   UNL     1     -10.871   5.043  73.246  1.00  0.00    -0.295 C  
HETATM    8  O   UNL     1     -11.445   4.053  73.670  1.00  0.00    -0.220 OA 
BRANCH   7   9
HETATM    9  O   UNL     1      -9.839   5.692  73.838  1.00  0.00    -0.160 OA 
HETATM   10  C   UNL     1      -8.963   4.826  74.561  1.00  0.00    -0.110 C  
ENDBRANCH   7   9
ENDBRANCH   2   7
TORSDOF 4
ENDMDL
MODEL      182
REMARK 921   NORMALIZED FREE ENERGY PREDICTED BY IDOCK:   -1.89 KCAL/MOL
REMARK 922        TOTAL FREE ENERGY PREDICTED BY IDOCK:   -2.44 KCAL/MOL
REMARK 923 INTER-LIGAND FREE ENERGY PREDICTED BY IDOCK:   -2.33 KCAL/MOL
REMARK 924 INTRA-LIGAND FREE ENERGY PREDICTED BY IDOCK:   -0.11 KCAL/MOL
REMARK 927      BINDING AFFINITY PREDICTED BY RF-SCORE:    0.00 PKD
ROOT
HETATM    1  C   UNL     1      -9.976  13.467  66.546  1.00  0.00    -0.286 C  
HETATM    2  C   UNL     1      -9.566  12.922  67.700  1.00  0.00    -0.196 C  
ENDROOT
BRANCH   1   3
HETATM    3  C   UNL     1     -10.538  14.827  66.524  1.00  0.00    -0.299 C  
HETATM    4  O   UNL     1     -11.186  15.303  65.609  1.00  0.00    -0.323 OA 
BRANCH   3   5
HETATM    5  O   UNL     1     -10.206  15.434  67.690  1.00  0.00    -0.241 OA 
HETATM    6  C   UNL     1     -10.753  16.744  67.843  1.00  0.00    -0.347 C  
ENDBRANCH   3   5
ENDBRANCH   1   3
BRANCH   2   7
HETATM    7  C   UNL     1      -9.010  11.559  67.674  1.00  0.00    -0.160 C  
HETATM    8  O   UNL     1      -9.152  10.769  66.755  1.00  0.00    -0.151 OA 
BRANCH   7   9
HETATM    9  O   UNL     1      -8.328  11.343  68.825  1.00  0.00    -0.150 OA 
HETATM   10  C   UNL     1      -8.557  10.049  69.386  1.00  0.00    -0.175 C  
ENDBRANCH   7   9
ENDBRANCH   2   7
TORSDOF 4
ENDMDL
MODEL      183
REMARK 921   NORMALIZED FREE ENERGY PREDICTED BY IDOCK:   -1.87 KCAL/MOL
REMARK 922        TOTAL FREE ENERGY PREDICTED BY IDOCK:   -2.41 KCAL/MOL
REMARK 923 INTER-LIGAND FREE ENERGY PREDICTED BY IDOCK:   -2.31 KCAL/MOL
REMARK 924 INTRA-LIGAND FREE ENERGY PREDICTED BY IDOCK:   -0.10 KCAL/MOL
REMARK 927      BINDING AFFINITY PREDICTED BY RF-SCORE:    0.00 PKD
ROOT
HETATM    1  C   UNL     1      -8.848  14.509  68.064  1.00  0.00    -0.175 C  
HETATM    2  C   UNL     1     -10.108  14.472  68.521  1.00  0.00    -0.242 C  
ENDROOT
BRANCH   1   3
HETATM    3  C   UNL     1      -7.742  14.871  68.965  1.00  0.00    -0.153 C  
HETATM    4  O   UNL     1      -7.575  15.969  69.465  1.00  0.00    -0.219 OA 
BRANCH   3   5
HETATM    5  O   UNL     1      -6.963  13.773  69.129  1.00  0.00    -0.111 OA 
HETATM    6  C   UNL     1      -6.067  13.853  70.238  1.00  0.00    -0.141 C  
ENDBRANCH   3   5
ENDBRANCH   1   3
BRANCH   2   7
HETATM    7  C   UNL     1     -11.183  14.105  67.584  1.00  0.00    -0.297 C  
HETATM    8  O   UNL     1     -11.171  14.342  66.387  1.00  0.00    -0.329 OA 
BRANCH   7   9
HETATM    9  O   UNL     1     -12.164  13.471  68.270  1.00  0.00    -0.313 OA 
HETATM   10  C   UNL     1     -11.723  12.276  68.918  1.00  0.00    -0.328 C  
ENDBRANCH   7   9
ENDBRANCH   2   7
TORSDOF 4
ENDMDL
MODEL      184
REMARK 921   NORMALIZED FREE ENERGY PREDICTED BY IDOCK:   -1.82 KCAL/MOL
REMARK 922        TOTAL FREE ENERGY PREDICTED BY IDOCK:   -2.35 KCAL/MOL
REMARK 923 INTER-LIGAND FREE ENERGY PREDICTED BY IDOCK:   -2.28 KCAL/MOL
REMARK 924 INTRA-LIGAND FREE ENERGY PREDICTED BY IDOCK:   -0.07 KCAL/MOL
REMARK 927      BINDING AFFINITY PREDICTED BY RF-SCORE:    0.00 PKD
ROOT
HETATM    1  C   UNL     1      -6.470  19.243  67.210  1.00  0.00    -0.198 C  
HETATM    2  C   UNL     1      -7.096  19.335  68.392  1.00  0.00    -0.328 C  
ENDROOT
BRANCH   1   3
HETATM    3  C   UNL     1      -7.235  19.325  65.955  1.00  0.00    -0.275 C  
HETATM    4  O   UNL     1      -8.411  19.033  65.830  1.00  0.00    -0.463 OA 
BRANCH   3   5
HETATM    5  O   UNL     1      -6.400  19.778  64.988  1.00  0.00    -0.250 OA 
HETATM    6  C   UNL     1      -5.801  18.746  64.203  1.00  0.00     0.042 C  
ENDBRANCH   3   5
ENDBRANCH   1   3
BRANCH   2   7
HETATM    7  C   UNL     1      -6.290  19.248  69.621  1.00  0.00    -0.286 C  
HETATM    8  O   UNL     1      -5.287  18.565  69.746  1.00  0.00    -0.188 OA 
BRANCH   7   9
HETATM    9  O   UNL     1      -6.848  20.042  70.567  1.00  0.00    -0.151 OA 
HETATM   10  C   UNL     1      -6.082  20.115  71.771  1.00  0.00    -0.180 C  
ENDBRANCH   7   9
ENDBRANCH   2   7
TORSDOF 4
ENDMDL
MODEL      185
REMARK 921   NORMALIZED FREE ENERGY PREDICTED BY IDOCK:   -1.80 KCAL/MOL
REMARK 922        TOTAL FREE ENERGY PREDICTED BY IDOCK:   -2.33 KCAL/MOL
REMARK 923 INTER-LIGAND FREE ENERGY PREDICTED BY IDOCK:   -2.20 KCAL/MOL
REMARK 924 INTRA-LIGAND FREE ENERGY PREDICTED BY IDOCK:   -0.12 KCAL/MOL
REMARK 927      BINDING AFFINITY PREDICTED BY RF-SCORE:    0.00 PKD
ROOT
HETATM    1  C   UNL     1     -10.032   5.053  71.453  1.00  0.00    -0.259 C  
HETATM    2  C   UNL     1     -10.560   6.285  71.477  1.00  0.00    -0.282 C  
ENDROOT
BRANCH   1   3
HETATM    3  C   UNL     1      -9.574   4.416  72.698  1.00  0.00    -0.137 C  
HETATM    4  O   UNL     1      -8.490   3.882  72.855  1.00  0.00    -0.093 OA 
BRANCH   3   5
HETATM    5  O   UNL     1     -10.565   4.534  73.615  1.00  0.00    -0.194 OA 
HETATM    6  C   UNL     1     -11.351   3.353  73.780  1.00  0.00    -0.063 C  
ENDBRANCH   3   5
ENDBRANCH   1   3
BRANCH   2   7
HETATM    7  C   UNL     1     -11.005   6.882  70.207  1.00  0.00    -0.281 C  
HETATM    8  O   UNL     1     -11.560   6.271  69.309  1.00  0.00    -0.363 OA 
BRANCH   7   9
HETATM    9  O   UNL     1     -10.695   8.202  70.213  1.00  0.00    -0.228 OA 
HETATM   10  C   UNL     1     -10.459   8.724  71.522  1.00  0.00    -0.303 C  
ENDBRANCH   7   9
ENDBRANCH   2   7
TORSDOF 4
ENDMDL
MODEL      186
REMARK 921   NORMALIZED FREE ENERGY PREDICTED BY IDOCK:   -1.80 KCAL/MOL
REMARK 922        TOTAL FREE ENERGY PREDICTED BY IDOCK:   -2.33 KCAL/MOL
REMARK 923 INTER-LIGAND FREE ENERGY PREDICTED BY IDOCK:   -2.20 KCAL/MOL
REMARK 924 INTRA-LIGAND FREE ENERGY PREDICTED BY IDOCK:   -0.13 KCAL/MOL
REMARK 927      BINDING AFFINITY PREDICTED BY RF-SCORE:    0.00 PKD
ROOT
HETATM    1  C   UNL     1      -9.849  12.159  68.096  1.00  0.00    -0.207 C  
HETATM    2  C   UNL     1      -9.811  11.089  68.902  1.00  0.00    -0.189 C  
ENDROOT
BRANCH   1   3
HETATM    3  C   UNL     1     -11.126  12.606  67.513  1.00  0.00    -0.272 C  
HETATM    4  O   UNL     1     -12.230  12.331  67.950  1.00  0.00    -0.409 OA 
BRANCH   3   5
HETATM    5  O   UNL     1     -10.844  13.363  66.425  1.00  0.00    -0.286 OA 
HETATM    6  C   UNL     1      -9.483  13.789  66.347  1.00  0.00    -0.243 C  
ENDBRANCH   3   5
ENDBRANCH   1   3
BRANCH   2   7
HETATM    7  C   UNL     1      -8.513  10.679  69.462  1.00  0.00     0.026 C  
HETATM    8  O   UNL     1      -7.439  11.176  69.162  1.00  0.00    -0.123 OA 
BRANCH   7   9
HETATM    9  O   UNL     1      -8.717   9.675  70.349  1.00  0.00    -0.221 OA 
HETATM   10  C   UNL     1     -10.098   9.379  70.563  1.00  0.00    -0.275 C  
ENDBRANCH   7   9
ENDBRANCH   2   7
TORSDOF 4
ENDMDL
MODEL      187
REMARK 921   NORMALIZED FREE ENERGY PREDICTED BY IDOCK:   -1.80 KCAL/MOL
REMARK 922        TOTAL FREE ENERGY PREDICTED BY IDOCK:   -2.32 KCAL/MOL
REMARK 923 INTER-LIGAND FREE ENERGY PREDICTED BY IDOCK:   -2.20 KCAL/MOL
REMARK 924 INTRA-LIGAND FREE ENERGY PREDICTED BY IDOCK:   -0.12 KCAL/MOL
REMARK 927      BINDING AFFINITY PREDICTED BY RF-SCORE:    0.00 PKD
ROOT
HETATM    1  C   UNL     1      -9.880   6.295  67.564  1.00  0.00    -0.139 C  
HETATM    2  C   UNL     1     -10.566   5.551  66.685  1.00  0.00    -0.365 C  
ENDROOT
BRANCH   1   3
HETATM    3  C   UNL     1     -10.513   7.458  68.207  1.00  0.00    -0.189 C  
HETATM    4  O   UNL     1     -10.743   7.561  69.399  1.00  0.00    -0.229 OA 
BRANCH   3   5
HETATM    5  O   UNL     1     -10.784   8.371  67.242  1.00  0.00    -0.285 OA 
HETATM    6  C   UNL     1     -10.671   9.727  67.674  1.00  0.00    -0.274 C  
ENDBRANCH   3   5
ENDBRANCH   1   3
BRANCH   2   7
HETATM    7  C   UNL     1      -9.892   4.397  66.067  1.00  0.00    -0.230 C  
HETATM    8  O   UNL     1     -10.169   3.935  64.972  1.00  0.00    -0.191 OA 
BRANCH   7   9
HETATM    9  O   UNL     1      -8.930   3.949  66.911  1.00  0.00    -0.119 OA 
HETATM   10  C   UNL     1      -9.156   2.615  67.371  1.00  0.00    -0.174 C  
ENDBRANCH   7   9
ENDBRANCH   2   7
TORSDOF 4
ENDMDL
MODEL      188
REMARK 921   NORMALIZED FREE ENERGY PREDICTED BY IDOCK:   -1.76 KCAL/MOL
REMARK 922        TOTAL FREE ENERGY PREDICTED BY IDOCK:   -2.27 KCAL/MOL
REMARK 923 INTER-LIGAND FREE ENERGY PREDICTED BY IDOCK:   -2.14 KCAL/MOL
REMARK 924 INTRA-LIGAND FREE ENERGY PREDICTED BY IDOCK:   -0.13 KCAL/MOL
REMARK 927      BINDING AFFINITY PREDICTED BY RF-SCORE:    0.00 PKD
ROOT
HETATM    1  C   UNL     1     -10.165  12.477  67.441  1.00  0.00    -0.217 C  
HETATM    2  C   UNL     1     -10.235  11.588  68.441  1.00  0.00    -0.211 C  
ENDROOT
BRANCH   1   3
HETATM    3  C   UNL     1     -10.390  13.909  67.703  1.00  0.00    -0.242 C  
HETATM    4  O   UNL     1     -10.320  14.441  68.796  1.00  0.00    -0.234 OA 
BRANCH   3   5
HETATM    5  O   UNL     1     -10.684  14.506  66.522  1.00  0.00    -0.302 OA 
HETATM    6  C   UNL     1     -11.882  14.029  65.908  1.00  0.00    -0.383 C  
ENDBRANCH   3   5
ENDBRANCH   1   3
BRANCH   2   7
HETATM    7  C   UNL     1     -10.002  10.167  68.133  1.00  0.00    -0.147 C  
HETATM    8  O   UNL     1     -10.862   9.301  68.154  1.00  0.00    -0.188 OA 
BRANCH   7   9
HETATM    9  O   UNL     1      -8.693   9.995  67.828  1.00  0.00    -0.125 OA 
HETATM   10  C   UNL     1      -7.849   9.907  68.978  1.00  0.00    -0.095 C  
ENDBRANCH   7   9
ENDBRANCH   2   7
TORSDOF 4
ENDMDL
MODEL      189
REMARK 921   NORMALIZED FREE ENERGY PREDICTED BY IDOCK:   -1.71 KCAL/MOL
REMARK 922        TOTAL FREE ENERGY PREDICTED BY IDOCK:   -2.21 KCAL/MOL
REMARK 923 INTER-LIGAND FREE ENERGY PREDICTED BY IDOCK:   -2.12 KCAL/MOL
REMARK 924 INTRA-LIGAND FREE ENERGY PREDICTED BY IDOCK:   -0.09 KCAL/MOL
REMARK 927      BINDING AFFINITY PREDICTED BY RF-SCORE:    0.00 PKD
ROOT
HETATM    1  C   UNL     1     -10.459   4.691  65.831  1.00  0.00    -0.305 C  
HETATM    2  C   UNL     1      -9.853   5.787  66.309  1.00  0.00    -0.136 C  
ENDROOT
BRANCH   1   3
HETATM    3  C   UNL     1      -9.680   3.655  65.134  1.00  0.00    -0.157 C  
HETATM    4  O   UNL     1      -9.253   2.635  65.647  1.00  0.00    -0.146 OA 
BRANCH   3   5
HETATM    5  O   UNL     1      -9.532   4.042  63.843  1.00  0.00    -0.148 OA 
HETATM    6  C   UNL     1     -10.638   3.708  63.004  1.00  0.00    -0.218 C  
ENDBRANCH   3   5
ENDBRANCH   1   3
BRANCH   2   7
HETATM    7  C   UNL     1     -10.672   6.797  66.999  1.00  0.00    -0.365 C  
HETATM    8  O   UNL     1     -11.520   6.547  67.840  1.00  0.00    -0.146 OA 
BRANCH   7   9
HETATM    9  O   UNL     1     -10.325   8.026  66.545  1.00  0.00    -0.260 OA 
HETATM   10  C   UNL     1     -10.605   9.074  67.474  1.00  0.00    -0.237 C  
ENDBRANCH   7   9
ENDBRANCH   2   7
TORSDOF 4
ENDMDL
MODEL      190
REMARK 921   NORMALIZED FREE ENERGY PREDICTED BY IDOCK:   -1.68 KCAL/MOL
REMARK 922        TOTAL FREE ENERGY PREDICTED BY IDOCK:   -2.17 KCAL/MOL
REMARK 923 INTER-LIGAND FREE ENERGY PREDICTED BY IDOCK:   -2.11 KCAL/MOL
REMARK 924 INTRA-LIGAND FREE ENERGY PREDICTED BY IDOCK:   -0.06 KCAL/MOL
REMARK 927      BINDING AFFINITY PREDICTED BY RF-SCORE:    0.00 PKD
ROOT
HETATM    1  C   UNL     1      -8.913   9.433  65.579  1.00  0.00    -0.248 C  
HETATM    2  C   UNL     1      -9.634   8.854  66.548  1.00  0.00    -0.297 C  
ENDROOT
BRANCH   1   3
HETATM    3  C   UNL     1      -9.580  10.204  64.516  1.00  0.00    -0.311 C  
HETATM    4  O   UNL     1     -10.676  10.727  64.612  1.00  0.00    -0.284 OA 
BRANCH   3   5
HETATM    5  O   UNL     1      -8.759  10.222  63.437  1.00  0.00    -0.173 OA 
HETATM    6  C   UNL     1      -9.256  10.985  62.338  1.00  0.00    -0.239 C  
ENDBRANCH   3   5
ENDBRANCH   1   3
BRANCH   2   7
HETATM    7  C   UNL     1      -8.925   8.093  67.590  1.00  0.00    -0.132 C  
HETATM    8  O   UNL     1      -8.826   6.877  67.616  1.00  0.00    -0.120 OA 
BRANCH   7   9
HETATM    9  O   UNL     1      -8.413   8.963  68.495  1.00  0.00    -0.126 OA 
HETATM   10  C   UNL     1      -9.406   9.774  69.127  1.00  0.00    -0.182 C  
ENDBRANCH   7   9
ENDBRANCH   2   7
TORSDOF 4
ENDMDL
MODEL      191
REMARK 921   NORMALIZED FREE ENERGY PREDICTED BY IDOCK:   -1.65 KCAL/MOL
REMARK 922        TOTAL FREE ENERGY PREDICTED BY IDOCK:   -2.14 KCAL/MOL
REMARK 923 INTER-LIGAND FREE ENERGY PREDICTED BY IDOCK:   -2.01 KCAL/MOL
REMARK 924 INTRA-LIGAND FREE ENERGY PREDICTED BY IDOCK:   -0.13 KCAL/MOL
REMARK 927      BINDING AFFINITY PREDICTED BY RF-SCORE:    0.00 PKD
ROOT
HETATM    1  C   UNL     1     -11.147   8.578  68.486  1.00  0.00     0.297 C  
HETATM    2  C   UNL     1     -10.420   9.528  69.091  1.00  0.00    -0.224 C  
ENDROOT
BRANCH   1   3
HETATM    3  C   UNL     1     -10.512   7.328  68.039  1.00  0.00    -0.197 C  
HETATM    4  O   UNL     1     -10.627   6.841  66.928  1.00  0.00    -0.280 OA 
BRANCH   3   5
HETATM    5  O   UNL     1      -9.791   6.833  69.075  1.00  0.00    -0.147 OA 
HETATM    6  C   UNL     1     -10.471   5.834  69.834  1.00  0.00    -0.290 C  
ENDBRANCH   3   5
ENDBRANCH   1   3
BRANCH   2   7
HETATM    7  C   UNL     1     -11.098  10.762  69.521  1.00  0.00    -0.278 C  
HETATM    8  O   UNL     1     -11.399  11.684  68.780  1.00  0.00    -0.215 OA 
BRANCH   7   9
HETATM    9  O   UNL     1     -11.325  10.694  70.855  1.00  0.00    -0.253 OA 
HETATM   10  C   UNL     1     -12.712  10.696  71.197  1.00  0.00    -0.422 C  
ENDBRANCH   7   9
ENDBRANCH   2   7
TORSDOF 4
ENDMDL
MODEL      192
REMARK 921   NORMALIZED FREE ENERGY PREDICTED BY IDOCK:   -1.64 KCAL/MOL
REMARK 922        TOTAL FREE ENERGY PREDICTED BY IDOCK:   -2.12 KCAL/MOL
REMARK 923 INTER-LIGAND FREE ENERGY PREDICTED BY IDOCK:   -2.03 KCAL/MOL
REMARK 924 INTRA-LIGAND FREE ENERGY PREDICTED BY IDOCK:   -0.09 KCAL/MOL
REMARK 927      BINDING AFFINITY PREDICTED BY RF-SCORE:    0.00 PKD
ROOT
HETATM    1  C   UNL     1      -9.619  11.945  66.926  1.00  0.00    -0.208 C  
HETATM    2  C   UNL     1      -9.091  11.483  65.784  1.00  0.00    -0.164 C  
ENDROOT
BRANCH   1   3
HETATM    3  C   UNL     1      -8.747  12.307  68.056  1.00  0.00    -0.181 C  
HETATM    4  O   UNL     1      -8.092  11.520  68.716  1.00  0.00    -0.145 OA 
BRANCH   3   5
HETATM    5  O   UNL     1      -8.811  13.652  68.216  1.00  0.00    -0.176 OA 
HETATM    6  C   UNL     1      -7.591  14.245  68.662  1.00  0.00    -0.126 C  
ENDBRANCH   3   5
ENDBRANCH   1   3
BRANCH   2   7
HETATM    7  C   UNL     1     -10.002  11.133  64.682  1.00  0.00    -0.292 C  
HETATM    8  O   UNL     1     -11.115  11.607  64.524  1.00  0.00    -0.321 OA 
BRANCH   7   9
HETATM    9  O   UNL     1      -9.398  10.212  63.892  1.00  0.00    -0.257 OA 
HETATM   10  C   UNL     1      -8.409   9.439  64.575  1.00  0.00    -0.164 C  
ENDBRANCH   7   9
ENDBRANCH   2   7
TORSDOF 4
ENDMDL
MODEL      193
REMARK 921   NORMALIZED FREE ENERGY PREDICTED BY IDOCK:   -1.56 KCAL/MOL
REMARK 922        TOTAL FREE ENERGY PREDICTED BY IDOCK:   -2.03 KCAL/MOL
REMARK 923 INTER-LIGAND FREE ENERGY PREDICTED BY IDOCK:   -1.96 KCAL/MOL
REMARK 924 INTRA-LIGAND FREE ENERGY PREDICTED BY IDOCK:   -0.07 KCAL/MOL
REMARK 927      BINDING AFFINITY PREDICTED BY RF-SCORE:    0.00 PKD
ROOT
HETATM    1  C   UNL     1      -9.036   5.185  70.520  1.00  0.00    -0.177 C  
HETATM    2  C   UNL     1     -10.376   5.187  70.533  1.00  0.00    -0.314 C  
ENDROOT
BRANCH   1   3
HETATM    3  C   UNL     1      -8.302   4.194  69.716  1.00  0.00    -0.061 C  
HETATM    4  O   UNL     1      -7.098   4.193  69.532  1.00  0.00    -0.048 OA 
BRANCH   3   5
HETATM    5  O   UNL     1      -9.202   3.304  69.230  1.00  0.00    -0.124 OA 
HETATM    6  C   UNL     1      -8.697   1.975  69.101  1.00  0.00    -0.076 C  
ENDBRANCH   3   5
ENDBRANCH   1   3
BRANCH   2   7
HETATM    7  C   UNL     1     -11.067   6.197  71.352  1.00  0.00    -0.288 C  
HETATM    8  O   UNL     1     -11.814   7.056  70.912  1.00  0.00    -0.325 OA 
BRANCH   7   9
HETATM    9  O   UNL     1     -10.734   6.008  72.652  1.00  0.00    -0.208 OA 
HETATM   10  C   UNL     1     -11.285   4.813  73.211  1.00  0.00    -0.340 C  
ENDBRANCH   7   9
ENDBRANCH   2   7
TORSDOF 4
ENDMDL
MODEL      194
REMARK 921   NORMALIZED FREE ENERGY PREDICTED BY IDOCK:   -1.54 KCAL/MOL
REMARK 922        TOTAL FREE ENERGY PREDICTED BY IDOCK:   -2.00 KCAL/MOL
REMARK 923 INTER-LIGAND FREE ENERGY PREDICTED BY IDOCK:   -1.87 KCAL/MOL
REMARK 924 INTRA-LIGAND FREE ENERGY PREDICTED BY IDOCK:   -0.13 KCAL/MOL
REMARK 927      BINDING AFFINITY PREDICTED BY RF-SCORE:    0.00 PKD
ROOT
HETATM    1  C   UNL     1      -9.566   7.680  70.152  1.00  0.00    -0.168 C  
HETATM    2  C   UNL     1      -9.364   7.364  68.865  1.00  0.00    -0.145 C  
ENDROOT
BRANCH   1   3
HETATM    3  C   UNL     1      -8.607   7.247  71.182  1.00  0.00    -0.130 C  
HETATM    4  O   UNL     1      -7.407   7.456  71.155  1.00  0.00    -0.071 OA 
BRANCH   3   5
HETATM    5  O   UNL     1      -9.299   6.588  72.144  1.00  0.00    -0.144 OA 
HETATM    6  C   UNL     1     -10.582   7.147  72.426  1.00  0.00    -0.226 C  
ENDBRANCH   3   5
ENDBRANCH   1   3
BRANCH   2   7
HETATM    7  C   UNL     1     -10.349   7.818  67.869  1.00  0.00    -0.217 C  
HETATM    8  O   UNL     1     -10.926   7.088  67.079  1.00  0.00    -0.375 OA 
BRANCH   7   9
HETATM    9  O   UNL     1     -10.499   9.160  67.983  1.00  0.00    -0.218 OA 
HETATM   10  C   UNL     1      -9.737   9.899  67.027  1.00  0.00    -0.182 C  
ENDBRANCH   7   9
ENDBRANCH   2   7
TORSDOF 4
ENDMDL
MODEL      195
REMARK 921   NORMALIZED FREE ENERGY PREDICTED BY IDOCK:   -1.54 KCAL/MOL
REMARK 922        TOTAL FREE ENERGY PREDICTED BY IDOCK:   -2.00 KCAL/MOL
REMARK 923 INTER-LIGAND FREE ENERGY PREDICTED BY IDOCK:   -1.90 KCAL/MOL
REMARK 924 INTRA-LIGAND FREE ENERGY PREDICTED BY IDOCK:   -0.10 KCAL/MOL
REMARK 927      BINDING AFFINITY PREDICTED BY RF-SCORE:    0.00 PKD
ROOT
HETATM    1  C   UNL     1      -9.071  10.150  67.999  1.00  0.00    -0.131 C  
HETATM    2  C   UNL     1     -10.074  10.939  67.587  1.00  0.00    -0.206 C  
ENDROOT
BRANCH   1   3
HETATM    3  C   UNL     1      -9.339   8.764  68.416  1.00  0.00    -0.137 C  
HETATM    4  O   UNL     1     -10.164   8.429  69.247  1.00  0.00    -0.198 OA 
BRANCH   3   5
HETATM    5  O   UNL     1      -8.511   7.952  67.714  1.00  0.00    -0.124 OA 
HETATM    6  C   UNL     1      -9.078   7.442  66.507  1.00  0.00    -0.162 C  
ENDBRANCH   3   5
ENDBRANCH   1   3
BRANCH   2   7
HETATM    7  C   UNL     1      -9.759  12.318  67.180  1.00  0.00    -0.201 C  
HETATM    8  O   UNL     1      -8.662  12.841  67.288  1.00  0.00    -0.183 OA 
BRANCH   7   9
HETATM    9  O   UNL     1     -10.879  12.891  66.676  1.00  0.00    -0.263 OA 
HETATM   10  C   UNL     1     -10.674  14.228  66.213  1.00  0.00    -0.297 C  
ENDBRANCH   7   9
ENDBRANCH   2   7
TORSDOF 4
ENDMDL
MODEL      196
REMARK 921   NORMALIZED FREE ENERGY PREDICTED BY IDOCK:   -1.53 KCAL/MOL
REMARK 922        TOTAL FREE ENERGY PREDICTED BY IDOCK:   -1.99 KCAL/MOL
REMARK 923 INTER-LIGAND FREE ENERGY PREDICTED BY IDOCK:   -1.88 KCAL/MOL
REMARK 924 INTRA-LIGAND FREE ENERGY PREDICTED BY IDOCK:   -0.11 KCAL/MOL
REMARK 927      BINDING AFFINITY PREDICTED BY RF-SCORE:    0.00 PKD
ROOT
HETATM    1  C   UNL     1      -9.822  12.151  66.880  1.00  0.00    -0.213 C  
HETATM    2  C   UNL     1      -9.038  11.263  67.507  1.00  0.00    -0.151 C  
ENDROOT
BRANCH   1   3
HETATM    3  C   UNL     1     -11.012  12.698  67.553  1.00  0.00    -0.246 C  
HETATM    4  O   UNL     1     -11.974  13.187  66.988  1.00  0.00    -0.379 OA 
BRANCH   3   5
HETATM    5  O   UNL     1     -10.836  12.556  68.889  1.00  0.00    -0.234 OA 
HETATM    6  C   UNL     1     -12.032  12.703  69.654  1.00  0.00    -0.286 C  
ENDBRANCH   3   5
ENDBRANCH   1   3
BRANCH   2   7
HETATM    7  C   UNL     1      -7.859  10.744  66.795  1.00  0.00    -0.135 C  
HETATM    8  O   UNL     1      -7.900  10.107  65.755  1.00  0.00    -0.126 OA 
BRANCH   7   9
HETATM    9  O   UNL     1      -6.744  11.090  67.484  1.00  0.00    -0.067 OA 
HETATM   10  C   UNL     1      -5.532  10.699  66.836  1.00  0.00    -0.047 C  
ENDBRANCH   7   9
ENDBRANCH   2   7
TORSDOF 4
ENDMDL
MODEL      197
REMARK 921   NORMALIZED FREE ENERGY PREDICTED BY IDOCK:   -1.52 KCAL/MOL
REMARK 922        TOTAL FREE ENERGY PREDICTED BY IDOCK:   -1.98 KCAL/MOL
REMARK 923 INTER-LIGAND FREE ENERGY PREDICTED BY IDOCK:   -1.84 KCAL/MOL
REMARK 924 INTRA-LIGAND FREE ENERGY PREDICTED BY IDOCK:   -0.14 KCAL/MOL
REMARK 927      BINDING AFFINITY PREDICTED BY RF-SCORE:    0.00 PKD
ROOT
HETATM    1  C   UNL     1      -9.801   6.541  67.033  1.00  0.00    -0.200 C  
HETATM    2  C   UNL     1      -9.513   7.146  68.193  1.00  0.00    -0.132 C  
ENDROOT
BRANCH   1   3
HETATM    3  C   UNL     1      -9.094   5.311  66.641  1.00  0.00    -0.122 C  
HETATM    4  O   UNL     1      -8.018   5.273  66.070  1.00  0.00    -0.102 OA 
BRANCH   3   5
HETATM    5  O   UNL     1      -9.851   4.255  67.026  1.00  0.00    -0.209 OA 
HETATM    6  C   UNL     1      -9.110   3.200  67.641  1.00  0.00    -0.178 C  
ENDBRANCH   3   5
ENDBRANCH   1   3
BRANCH   2   7
HETATM    7  C   UNL     1     -10.246   8.374  68.545  1.00  0.00    -0.201 C  
HETATM    8  O   UNL     1     -10.286   8.863  69.662  1.00  0.00    -0.201 OA 
BRANCH   7   9
HETATM    9  O   UNL     1     -10.854   8.854  67.432  1.00  0.00    -0.218 OA 
HETATM   10  C   UNL     1     -10.841  10.280  67.348  1.00  0.00    -0.277 C  
ENDBRANCH   7   9
ENDBRANCH   2   7
TORSDOF 4
ENDMDL
MODEL      198
REMARK 921   NORMALIZED FREE ENERGY PREDICTED BY IDOCK:   -1.43 KCAL/MOL
REMARK 922        TOTAL FREE ENERGY PREDICTED BY IDOCK:   -1.86 KCAL/MOL
REMARK 923 INTER-LIGAND FREE ENERGY PREDICTED BY IDOCK:   -1.73 KCAL/MOL
REMARK 924 INTRA-LIGAND FREE ENERGY PREDICTED BY IDOCK:   -0.13 KCAL/MOL
REMARK 927      BINDING AFFINITY PREDICTED BY RF-SCORE:    0.00 PKD
ROOT
HETATM    1  C   UNL     1      -9.630   7.191  69.911  1.00  0.00    -0.163 C  
HETATM    2  C   UNL     1      -8.912   7.505  68.824  1.00  0.00    -0.129 C  
ENDROOT
BRANCH   1   3
HETATM    3  C   UNL     1     -10.114   8.250  70.813  1.00  0.00    -0.190 C  
HETATM    4  O   UNL     1     -10.395   8.094  71.988  1.00  0.00    -0.215 OA 
BRANCH   3   5
HETATM    5  O   UNL     1     -10.185   9.402  70.102  1.00  0.00    -0.199 OA 
HETATM    6  C   UNL     1     -11.397  10.132  70.293  1.00  0.00    -0.315 C  
ENDBRANCH   3   5
ENDBRANCH   1   3
BRANCH   2   7
HETATM    7  C   UNL     1      -8.448   6.414  67.950  1.00  0.00    -0.118 C  
HETATM    8  O   UNL     1      -7.626   5.570  68.269  1.00  0.00    -0.079 OA 
BRANCH   7   9
HETATM    9  O   UNL     1      -9.083   6.510  66.757  1.00  0.00    -0.134 OA 
HETATM   10  C   UNL     1      -9.828   5.340  66.414  1.00  0.00    -0.186 C  
ENDBRANCH   7   9
ENDBRANCH   2   7
TORSDOF 4
ENDMDL
MODEL      199
REMARK 921   NORMALIZED FREE ENERGY PREDICTED BY IDOCK:   -1.39 KCAL/MOL
REMARK 922        TOTAL FREE ENERGY PREDICTED BY IDOCK:   -1.82 KCAL/MOL
REMARK 923 INTER-LIGAND FREE ENERGY PREDICTED BY IDOCK:   -1.68 KCAL/MOL
REMARK 924 INTRA-LIGAND FREE ENERGY PREDICTED BY IDOCK:   -0.13 KCAL/MOL
REMARK 927      BINDING AFFINITY PREDICTED BY RF-SCORE:    0.00 PKD
ROOT
HETATM    1  C   UNL     1      -8.745   8.343  67.579  1.00  0.00    -0.136 C  
HETATM    2  C   UNL     1      -9.964   8.860  67.372  1.00  0.00    -0.267 C  
ENDROOT
BRANCH   1   3
HETATM    3  C   UNL     1      -8.539   6.886  67.540  1.00  0.00    -0.121 C  
HETATM    4  O   UNL     1      -7.988   6.280  66.637  1.00  0.00    -0.106 OA 
BRANCH   3   5
HETATM    5  O   UNL     1      -9.066   6.360  68.672  1.00  0.00    -0.128 OA 
HETATM    6  C   UNL     1      -8.138   6.253  69.753  1.00  0.00    -0.120 C  
ENDBRANCH   3   5
ENDBRANCH   1   3
BRANCH   2   7
HETATM    7  C   UNL     1     -10.123  10.323  67.421  1.00  0.00    -0.202 C  
HETATM    8  O   UNL     1     -11.105  10.928  67.023  1.00  0.00    -0.272 OA 
BRANCH   7   9
HETATM    9  O   UNL     1      -9.011  10.865  67.973  1.00  0.00    -0.137 OA 
HETATM   10  C   UNL     1      -9.105  12.277  68.169  1.00  0.00    -0.196 C  
ENDBRANCH   7   9
ENDBRANCH   2   7
TORSDOF 4
ENDMDL
MODEL      200
REMARK 921   NORMALIZED FREE ENERGY PREDICTED BY IDOCK:   -1.38 KCAL/MOL
REMARK 922        TOTAL FREE ENERGY PREDICTED BY IDOCK:   -1.81 KCAL/MOL
REMARK 923 INTER-LIGAND FREE ENERGY PREDICTED BY IDOCK:   -1.72 KCAL/MOL
REMARK 924 INTRA-LIGAND FREE ENERGY PREDICTED BY IDOCK:   -0.09 KCAL/MOL
REMARK 927      BINDING AFFINITY PREDICTED BY RF-SCORE:    0.00 PKD
ROOT
HETATM    1  C   UNL     1      -5.817  19.136  66.685  1.00  0.00    -0.171 C  
HETATM    2  C   UNL     1      -6.924  18.480  67.059  1.00  0.00    -0.210 C  
ENDROOT
BRANCH   1   3
HETATM    3  C   UNL     1      -5.524  19.348  65.258  1.00  0.00    -0.167 C  
HETATM    4  O   UNL     1      -5.149  18.485  64.484  1.00  0.00    -0.151 OA 
BRANCH   3   5
HETATM    5  O   UNL     1      -5.746  20.655  64.978  1.00  0.00    -0.194 OA 
HETATM    6  C   UNL     1      -6.964  20.903  64.275  1.00  0.00     0.248 C  
ENDBRANCH   3   5
ENDBRANCH   1   3
BRANCH   2   7
HETATM    7  C   UNL     1      -7.176  18.291  68.497  1.00  0.00    -0.283 C  
HETATM    8  O   UNL     1      -6.375  17.816  69.286  1.00  0.00    -0.228 OA 
BRANCH   7   9
HETATM    9  O   UNL     1      -8.426  18.730  68.783  1.00  0.00    -0.337 OA 
HETATM   10  C   UNL     1      -9.398  17.684  68.828  1.00  0.00    -0.228 C  
ENDBRANCH   7   9
ENDBRANCH   2   7
TORSDOF 4
ENDMDL
MODEL      201
REMARK 921   NORMALIZED FREE ENERGY PREDICTED BY IDOCK:   -1.38 KCAL/MOL
REMARK 922        TOTAL FREE ENERGY PREDICTED BY IDOCK:   -1.80 KCAL/MOL
REMARK 923 INTER-LIGAND FREE ENERGY PREDICTED BY IDOCK:   -1.73 KCAL/MOL
REMARK 924 INTRA-LIGAND FREE ENERGY PREDICTED BY IDOCK:   -0.08 KCAL/MOL
REMARK 927      BINDING AFFINITY PREDICTED BY RF-SCORE:    0.00 PKD
ROOT
HETATM    1  C   UNL     1      -9.508  10.237  69.048  1.00  0.00    -0.206 C  
HETATM    2  C   UNL     1      -8.242   9.923  69.354  1.00  0.00    -0.147 C  
ENDROOT
BRANCH   1   3
HETATM    3  C   UNL     1      -9.797  11.185  67.959  1.00  0.00    -0.174 C  
HETATM    4  O   UNL     1     -10.570  12.124  68.034  1.00  0.00    -0.198 OA 
BRANCH   3   5
HETATM    5  O   UNL     1      -9.057  10.821  66.884  1.00  0.00    -0.147 OA 
HETATM    6  C   UNL     1      -9.653   9.800  66.084  1.00  0.00    -0.227 C  
ENDBRANCH   3   5
ENDBRANCH   1   3
BRANCH   2   7
HETATM    7  C   UNL     1      -8.000   8.971  70.450  1.00  0.00    -0.128 C  
HETATM    8  O   UNL     1      -7.881   9.280  71.625  1.00  0.00    -0.329 OA 
BRANCH   7   9
HETATM    9  O   UNL     1      -7.936   7.719  69.935  1.00  0.00    -0.106 OA 
HETATM   10  C   UNL     1      -6.864   7.542  69.007  1.00  0.00    -0.064 C  
ENDBRANCH   7   9
ENDBRANCH   2   7
TORSDOF 4
ENDMDL
MODEL      202
REMARK 921   NORMALIZED FREE ENERGY PREDICTED BY IDOCK:   -1.37 KCAL/MOL
REMARK 922        TOTAL FREE ENERGY PREDICTED BY IDOCK:   -1.79 KCAL/MOL
REMARK 923 INTER-LIGAND FREE ENERGY PREDICTED BY IDOCK:   -1.65 KCAL/MOL
REMARK 924 INTRA-LIGAND FREE ENERGY PREDICTED BY IDOCK:   -0.13 KCAL/MOL
REMARK 927      BINDING AFFINITY PREDICTED BY RF-SCORE:    0.00 PKD
ROOT
HETATM    1  C   UNL     1      -8.325  11.409  66.718  1.00  0.00    -0.163 C  
HETATM    2  C   UNL     1      -8.236  10.097  66.461  1.00  0.00    -0.124 C  
ENDROOT
BRANCH   1   3
HETATM    3  C   UNL     1      -7.213  12.115  67.376  1.00  0.00    -0.147 C  
HETATM    4  O   UNL     1      -7.048  13.322  67.370  1.00  0.00    -0.159 OA 
BRANCH   3   5
HETATM    5  O   UNL     1      -6.427  11.187  67.975  1.00  0.00    -0.056 OA 
HETATM    6  C   UNL     1      -5.440  11.735  68.849  1.00  0.00    -0.050 C  
ENDBRANCH   3   5
ENDBRANCH   1   3
BRANCH   2   7
HETATM    7  C   UNL     1      -9.373   9.433  65.802  1.00  0.00    -0.239 C  
HETATM    8  O   UNL     1      -9.919   8.421  66.211  1.00  0.00    -0.245 OA 
BRANCH   7   9
HETATM    9  O   UNL     1      -9.698  10.129  64.685  1.00  0.00    -0.297 OA 
HETATM   10  C   UNL     1      -9.043   9.652  63.508  1.00  0.00    -0.173 C  
ENDBRANCH   7   9
ENDBRANCH   2   7
TORSDOF 4
ENDMDL
MODEL      203
REMARK 921   NORMALIZED FREE ENERGY PREDICTED BY IDOCK:   -1.36 KCAL/MOL
REMARK 922        TOTAL FREE ENERGY PREDICTED BY IDOCK:   -1.78 KCAL/MOL
REMARK 923 INTER-LIGAND FREE ENERGY PREDICTED BY IDOCK:   -1.68 KCAL/MOL
REMARK 924 INTRA-LIGAND FREE ENERGY PREDICTED BY IDOCK:   -0.10 KCAL/MOL
REMARK 927      BINDING AFFINITY PREDICTED BY RF-SCORE:    0.00 PKD
ROOT
HETATM    1  C   UNL     1      -8.066  11.693  66.881  1.00  0.00    -0.164 C  
HETATM    2  C   UNL     1      -8.091  10.422  66.457  1.00  0.00    -0.122 C  
ENDROOT
BRANCH   1   3
HETATM    3  C   UNL     1      -6.782  12.364  67.142  1.00  0.00    -0.081 C  
HETATM    4  O   UNL     1      -5.728  12.098  66.593  1.00  0.00    -0.288 OA 
BRANCH   3   5
HETATM    5  O   UNL     1      -6.993  13.312  68.088  1.00  0.00    -0.087 OA 
HETATM    6  C   UNL     1      -5.931  14.258  68.214  1.00  0.00    -0.120 C  
ENDBRANCH   3   5
ENDBRANCH   1   3
BRANCH   2   7
HETATM    7  C   UNL     1      -9.398   9.791  66.208  1.00  0.00    -0.180 C  
HETATM    8  O   UNL     1     -10.249  10.232  65.452  1.00  0.00    -0.297 OA 
BRANCH   7   9
HETATM    9  O   UNL     1      -9.486   8.661  66.950  1.00  0.00    -0.157 OA 
HETATM   10  C   UNL     1     -10.140   8.855  68.206  1.00  0.00    -0.187 C  
ENDBRANCH   7   9
ENDBRANCH   2   7
TORSDOF 4
ENDMDL
MODEL      204
REMARK 921   NORMALIZED FREE ENERGY PREDICTED BY IDOCK:   -1.13 KCAL/MOL
REMARK 922        TOTAL FREE ENERGY PREDICTED BY IDOCK:   -1.50 KCAL/MOL
REMARK 923 INTER-LIGAND FREE ENERGY PREDICTED BY IDOCK:   -1.41 KCAL/MOL
REMARK 924 INTRA-LIGAND FREE ENERGY PREDICTED BY IDOCK:   -0.09 KCAL/MOL
REMARK 927      BINDING AFFINITY PREDICTED BY RF-SCORE:    0.00 PKD
ROOT
HETATM    1  C   UNL     1      -8.455   5.222  66.210  1.00  0.00    -0.115 C  
HETATM    2  C   UNL     1      -8.915   6.479  66.256  1.00  0.00    -0.168 C  
ENDROOT
BRANCH   1   3
HETATM    3  C   UNL     1      -8.927   4.295  65.168  1.00  0.00    -0.139 C  
HETATM    4  O   UNL     1     -10.095   4.077  64.900  1.00  0.00    -0.200 OA 
BRANCH   3   5
HETATM    5  O   UNL     1      -7.838   3.744  64.577  1.00  0.00    -0.083 OA 
HETATM    6  C   UNL     1      -8.134   2.969  63.415  1.00  0.00    -0.084 C  
ENDBRANCH   3   5
ENDBRANCH   1   3
BRANCH   2   7
HETATM    7  C   UNL     1      -8.415   7.371  67.315  1.00  0.00    -0.118 C  
HETATM    8  O   UNL     1      -7.235   7.560  67.565  1.00  0.00    -0.085 OA 
BRANCH   7   9
HETATM    9  O   UNL     1      -9.473   7.932  67.949  1.00  0.00    -0.143 OA 
HETATM   10  C   UNL     1     -10.210   8.840  67.129  1.00  0.00    -0.276 C  
ENDBRANCH   7   9
ENDBRANCH   2   7
TORSDOF 4
ENDMDL
MODEL      205
REMARK 921   NORMALIZED FREE ENERGY PREDICTED BY IDOCK:   -1.09 KCAL/MOL
REMARK 922        TOTAL FREE ENERGY PREDICTED BY IDOCK:   -1.44 KCAL/MOL
REMARK 923 INTER-LIGAND FREE ENERGY PREDICTED BY IDOCK:   -1.32 KCAL/MOL
REMARK 924 INTRA-LIGAND FREE ENERGY PREDICTED BY IDOCK:   -0.12 KCAL/MOL
REMARK 927      BINDING AFFINITY PREDICTED BY RF-SCORE:    0.00 PKD
ROOT
HETATM    1  C   UNL     1      -7.886   4.938  67.050  1.00  0.00    -0.095 C  
HETATM    2  C   UNL     1      -8.709   5.757  67.720  1.00  0.00    -0.107 C  
ENDROOT
BRANCH   1   3
HETATM    3  C   UNL     1      -7.893   4.918  65.578  1.00  0.00    -0.095 C  
HETATM    4  O   UNL     1      -6.940   5.188  64.869  1.00  0.00    -0.051 OA 
BRANCH   3   5
HETATM    5  O   UNL     1      -9.133   4.551  65.173  1.00  0.00    -0.140 OA 
HETATM    6  C   UNL     1      -9.322   3.139  65.079  1.00  0.00    -0.148 C  
ENDBRANCH   3   5
ENDBRANCH   1   3
BRANCH   2   7
HETATM    7  C   UNL     1      -8.667   5.743  69.191  1.00  0.00    -0.113 C  
HETATM    8  O   UNL     1      -7.664   5.933  69.859  1.00  0.00    -0.084 OA 
BRANCH   7   9
HETATM    9  O   UNL     1      -9.912   5.487  69.661  1.00  0.00    -0.177 OA 
HETATM   10  C   UNL     1     -10.951   6.006  68.829  1.00  0.00    -0.312 C  
ENDBRANCH   7   9
ENDBRANCH   2   7
TORSDOF 4
ENDMDL
