MODEL        1
REMARK 921   NORMALIZED FREE ENERGY PREDICTED BY IDOCK:   -8.03 KCAL/MOL
REMARK 922        TOTAL FREE ENERGY PREDICTED BY IDOCK:   -9.23 KCAL/MOL
REMARK 923 INTER-LIGAND FREE ENERGY PREDICTED BY IDOCK:  -10.85 KCAL/MOL
REMARK 924 INTRA-LIGAND FREE ENERGY PREDICTED BY IDOCK:    1.62 KCAL/MOL
REMARK 927      BINDING AFFINITY PREDICTED BY RF-SCORE:    0.00 PKD
ROOT
HETATM    1  C   UNL     1     -10.137  19.942  68.278  1.00  0.00    -0.447 C  
HETATM    2  N   UNL     1      -9.288  18.784  67.978  1.00  0.00    -0.297 N  
HETATM    3  C   UNL     2      -8.048  19.380  66.188  1.00  0.00    -0.314 C  
HETATM    4  N   UNL     2      -7.713  17.959  66.871  1.00  0.00    -0.210 NA 
HETATM    5  C   UNL     1      -9.736  17.477  66.838  1.00  0.00    -0.291 A  
HETATM    6  O   UNL     1      -7.206  19.812  69.367  1.00  0.00    -0.338 OA 
HETATM    7  C   UNL     1      -8.752  16.171  66.575  1.00  0.00    -0.302 A  
HETATM    8  C   UNL     2      -6.350  17.744  66.022  1.00  0.00    -0.234 C  
HETATM    9  C   UNL     1      -5.374  17.254  69.204  1.00  0.00    -0.155 C  
HETATM   10  N   UNL     1      -9.379  15.341  65.699  1.00  0.00    -0.409 NA 
HETATM   11  C   UNL     1      -7.076  16.009  67.384  1.00  0.00    -0.189 C  
HETATM   12  H   UNL     1      -9.065  14.431  65.363  1.00  0.00     0.000 HD 
HETATM   13  O   UNL     1      -6.384  14.996  67.262  1.00  0.00    -0.312 OA 
HETATM   14  N   UNL     1      -6.582  17.371  68.434  1.00  0.00    -0.174 N  
HETATM   15  C   UNL     1     -10.487  15.986  65.385  1.00  0.00    -0.392 A  
HETATM   16  C   UNL     1      -7.516  18.853  68.680  1.00  0.00    -0.321 C  
HETATM   17 CL   UNL     1     -11.607  15.455  64.212  1.00  0.00    -0.278 Cl 
HETATM   18  N   UNL     1     -10.772  17.189  66.005  1.00  0.00    -0.189 NA 
ENDROOT
BRANCH   4  19
HETATM   19  C   UNL     2      -8.529  17.016  68.540  1.00  0.00    -0.257 C  
BRANCH  19  20
HETATM   20  C   UNL     2     -10.161  16.684  69.080  1.00  0.00    -0.309 C  
BRANCH  20  21
HETATM   21  O   UNL     2     -10.274  15.354  69.606  1.00  0.00    -0.250 OA 
BRANCH  21  22
HETATM   22  C   UNL     2     -11.487  14.692  69.129  1.00  0.00    -0.294 C  
BRANCH  22  23
HETATM   23  C   UNL     2     -11.140  13.511  68.210  1.00  0.00    -0.287 A  
HETATM   24  C   UNL     2     -12.024  13.175  67.163  1.00  0.00    -0.397 A  
HETATM   25  C   UNL     2      -9.872  12.908  68.208  1.00  0.00    -0.228 A  
HETATM   26  C   UNL     2     -11.615  12.344  66.113  1.00  0.00    -0.452 A  
HETATM   27  C   UNL     2     -10.332  11.805  66.106  1.00  0.00    -0.266 A  
HETATM   28  C   UNL     2      -9.472  12.063  67.168  1.00  0.00    -0.187 A  
ENDBRANCH  22  23
BRANCH  22  29
HETATM   29  C   UNL     2     -12.335  14.411  70.360  1.00  0.00    -0.406 A  
HETATM   30  C   UNL     2     -14.138  13.795  72.439  1.00  0.00    -0.593 A  
HETATM   31  C   UNL     2     -14.025  15.103  71.980  1.00  0.00    -0.629 A  
HETATM   32  C   UNL     2     -12.435  13.103  70.866  1.00  0.00    -0.407 A  
HETATM   33  C   UNL     2     -13.145  15.401  70.938  1.00  0.00    -0.528 A  
HETATM   34  C   UNL     2     -13.342  12.796  71.886  1.00  0.00    -0.510 A  
ENDBRANCH  22  29
ENDBRANCH  21  22
ENDBRANCH  20  21
ENDBRANCH  19  20
ENDBRANCH   4  19
TORSDOF 6
ENDMDL
MODEL        2
REMARK 921   NORMALIZED FREE ENERGY PREDICTED BY IDOCK:   -6.89 KCAL/MOL
REMARK 922        TOTAL FREE ENERGY PREDICTED BY IDOCK:   -7.69 KCAL/MOL
REMARK 923 INTER-LIGAND FREE ENERGY PREDICTED BY IDOCK:  -10.03 KCAL/MOL
REMARK 924 INTRA-LIGAND FREE ENERGY PREDICTED BY IDOCK:    2.34 KCAL/MOL
REMARK 927      BINDING AFFINITY PREDICTED BY RF-SCORE:    0.00 PKD
ROOT
HETATM    1  C   UNL     1      -6.963  20.090  70.073  1.00  0.00     0.004 C  
HETATM    2  N   UNL     1      -7.296  18.961  69.197  1.00  0.00    -0.274 N  
HETATM    3  C   UNL     2      -5.858  19.087  67.461  1.00  0.00    -0.176 C  
HETATM    4  N   UNL     2      -6.828  17.800  67.519  1.00  0.00    -0.174 NA 
HETATM    5  C   UNL     1      -8.457  19.053  67.837  1.00  0.00    -0.296 A  
HETATM    6  O   UNL     1      -5.361  17.409  70.279  1.00  0.00    -0.213 OA 
HETATM    7  C   UNL     1      -8.825  17.731  66.910  1.00  0.00    -0.248 A  
HETATM    8  C   UNL     2      -6.048  17.020  66.332  1.00  0.00    -0.071 C  
HETATM    9  C   UNL     1      -6.181  14.746  68.809  1.00  0.00    -0.083 C  
HETATM   10  N   UNL     1      -9.758  18.103  65.994  1.00  0.00    -0.527 NA 
HETATM   11  C   UNL     1      -7.998  16.075  67.168  1.00  0.00    -0.201 C  
HETATM   12  H   UNL     1     -10.229  17.519  65.305  1.00  0.00     0.000 HD 
HETATM   13  O   UNL     1      -8.337  15.068  66.542  1.00  0.00    -0.172 OA 
HETATM   14  N   UNL     1      -6.756  16.014  68.454  1.00  0.00    -0.117 N  
HETATM   15  C   UNL     1      -9.913  19.397  66.206  1.00  0.00    -0.430 A  
HETATM   16  C   UNL     1      -6.219  17.402  69.411  1.00  0.00    -0.250 C  
HETATM   17 CL   UNL     1     -10.888  20.416  65.245  1.00  0.00     0.009 Cl 
HETATM   18  N   UNL     1      -9.230  20.003  67.245  1.00  0.00    -0.349 NA 
ENDROOT
BRANCH   4  19
HETATM   19  C   UNL     2      -8.255  17.223  68.922  1.00  0.00    -0.181 C  
BRANCH  19  20
HETATM   20  C   UNL     2      -9.977  16.910  68.856  1.00  0.00    -0.279 C  
BRANCH  20  21
HETATM   21  O   UNL     2     -10.321  15.740  69.612  1.00  0.00    -0.251 OA 
BRANCH  21  22
HETATM   22  C   UNL     2     -11.730  15.389  69.441  1.00  0.00    -0.351 C  
BRANCH  22  23
HETATM   23  C   UNL     2     -11.876  14.106  68.610  1.00  0.00    -0.383 A  
HETATM   24  C   UNL     2     -11.926  14.204  67.203  1.00  0.00    -0.460 A  
HETATM   25  C   UNL     2     -11.714  12.827  69.166  1.00  0.00    -0.375 A  
HETATM   26  C   UNL     2     -11.729  13.078  66.394  1.00  0.00    -0.444 A  
HETATM   27  C   UNL     2     -11.513  11.831  66.973  1.00  0.00    -0.368 A  
HETATM   28  C   UNL     2     -11.536  11.701  68.357  1.00  0.00    -0.360 A  
ENDBRANCH  22  23
BRANCH  22  29
HETATM   29  C   UNL     2     -12.349  15.412  70.831  1.00  0.00    -0.452 A  
HETATM   30  C   UNL     2     -13.586  15.759  73.341  1.00  0.00    -0.368 A  
HETATM   31  C   UNL     2     -12.216  15.951  73.208  1.00  0.00    -0.625 A  
HETATM   32  C   UNL     2     -13.726  15.182  70.995  1.00  0.00    -0.450 A  
HETATM   33  C   UNL     2     -11.609  15.797  71.960  1.00  0.00    -0.541 A  
HETATM   34  C   UNL     2     -14.341  15.371  72.237  1.00  0.00    -0.576 A  
ENDBRANCH  22  29
ENDBRANCH  21  22
ENDBRANCH  20  21
ENDBRANCH  19  20
ENDBRANCH   4  19
TORSDOF 6
ENDMDL
MODEL        3
REMARK 921   NORMALIZED FREE ENERGY PREDICTED BY IDOCK:   -6.86 KCAL/MOL
REMARK 922        TOTAL FREE ENERGY PREDICTED BY IDOCK:   -7.66 KCAL/MOL
REMARK 923 INTER-LIGAND FREE ENERGY PREDICTED BY IDOCK:  -10.26 KCAL/MOL
REMARK 924 INTRA-LIGAND FREE ENERGY PREDICTED BY IDOCK:    2.60 KCAL/MOL
REMARK 927      BINDING AFFINITY PREDICTED BY RF-SCORE:    0.00 PKD
ROOT
HETATM    1  C   UNL     1     -10.627  19.469  67.241  1.00  0.00    -0.490 C  
HETATM    2  N   UNL     1      -9.418  18.638  67.251  1.00  0.00    -0.294 N  
HETATM    3  C   UNL     2      -8.053  19.561  68.794  1.00  0.00    -0.322 C  
HETATM    4  N   UNL     2      -7.574  18.172  68.127  1.00  0.00    -0.256 NA 
HETATM    5  C   UNL     1      -7.973  18.953  66.241  1.00  0.00    -0.273 A  
HETATM    6  O   UNL     1     -10.302  17.187  69.357  1.00  0.00    -0.290 OA 
HETATM    7  C   UNL     1      -6.655  17.951  66.265  1.00  0.00    -0.253 A  
HETATM    8  C   UNL     2      -6.355  17.960  69.174  1.00  0.00    -0.236 C  
HETATM    9  C   UNL     1      -8.006  15.030  69.289  1.00  0.00    -0.190 C  
HETATM   10  N   UNL     1      -5.748  18.426  65.370  1.00  0.00    -0.197 NA 
HETATM   11  C   UNL     1      -6.550  16.471  67.401  1.00  0.00    -0.164 C  
HETATM   12  H   UNL     1      -4.850  18.018  65.110  1.00  0.00     0.000 HD 
HETATM   13  O   UNL     1      -5.611  15.673  67.354  1.00  0.00    -0.303 OA 
HETATM   14  N   UNL     1      -7.948  16.224  68.491  1.00  0.00    -0.174 N  
HETATM   15  C   UNL     1      -6.298  19.536  64.917  1.00  0.00    -0.258 A  
HETATM   16  C   UNL     1      -9.341  17.307  68.614  1.00  0.00    -0.267 C  
HETATM   17 CL   UNL     1      -5.531  20.621  63.846  1.00  0.00    -0.239 Cl 
HETATM   18  N   UNL     1      -7.566  19.890  65.343  1.00  0.00    -0.349 NA 
ENDROOT
BRANCH   4  19
HETATM   19  C   UNL     2      -8.496  16.938  66.725  1.00  0.00    -0.234 C  
BRANCH  19  20
HETATM   20  C   UNL     2     -10.096  16.243  66.573  1.00  0.00    -0.291 C  
BRANCH  20  21
HETATM   21  O   UNL     2     -10.051  14.812  66.667  1.00  0.00    -0.253 OA 
BRANCH  21  22
HETATM   22  C   UNL     2     -11.370  14.220  66.451  1.00  0.00    -0.343 C  
BRANCH  22  23
HETATM   23  C   UNL     2     -11.407  13.438  65.130  1.00  0.00    -0.316 A  
HETATM   24  C   UNL     2     -10.191  13.032  64.540  1.00  0.00    -0.331 A  
HETATM   25  C   UNL     2     -12.593  12.896  64.609  1.00  0.00    -0.459 A  
HETATM   26  C   UNL     2     -10.166  12.055  63.537  1.00  0.00    -0.477 A  
HETATM   27  C   UNL     2     -11.354  11.492  63.080  1.00  0.00    -0.068 A  
HETATM   28  C   UNL     2     -12.567  11.934  63.595  1.00  0.00    -0.555 A  
ENDBRANCH  22  23
BRANCH  22  29
HETATM   29  C   UNL     2     -11.722  13.476  67.730  1.00  0.00    -0.394 A  
HETATM   30  C   UNL     2     -12.064  12.138  70.189  1.00  0.00    -0.368 A  
HETATM   31  C   UNL     2     -11.823  11.411  69.028  1.00  0.00    -0.415 A  
HETATM   32  C   UNL     2     -12.007  14.190  68.907  1.00  0.00    -0.376 A  
HETATM   33  C   UNL     2     -11.635  12.077  67.816  1.00  0.00    -0.400 A  
HETATM   34  C   UNL     2     -12.160  13.526  70.129  1.00  0.00    -0.425 A  
ENDBRANCH  22  29
ENDBRANCH  21  22
ENDBRANCH  20  21
ENDBRANCH  19  20
ENDBRANCH   4  19
TORSDOF 6
ENDMDL
MODEL        4
REMARK 921   NORMALIZED FREE ENERGY PREDICTED BY IDOCK:   -6.75 KCAL/MOL
REMARK 922        TOTAL FREE ENERGY PREDICTED BY IDOCK:   -7.50 KCAL/MOL
REMARK 923 INTER-LIGAND FREE ENERGY PREDICTED BY IDOCK:   -9.66 KCAL/MOL
REMARK 924 INTRA-LIGAND FREE ENERGY PREDICTED BY IDOCK:    2.16 KCAL/MOL
REMARK 927      BINDING AFFINITY PREDICTED BY RF-SCORE:    0.00 PKD
ROOT
HETATM    1  C   UNL     1      -6.766  11.468  66.460  1.00  0.00    -0.019 C  
HETATM    2  N   UNL     1      -8.120  11.298  66.999  1.00  0.00    -0.142 N  
HETATM    3  C   UNL     2      -8.834   9.295  66.241  1.00  0.00    -0.146 C  
HETATM    4  N   UNL     2      -9.792  10.069  67.282  1.00  0.00    -0.174 NA 
HETATM    5  C   UNL     1      -9.612  11.801  66.144  1.00  0.00    -0.232 A  
HETATM    6  O   UNL     1      -7.223   9.835  69.090  1.00  0.00    -0.067 OA 
HETATM    7  C   UNL     1     -11.111  11.623  66.825  1.00  0.00    -0.309 A  
HETATM    8  C   UNL     2     -10.772   8.798  67.499  1.00  0.00    -0.143 C  
HETATM    9  C   UNL     1      -9.966   9.710  70.636  1.00  0.00    -0.231 C  
HETATM   10  N   UNL     1     -12.030  12.130  65.960  1.00  0.00    -0.585 NA 
HETATM   11  C   UNL     1     -11.358  10.815  68.491  1.00  0.00    -0.295 C  
HETATM   12  H   UNL     1     -13.037  12.215  66.093  1.00  0.00     0.000 HD 
HETATM   13  O   UNL     1     -12.461  10.765  69.040  1.00  0.00    -0.379 OA 
HETATM   14  N   UNL     1      -9.876  10.211  69.292  1.00  0.00    -0.209 N  
HETATM   15  C   UNL     1     -11.316  12.486  64.909  1.00  0.00    -0.310 A  
HETATM   16  C   UNL     1      -8.254  10.254  68.589  1.00  0.00    -0.116 C  
HETATM   17 CL   UNL     1     -11.980  13.076  63.452  1.00  0.00    -0.616 Cl 
HETATM   18  N   UNL     1      -9.939  12.353  64.946  1.00  0.00    -0.228 NA 
ENDROOT
BRANCH   4  19
HETATM   19  C   UNL     2      -9.547  11.882  68.279  1.00  0.00    -0.201 C  
BRANCH  19  20
HETATM   20  C   UNL     2      -9.233  13.526  67.765  1.00  0.00    -0.213 C  
BRANCH  20  21
HETATM   21  O   UNL     2      -9.387  14.448  68.854  1.00  0.00    -0.183 OA 
BRANCH  21  22
HETATM   22  C   UNL     2     -10.563  15.298  68.671  1.00  0.00    -0.236 C  
BRANCH  22  23
HETATM   23  C   UNL     2     -11.500  15.200  69.884  1.00  0.00    -0.315 A  
HETATM   24  C   UNL     2     -12.206  13.999  70.109  1.00  0.00    -0.425 A  
HETATM   25  C   UNL     2     -11.501  16.156  70.912  1.00  0.00    -0.421 A  
HETATM   26  C   UNL     2     -12.804  13.736  71.347  1.00  0.00    -0.449 A  
HETATM   27  C   UNL     2     -12.740  14.678  72.369  1.00  0.00    -0.429 A  
HETATM   28  C   UNL     2     -12.115  15.898  72.142  1.00  0.00    -0.596 A  
ENDBRANCH  22  23
BRANCH  22  29
HETATM   29  C   UNL     2     -10.043  16.673  68.281  1.00  0.00    -0.268 A  
HETATM   30  C   UNL     2      -9.168  19.320  67.854  1.00  0.00    -0.372 A  
HETATM   31  C   UNL     2     -10.423  18.920  67.408  1.00  0.00    -0.520 A  
HETATM   32  C   UNL     2      -8.762  17.085  68.688  1.00  0.00    -0.261 A  
HETATM   33  C   UNL     2     -10.861  17.615  67.637  1.00  0.00    -0.227 A  
HETATM   34  C   UNL     2      -8.336  18.403  68.491  1.00  0.00    -0.344 A  
ENDBRANCH  22  29
ENDBRANCH  21  22
ENDBRANCH  20  21
ENDBRANCH  19  20
ENDBRANCH   4  19
TORSDOF 6
ENDMDL
MODEL        5
REMARK 921   NORMALIZED FREE ENERGY PREDICTED BY IDOCK:   -6.71 KCAL/MOL
REMARK 922        TOTAL FREE ENERGY PREDICTED BY IDOCK:   -7.44 KCAL/MOL
REMARK 923 INTER-LIGAND FREE ENERGY PREDICTED BY IDOCK:   -9.19 KCAL/MOL
REMARK 924 INTRA-LIGAND FREE ENERGY PREDICTED BY IDOCK:    1.75 KCAL/MOL
REMARK 927      BINDING AFFINITY PREDICTED BY RF-SCORE:    0.00 PKD
ROOT
HETATM    1  C   UNL     1      -7.771  12.124  68.750  1.00  0.00    -0.034 C  
HETATM    2  N   UNL     1      -8.499  10.955  68.244  1.00  0.00    -0.128 N  
HETATM    3  C   UNL     2      -6.918   9.492  67.568  1.00  0.00    -0.084 C  
HETATM    4  N   UNL     2      -8.449   8.989  67.526  1.00  0.00    -0.116 NA 
HETATM    5  C   UNL     1      -8.987  10.736  66.535  1.00  0.00    -0.156 A  
HETATM    6  O   UNL     1      -8.255   9.646  70.600  1.00  0.00    -0.234 OA 
HETATM    7  C   UNL     1      -9.848   9.414  66.033  1.00  0.00    -0.296 A  
HETATM    8  C   UNL     2      -8.051   7.445  67.237  1.00  0.00    -0.112 C  
HETATM    9  C   UNL     1     -10.145   7.235  69.863  1.00  0.00    -0.194 C  
HETATM   10  N   UNL     1     -10.100   9.554  64.704  1.00  0.00    -0.173 NA 
HETATM   11  C   UNL     1     -10.301   8.023  67.195  1.00  0.00    -0.325 C  
HETATM   12  H   UNL     1     -10.644   8.939  64.101  1.00  0.00     0.000 HD 
HETATM   13  O   UNL     1     -11.020   7.084  66.846  1.00  0.00    -0.371 OA 
HETATM   14  N   UNL     1      -9.715   8.190  68.878  1.00  0.00    -0.154 N  
HETATM   15  C   UNL     1      -9.477  10.670  64.378  1.00  0.00    -0.269 A  
HETATM   16  C   UNL     1      -8.694   9.507  69.470  1.00  0.00    -0.174 C  
HETATM   17 CL   UNL     1      -9.353  11.270  62.785  1.00  0.00    -0.379 Cl 
HETATM   18  N   UNL     1      -8.844  11.409  65.361  1.00  0.00    -0.054 NA 
ENDROOT
BRANCH   4  19
HETATM   19  C   UNL     2     -10.218   9.936  68.087  1.00  0.00    -0.179 C  
BRANCH  19  20
HETATM   20  C   UNL     2     -10.814  10.626  69.582  1.00  0.00    -0.268 C  
BRANCH  20  21
HETATM   21  O   UNL     2     -11.883  11.551  69.337  1.00  0.00    -0.300 OA 
BRANCH  21  22
HETATM   22  C   UNL     2     -11.416  12.935  69.390  1.00  0.00    -0.260 C  
BRANCH  22  23
HETATM   23  C   UNL     2     -11.376  13.552  67.985  1.00  0.00    -0.318 A  
HETATM   24  C   UNL     2     -10.325  14.434  67.654  1.00  0.00    -0.237 A  
HETATM   25  C   UNL     2     -12.193  13.094  66.939  1.00  0.00    -0.284 A  
HETATM   26  C   UNL     2     -10.052  14.763  66.320  1.00  0.00    -0.299 A  
HETATM   27  C   UNL     2     -10.843  14.247  65.298  1.00  0.00    -0.363 A  
HETATM   28  C   UNL     2     -11.929  13.437  65.609  1.00  0.00    -0.439 A  
ENDBRANCH  22  23
BRANCH  22  29
HETATM   29  C   UNL     2     -12.256  13.630  70.451  1.00  0.00    -0.434 A  
HETATM   30  C   UNL     2     -14.067  14.869  72.222  1.00  0.00    -0.600 A  
HETATM   31  C   UNL     2     -13.320  15.640  71.339  1.00  0.00    -0.512 A  
HETATM   32  C   UNL     2     -12.990  12.872  71.380  1.00  0.00    -0.362 A  
HETATM   33  C   UNL     2     -12.438  15.022  70.450  1.00  0.00    -0.407 A  
HETATM   34  C   UNL     2     -13.901  13.487  72.246  1.00  0.00    -0.680 A  
ENDBRANCH  22  29
ENDBRANCH  21  22
ENDBRANCH  20  21
ENDBRANCH  19  20
ENDBRANCH   4  19
TORSDOF 6
ENDMDL
MODEL        6
REMARK 921   NORMALIZED FREE ENERGY PREDICTED BY IDOCK:   -6.69 KCAL/MOL
REMARK 922        TOTAL FREE ENERGY PREDICTED BY IDOCK:   -7.42 KCAL/MOL
REMARK 923 INTER-LIGAND FREE ENERGY PREDICTED BY IDOCK:  -10.00 KCAL/MOL
REMARK 924 INTRA-LIGAND FREE ENERGY PREDICTED BY IDOCK:    2.58 KCAL/MOL
REMARK 927      BINDING AFFINITY PREDICTED BY RF-SCORE:    0.00 PKD
ROOT
HETATM    1  C   UNL     1      -7.353  15.173  67.768  1.00  0.00    -0.164 C  
HETATM    2  N   UNL     1      -7.879  16.542  67.718  1.00  0.00    -0.150 N  
HETATM    3  C   UNL     2      -6.579  17.646  66.239  1.00  0.00    -0.265 C  
HETATM    4  N   UNL     2      -7.854  18.437  66.830  1.00  0.00    -0.227 NA 
HETATM    5  C   UNL     1      -7.296  17.881  68.754  1.00  0.00    -0.270 A  
HETATM    6  O   UNL     1      -9.373  16.005  65.527  1.00  0.00    -0.380 OA 
HETATM    7  C   UNL     1      -7.961  19.396  68.683  1.00  0.00    -0.368 A  
HETATM    8  C   UNL     2      -7.718  19.665  65.781  1.00  0.00    -0.234 C  
HETATM    9  C   UNL     1     -10.940  18.738  65.489  1.00  0.00     0.293 C  
HETATM   10  N   UNL     1      -7.341  20.174  69.609  1.00  0.00     0.039 NA 
HETATM   11  C   UNL     1      -9.309  19.833  67.465  1.00  0.00    -0.340 C  
HETATM   12  H   UNL     1      -7.543  21.143  69.852  1.00  0.00     0.000 HD 
HETATM   13  O   UNL     1      -9.870  20.931  67.473  1.00  0.00    -0.414 OA 
HETATM   14  N   UNL     1      -9.812  18.523  66.354  1.00  0.00    -0.351 N  
HETATM   15  C   UNL     1      -6.416  19.383  70.121  1.00  0.00    -0.095 A  
HETATM   16  C   UNL     1      -9.077  16.916  66.282  1.00  0.00    -0.267 C  
HETATM   17 CL   UNL     1      -5.245  19.885  71.256  1.00  0.00    -0.285 Cl 
HETATM   18  N   UNL     1      -6.342  18.066  69.706  1.00  0.00    -0.180 NA 
ENDROOT
BRANCH   4  19
HETATM   19  C   UNL     2      -9.345  17.836  68.153  1.00  0.00    -0.281 C  
BRANCH  19  20
HETATM   20  C   UNL     2     -10.700  16.731  68.049  1.00  0.00    -0.355 C  
BRANCH  20  21
HETATM   21  O   UNL     2     -10.618  15.713  69.058  1.00  0.00    -0.214 OA 
BRANCH  21  22
HETATM   22  C   UNL     2     -11.916  15.081  69.286  1.00  0.00    -0.289 C  
BRANCH  22  23
HETATM   23  C   UNL     2     -11.953  13.673  68.676  1.00  0.00    -0.395 A  
HETATM   24  C   UNL     2     -11.932  13.534  67.271  1.00  0.00    -0.408 A  
HETATM   25  C   UNL     2     -11.758  12.515  69.445  1.00  0.00    -0.383 A  
HETATM   26  C   UNL     2     -11.635  12.304  66.672  1.00  0.00    -0.438 A  
HETATM   27  C   UNL     2     -11.389  11.184  67.461  1.00  0.00    -0.351 A  
HETATM   28  C   UNL     2     -11.480  11.283  68.844  1.00  0.00    -0.363 A  
ENDBRANCH  22  23
BRANCH  22  29
HETATM   29  C   UNL     2     -12.206  15.222  70.773  1.00  0.00    -0.411 A  
HETATM   30  C   UNL     2     -12.775  15.799  73.474  1.00  0.00    -0.696 A  
HETATM   31  C   UNL     2     -11.456  15.680  73.050  1.00  0.00    -0.142 A  
HETATM   32  C   UNL     2     -13.533  15.306  71.229  1.00  0.00    -0.591 A  
HETATM   33  C   UNL     2     -11.177  15.413  71.709  1.00  0.00    -0.380 A  
HETATM   34  C   UNL     2     -13.813  15.610  72.566  1.00  0.00    -0.642 A  
ENDBRANCH  22  29
ENDBRANCH  21  22
ENDBRANCH  20  21
ENDBRANCH  19  20
ENDBRANCH   4  19
TORSDOF 6
ENDMDL
MODEL        7
REMARK 921   NORMALIZED FREE ENERGY PREDICTED BY IDOCK:   -6.67 KCAL/MOL
REMARK 922        TOTAL FREE ENERGY PREDICTED BY IDOCK:   -7.39 KCAL/MOL
REMARK 923 INTER-LIGAND FREE ENERGY PREDICTED BY IDOCK:   -9.53 KCAL/MOL
REMARK 924 INTRA-LIGAND FREE ENERGY PREDICTED BY IDOCK:    2.14 KCAL/MOL
REMARK 927      BINDING AFFINITY PREDICTED BY RF-SCORE:    0.00 PKD
ROOT
HETATM    1  C   UNL     1      -8.128  11.974  68.027  1.00  0.00    -0.153 C  
HETATM    2  N   UNL     1      -9.380  12.514  67.484  1.00  0.00    -0.181 N  
HETATM    3  C   UNL     2      -8.804  14.387  66.364  1.00  0.00     0.002 C  
HETATM    4  N   UNL     2     -10.343  13.914  66.261  1.00  0.00    -0.287 NA 
HETATM    5  C   UNL     1     -10.408  13.711  68.330  1.00  0.00    -0.251 A  
HETATM    6  O   UNL     1      -8.977  11.331  65.084  1.00  0.00    -0.152 OA 
HETATM    7  C   UNL     1     -11.835  14.250  67.684  1.00  0.00    -0.385 A  
HETATM    8  C   UNL     2     -10.705  14.967  65.083  1.00  0.00    -0.411 C  
HETATM    9  C   UNL     1     -11.800  12.026  63.869  1.00  0.00    -0.448 C  
HETATM   10  N   UNL     1     -12.401  15.112  68.570  1.00  0.00    -0.544 NA 
HETATM   11  C   UNL     1     -12.430  13.708  65.998  1.00  0.00    -0.426 C  
HETATM   12  H   UNL     1     -13.301  15.584  68.499  1.00  0.00     0.000 HD 
HETATM   13  O   UNL     1     -13.534  14.035  65.555  1.00  0.00    -0.677 OA 
HETATM   14  N   UNL     1     -11.346  12.599  65.106  1.00  0.00    -0.299 N  
HETATM   15  C   UNL     1     -11.514  15.194  69.544  1.00  0.00    -0.296 A  
HETATM   16  C   UNL     1      -9.755  12.067  65.668  1.00  0.00    -0.223 C  
HETATM   17 CL   UNL     1     -11.652  16.247  70.881  1.00  0.00    -0.397 Cl 
HETATM   18  N   UNL     1     -10.373  14.415  69.493  1.00  0.00    -0.036 NA 
ENDROOT
BRANCH   4  19
HETATM   19  C   UNL     2     -11.321  12.257  67.058  1.00  0.00    -0.334 C  
BRANCH  19  20
HETATM   20  C   UNL     2     -11.446  11.566  68.662  1.00  0.00    -0.293 C  
BRANCH  20  21
HETATM   21  O   UNL     2     -11.689  10.153  68.601  1.00  0.00    -0.074 OA 
BRANCH  21  22
HETATM   22  C   UNL     2     -10.538   9.392  69.083  1.00  0.00    -0.218 C  
BRANCH  22  23
HETATM   23  C   UNL     2     -10.707   9.027  70.565  1.00  0.00    -0.285 A  
HETATM   24  C   UNL     2     -12.008   8.865  71.087  1.00  0.00    -0.344 A  
HETATM   25  C   UNL     2      -9.631   8.608  71.364  1.00  0.00    -0.313 A  
HETATM   26  C   UNL     2     -12.219   8.225  72.314  1.00  0.00    -0.428 A  
HETATM   27  C   UNL     2     -11.136   7.767  73.059  1.00  0.00    -0.419 A  
HETATM   28  C   UNL     2      -9.843   7.985  72.598  1.00  0.00    -0.347 A  
ENDBRANCH  22  23
BRANCH  22  29
HETATM   29  C   UNL     2     -10.327   8.259  68.090  1.00  0.00    -0.253 A  
HETATM   30  C   UNL     2      -9.696   6.059  66.443  1.00  0.00    -0.158 A  
HETATM   31  C   UNL     2      -9.177   7.316  66.155  1.00  0.00    -0.136 A  
HETATM   32  C   UNL     2     -10.875   6.989  68.341  1.00  0.00    -0.191 A  
HETATM   33  C   UNL     2      -9.475   8.399  66.983  1.00  0.00    -0.225 A  
HETATM   34  C   UNL     2     -10.547   5.895  67.532  1.00  0.00    -0.347 A  
ENDBRANCH  22  29
ENDBRANCH  21  22
ENDBRANCH  20  21
ENDBRANCH  19  20
ENDBRANCH   4  19
TORSDOF 6
ENDMDL
MODEL        8
REMARK 921   NORMALIZED FREE ENERGY PREDICTED BY IDOCK:   -6.62 KCAL/MOL
REMARK 922        TOTAL FREE ENERGY PREDICTED BY IDOCK:   -7.33 KCAL/MOL
REMARK 923 INTER-LIGAND FREE ENERGY PREDICTED BY IDOCK:   -9.42 KCAL/MOL
REMARK 924 INTRA-LIGAND FREE ENERGY PREDICTED BY IDOCK:    2.09 KCAL/MOL
REMARK 927      BINDING AFFINITY PREDICTED BY RF-SCORE:    0.00 PKD
ROOT
HETATM    1  C   UNL     1     -11.153   6.663  67.498  1.00  0.00    -0.292 C  
HETATM    2  N   UNL     1     -10.259   7.618  68.164  1.00  0.00    -0.190 N  
HETATM    3  C   UNL     2      -8.327   6.505  68.518  1.00  0.00    -0.121 C  
HETATM    4  N   UNL     2      -8.348   8.075  68.888  1.00  0.00    -0.125 NA 
HETATM    5  C   UNL     1     -10.119   7.792  69.941  1.00  0.00    -0.203 A  
HETATM    6  O   UNL     1      -9.072   8.302  65.831  1.00  0.00    -0.182 OA 
HETATM    7  C   UNL     1      -9.124   8.921  70.633  1.00  0.00    -0.207 A  
HETATM    8  C   UNL     2      -6.746   8.158  69.112  1.00  0.00    -0.047 C  
HETATM    9  C   UNL     1      -7.371  10.690  66.986  1.00  0.00    -0.102 C  
HETATM   10  N   UNL     1      -9.267   8.838  71.983  1.00  0.00    -0.349 NA 
HETATM   11  C   UNL     1      -8.022  10.033  69.614  1.00  0.00    -0.170 C  
HETATM   12  H   UNL     1      -8.831   9.420  72.697  1.00  0.00     0.000 HD 
HETATM   13  O   UNL     1      -7.351  10.935  70.122  1.00  0.00    -0.066 OA 
HETATM   14  N   UNL     1      -8.079   9.779  67.844  1.00  0.00    -0.112 N  
HETATM   15  C   UNL     1     -10.100   7.829  72.154  1.00  0.00    -0.210 A  
HETATM   16  C   UNL     1      -9.022   8.523  67.030  1.00  0.00    -0.137 C  
HETATM   17 CL   UNL     1     -10.540   7.194  73.675  1.00  0.00    -0.415 Cl 
HETATM   18  N   UNL     1     -10.645   7.201  71.047  1.00  0.00    -0.220 NA 
ENDROOT
BRANCH   4  19
HETATM   19  C   UNL     2      -9.848   9.506  68.694  1.00  0.00    -0.162 C  
BRANCH  19  20
HETATM   20  C   UNL     2     -10.865  10.041  67.371  1.00  0.00    -0.249 C  
BRANCH  20  21
HETATM   21  O   UNL     2     -11.832  11.003  67.817  1.00  0.00    -0.605 OA 
BRANCH  21  22
HETATM   22  C   UNL     2     -11.189  12.225  68.297  1.00  0.00    -0.267 C  
BRANCH  22  23
HETATM   23  C   UNL     2     -11.211  13.314  67.215  1.00  0.00    -0.320 A  
HETATM   24  C   UNL     2     -10.023  14.020  66.929  1.00  0.00    -0.263 A  
HETATM   25  C   UNL     2     -12.289  13.472  66.329  1.00  0.00    -0.440 A  
HETATM   26  C   UNL     2      -9.896  14.774  65.756  1.00  0.00    -0.373 A  
HETATM   27  C   UNL     2     -10.962  14.866  64.866  1.00  0.00    -0.422 A  
HETATM   28  C   UNL     2     -12.166  14.240  65.167  1.00  0.00    -0.422 A  
ENDBRANCH  22  23
BRANCH  22  29
HETATM   29  C   UNL     2     -11.824  12.543  69.642  1.00  0.00    -0.382 A  
HETATM   30  C   UNL     2     -13.287  13.088  71.990  1.00  0.00    -0.588 A  
HETATM   31  C   UNL     2     -12.846  14.133  71.187  1.00  0.00    -0.431 A  
HETATM   32  C   UNL     2     -12.243  11.503  70.490  1.00  0.00    -0.469 A  
HETATM   33  C   UNL     2     -12.138  13.860  70.015  1.00  0.00    -0.411 A  
HETATM   34  C   UNL     2     -12.983  11.774  71.645  1.00  0.00    -0.467 A  
ENDBRANCH  22  29
ENDBRANCH  21  22
ENDBRANCH  20  21
ENDBRANCH  19  20
ENDBRANCH   4  19
TORSDOF 6
ENDMDL
MODEL        9
REMARK 921   NORMALIZED FREE ENERGY PREDICTED BY IDOCK:   -6.52 KCAL/MOL
REMARK 922        TOTAL FREE ENERGY PREDICTED BY IDOCK:   -7.19 KCAL/MOL
REMARK 923 INTER-LIGAND FREE ENERGY PREDICTED BY IDOCK:   -9.22 KCAL/MOL
REMARK 924 INTRA-LIGAND FREE ENERGY PREDICTED BY IDOCK:    2.03 KCAL/MOL
REMARK 927      BINDING AFFINITY PREDICTED BY RF-SCORE:    0.00 PKD
ROOT
HETATM    1  C   UNL     1      -7.876  11.920  68.482  1.00  0.00    -0.136 C  
HETATM    2  N   UNL     1      -9.095  12.241  67.731  1.00  0.00    -0.183 N  
HETATM    3  C   UNL     2      -8.641  14.149  66.613  1.00  0.00     0.035 C  
HETATM    4  N   UNL     2     -10.055  13.438  66.306  1.00  0.00    -0.293 NA 
HETATM    5  C   UNL     1     -10.411  13.286  68.349  1.00  0.00    -0.253 A  
HETATM    6  O   UNL     1      -8.148  11.069  65.483  1.00  0.00    -0.083 OA 
HETATM    7  C   UNL     1     -11.784  13.576  67.470  1.00  0.00    -0.367 A  
HETATM    8  C   UNL     2     -10.383  14.387  65.034  1.00  0.00    -0.421 C  
HETATM    9  C   UNL     1     -10.819  11.277  63.824  1.00  0.00    -0.350 C  
HETATM   10  N   UNL     1     -12.605  14.362  68.215  1.00  0.00    -0.331 NA 
HETATM   11  C   UNL     1     -12.021  12.900  65.744  1.00  0.00    -0.443 C  
HETATM   12  H   UNL     1     -13.544  14.686  67.985  1.00  0.00     0.000 HD 
HETATM   13  O   UNL     1     -13.078  13.037  65.125  1.00  0.00    -0.740 OA 
HETATM   14  N   UNL     1     -10.655  11.950  65.084  1.00  0.00    -0.276 N  
HETATM   15  C   UNL     1     -11.904  14.611  69.306  1.00  0.00    -0.321 A  
HETATM   16  C   UNL     1      -9.111  11.690  65.905  1.00  0.00    -0.149 C  
HETATM   17 CL   UNL     1     -12.406  15.666  70.550  1.00  0.00    -0.441 Cl 
HETATM   18  N   UNL     1     -10.664  14.019  69.467  1.00  0.00    -0.056 NA 
ENDROOT
BRANCH   4  19
HETATM   19  C   UNL     2     -10.885  11.671  67.033  1.00  0.00    -0.266 C  
BRANCH  19  20
HETATM   20  C   UNL     2     -10.362  10.000  67.071  1.00  0.00    -0.243 C  
BRANCH  20  21
HETATM   21  O   UNL     2     -11.157   9.229  67.983  1.00  0.00    -0.082 OA 
BRANCH  21  22
HETATM   22  C   UNL     2     -10.456   9.006  69.247  1.00  0.00    -0.228 C  
BRANCH  22  23
HETATM   23  C   UNL     2     -11.344   9.391  70.439  1.00  0.00    -0.295 A  
HETATM   24  C   UNL     2     -11.783  10.727  70.562  1.00  0.00    -0.449 A  
HETATM   25  C   UNL     2     -11.941   8.433  71.273  1.00  0.00    -0.323 A  
HETATM   26  C   UNL     2     -12.839  11.063  71.418  1.00  0.00    -0.548 A  
HETATM   27  C   UNL     2     -13.451  10.081  72.192  1.00  0.00    -0.420 A  
HETATM   28  C   UNL     2     -12.983   8.774  72.141  1.00  0.00    -0.457 A  
ENDBRANCH  22  23
BRANCH  22  29
HETATM   29  C   UNL     2      -9.913   7.586  69.192  1.00  0.00    -0.179 A  
HETATM   30  C   UNL     2      -9.098   4.891  69.344  1.00  0.00    -0.149 A  
HETATM   31  C   UNL     2      -8.332   5.885  69.943  1.00  0.00    -0.121 A  
HETATM   32  C   UNL     2     -10.651   6.572  68.559  1.00  0.00    -0.291 A  
HETATM   33  C   UNL     2      -8.748   7.216  69.882  1.00  0.00    -0.142 A  
HETATM   34  C   UNL     2     -10.255   5.233  68.650  1.00  0.00    -0.223 A  
ENDBRANCH  22  29
ENDBRANCH  21  22
ENDBRANCH  20  21
ENDBRANCH  19  20
ENDBRANCH   4  19
TORSDOF 6
ENDMDL
MODEL       10
REMARK 921   NORMALIZED FREE ENERGY PREDICTED BY IDOCK:   -6.43 KCAL/MOL
REMARK 922        TOTAL FREE ENERGY PREDICTED BY IDOCK:   -7.07 KCAL/MOL
REMARK 923 INTER-LIGAND FREE ENERGY PREDICTED BY IDOCK:   -9.34 KCAL/MOL
REMARK 924 INTRA-LIGAND FREE ENERGY PREDICTED BY IDOCK:    2.28 KCAL/MOL
REMARK 927      BINDING AFFINITY PREDICTED BY RF-SCORE:    0.00 PKD
ROOT
HETATM    1  C   UNL     1      -7.364  19.949  70.064  1.00  0.00     0.304 C  
HETATM    2  N   UNL     1      -7.662  18.848  69.142  1.00  0.00    -0.212 N  
HETATM    3  C   UNL     2      -6.170  19.037  67.458  1.00  0.00    -0.184 C  
HETATM    4  N   UNL     2      -7.134  17.744  67.443  1.00  0.00    -0.182 NA 
HETATM    5  C   UNL     1      -8.779  18.979  67.748  1.00  0.00    -0.298 A  
HETATM    6  O   UNL     1      -5.755  17.271  70.235  1.00  0.00    -0.235 OA 
HETATM    7  C   UNL     1      -9.110  17.685  66.768  1.00  0.00    -0.260 A  
HETATM    8  C   UNL     2      -6.312  17.006  66.258  1.00  0.00    -0.001 C  
HETATM    9  C   UNL     1      -6.512  14.652  68.654  1.00  0.00    -0.085 C  
HETATM   10  N   UNL     1     -10.015  18.083  65.835  1.00  0.00    -0.570 NA 
HETATM   11  C   UNL     1      -8.283  16.026  66.999  1.00  0.00    -0.220 C  
HETATM   12  H   UNL     1     -10.460  17.519  65.112  1.00  0.00     0.000 HD 
HETATM   13  O   UNL     1      -8.596  15.038  66.330  1.00  0.00    -0.222 OA 
HETATM   14  N   UNL     1      -7.082  15.929  68.322  1.00  0.00    -0.114 N  
HETATM   15  C   UNL     1     -10.184  19.368  66.083  1.00  0.00    -0.484 A  
HETATM   16  C   UNL     1      -6.583  17.288  69.340  1.00  0.00    -0.218 C  
HETATM   17 CL   UNL     1     -11.133  20.414  65.125  1.00  0.00     0.250 Cl 
HETATM   18  N   UNL     1      -9.538  19.943  67.163  1.00  0.00    -0.355 NA 
ENDROOT
BRANCH   4  19
HETATM   19  C   UNL     2      -8.602  17.116  68.780  1.00  0.00    -0.236 C  
BRANCH  19  20
HETATM   20  C   UNL     2     -10.220  17.665  69.166  1.00  0.00    -0.238 C  
BRANCH  20  21
HETATM   21  O   UNL     2     -11.206  16.712  68.744  1.00  0.00    -0.308 OA 
BRANCH  21  22
HETATM   22  C   UNL     2     -11.013  15.419  69.398  1.00  0.00    -0.276 C  
BRANCH  22  23
HETATM   23  C   UNL     2     -11.888  15.307  70.655  1.00  0.00    -0.376 A  
HETATM   24  C   UNL     2     -11.371  15.752  71.891  1.00  0.00    -0.369 A  
HETATM   25  C   UNL     2     -13.259  15.013  70.593  1.00  0.00    -0.339 A  
HETATM   26  C   UNL     2     -12.215  15.980  72.985  1.00  0.00    -0.637 A  
HETATM   27  C   UNL     2     -13.580  15.735  72.878  1.00  0.00    -0.660 A  
HETATM   28  C   UNL     2     -14.097  15.224  71.693  1.00  0.00    -0.640 A  
ENDBRANCH  22  23
BRANCH  22  29
HETATM   29  C   UNL     2     -11.180  14.362  68.317  1.00  0.00    -0.295 A  
HETATM   30  C   UNL     2     -11.783  12.345  66.441  1.00  0.00    -0.453 A  
HETATM   31  C   UNL     2     -11.026  12.044  67.569  1.00  0.00    -0.303 A  
HETATM   32  C   UNL     2     -11.908  14.655  67.150  1.00  0.00    -0.367 A  
HETATM   33  C   UNL     2     -10.746  13.041  68.505  1.00  0.00    -0.275 A  
HETATM   34  C   UNL     2     -12.221  13.649  66.229  1.00  0.00    -0.484 A  
ENDBRANCH  22  29
ENDBRANCH  21  22
ENDBRANCH  20  21
ENDBRANCH  19  20
ENDBRANCH   4  19
TORSDOF 6
ENDMDL
MODEL       11
REMARK 921   NORMALIZED FREE ENERGY PREDICTED BY IDOCK:   -6.42 KCAL/MOL
REMARK 922        TOTAL FREE ENERGY PREDICTED BY IDOCK:   -7.06 KCAL/MOL
REMARK 923 INTER-LIGAND FREE ENERGY PREDICTED BY IDOCK:   -9.04 KCAL/MOL
REMARK 924 INTRA-LIGAND FREE ENERGY PREDICTED BY IDOCK:    1.98 KCAL/MOL
REMARK 927      BINDING AFFINITY PREDICTED BY RF-SCORE:    0.00 PKD
ROOT
HETATM    1  C   UNL     1     -10.288   8.617  71.911  1.00  0.00    -0.335 C  
HETATM    2  N   UNL     1      -9.920   8.545  70.493  1.00  0.00    -0.184 N  
HETATM    3  C   UNL     2      -8.209   7.077  70.376  1.00  0.00    -0.124 C  
HETATM    4  N   UNL     2      -8.790   7.639  68.981  1.00  0.00    -0.135 NA 
HETATM    5  C   UNL     1      -8.674   9.577  69.724  1.00  0.00    -0.194 A  
HETATM    6  O   UNL     1     -11.431   6.336  70.099  1.00  0.00    -0.400 OA 
HETATM    7  C   UNL     1      -8.335   9.480  68.106  1.00  0.00    -0.118 A  
HETATM    8  C   UNL     2      -7.958   6.581  68.079  1.00  0.00    -0.109 C  
HETATM    9  C   UNL     1     -11.116   6.245  66.965  1.00  0.00    -0.297 C  
HETATM   10  N   UNL     1      -7.384  10.409  67.818  1.00  0.00    -0.086 NA 
HETATM   11  C   UNL     1      -9.168   8.237  66.988  1.00  0.00    -0.152 C  
HETATM   12  H   UNL     1      -6.988  10.639  66.908  1.00  0.00     0.000 HD 
HETATM   13  O   UNL     1      -8.985   8.225  65.769  1.00  0.00    -0.173 OA 
HETATM   14  N   UNL     1     -10.330   7.130  67.781  1.00  0.00    -0.186 N  
HETATM   15  C   UNL     1      -7.095  10.943  68.990  1.00  0.00    -0.095 A  
HETATM   16  C   UNL     1     -10.665   7.087  69.517  1.00  0.00    -0.241 C  
HETATM   17 CL   UNL     1      -5.859  12.093  69.242  1.00  0.00    -0.073 Cl 
HETATM   18  N   UNL     1      -7.798  10.543  70.112  1.00  0.00     0.014 NA 
ENDROOT
BRANCH   4  19
HETATM   19  C   UNL     2     -10.363   8.944  68.580  1.00  0.00    -0.198 C  
BRANCH  19  20
HETATM   20  C   UNL     2     -10.660  10.161  67.356  1.00  0.00    -0.272 C  
BRANCH  20  21
HETATM   21  O   UNL     2     -11.709  11.054  67.756  1.00  0.00    -0.573 OA 
BRANCH  21  22
HETATM   22  C   UNL     2     -11.175  12.241  68.422  1.00  0.00    -0.266 C  
BRANCH  22  23
HETATM   23  C   UNL     2     -11.053  13.411  67.435  1.00  0.00    -0.297 A  
HETATM   24  C   UNL     2      -9.837  14.124  67.364  1.00  0.00    -0.239 A  
HETATM   25  C   UNL     2     -12.005  13.651  66.431  1.00  0.00    -0.466 A  
HETATM   26  C   UNL     2      -9.556  14.965  66.280  1.00  0.00    -0.334 A  
HETATM   27  C   UNL     2     -10.495  15.139  65.269  1.00  0.00    -0.434 A  
HETATM   28  C   UNL     2     -11.729  14.505  65.359  1.00  0.00    -0.354 A  
ENDBRANCH  22  23
BRANCH  22  29
HETATM   29  C   UNL     2     -12.017  12.448  69.672  1.00  0.00    -0.341 A  
HETATM   30  C   UNL     2     -13.299  12.882  72.146  1.00  0.00    -0.615 A  
HETATM   31  C   UNL     2     -13.025  11.587  71.722  1.00  0.00    -0.500 A  
HETATM   32  C   UNL     2     -12.340  13.747  70.099  1.00  0.00    -0.390 A  
HETATM   33  C   UNL     2     -12.373  11.376  70.506  1.00  0.00    -0.439 A  
HETATM   34  C   UNL     2     -12.961  13.962  71.335  1.00  0.00    -0.430 A  
ENDBRANCH  22  29
ENDBRANCH  21  22
ENDBRANCH  20  21
ENDBRANCH  19  20
ENDBRANCH   4  19
TORSDOF 6
ENDMDL
MODEL       12
REMARK 921   NORMALIZED FREE ENERGY PREDICTED BY IDOCK:   -6.42 KCAL/MOL
REMARK 922        TOTAL FREE ENERGY PREDICTED BY IDOCK:   -7.06 KCAL/MOL
REMARK 923 INTER-LIGAND FREE ENERGY PREDICTED BY IDOCK:   -8.95 KCAL/MOL
REMARK 924 INTRA-LIGAND FREE ENERGY PREDICTED BY IDOCK:    1.89 KCAL/MOL
REMARK 927      BINDING AFFINITY PREDICTED BY RF-SCORE:    0.00 PKD
ROOT
HETATM    1  C   UNL     1      -7.853  11.137  69.406  1.00  0.00     0.073 C  
HETATM    2  N   UNL     1      -8.573  10.030  68.766  1.00  0.00    -0.125 N  
HETATM    3  C   UNL     2      -7.146   8.280  68.784  1.00  0.00    -0.071 C  
HETATM    4  N   UNL     2      -8.643   8.001  68.253  1.00  0.00    -0.130 NA 
HETATM    5  C   UNL     1      -8.503   9.666  67.014  1.00  0.00    -0.124 A  
HETATM    6  O   UNL     1      -9.354   9.015  71.150  1.00  0.00    -0.235 OA 
HETATM    7  C   UNL     1      -9.374   8.428  66.343  1.00  0.00    -0.214 A  
HETATM    8  C   UNL     2      -8.456   6.392  68.231  1.00  0.00    -0.115 C  
HETATM    9  C   UNL     1     -11.297   6.826  69.982  1.00  0.00    -0.342 C  
HETATM   10  N   UNL     1      -9.147   8.430  65.002  1.00  0.00    -0.400 NA 
HETATM   11  C   UNL     1     -10.425   7.278  67.375  1.00  0.00    -0.289 C  
HETATM   12  H   UNL     1      -9.564   7.828  64.294  1.00  0.00     0.000 HD 
HETATM   13  O   UNL     1     -11.146   6.416  66.867  1.00  0.00    -0.384 OA 
HETATM   14  N   UNL     1     -10.404   7.574  69.139  1.00  0.00    -0.209 N  
HETATM   15  C   UNL     1      -8.262   9.394  64.831  1.00  0.00    -0.142 A  
HETATM   16  C   UNL     1      -9.415   8.795  69.951  1.00  0.00    -0.169 C  
HETATM   17 CL   UNL     1      -7.517   9.759  63.339  1.00  0.00    -0.119 Cl 
HETATM   18  N   UNL     1      -7.866  10.154  65.916  1.00  0.00    -0.126 NA 
ENDROOT
BRANCH   4  19
HETATM   19  C   UNL     2     -10.297   9.258  68.100  1.00  0.00    -0.215 C  
BRANCH  19  20
HETATM   20  C   UNL     2     -11.130  10.324  69.212  1.00  0.00    -0.245 C  
BRANCH  20  21
HETATM   21  O   UNL     2     -11.945  11.273  68.509  1.00  0.00    -0.519 OA 
BRANCH  21  22
HETATM   22  C   UNL     2     -11.129  12.268  67.816  1.00  0.00    -0.255 C  
BRANCH  22  23
HETATM   23  C   UNL     2     -11.582  12.424  66.357  1.00  0.00    -0.442 A  
HETATM   24  C   UNL     2     -12.363  13.544  65.998  1.00  0.00    -0.486 A  
HETATM   25  C   UNL     2     -11.055  11.641  65.318  1.00  0.00    -0.298 A  
HETATM   26  C   UNL     2     -12.525  13.910  64.656  1.00  0.00    -0.361 A  
HETATM   27  C   UNL     2     -11.942  13.148  63.649  1.00  0.00    -0.580 A  
HETATM   28  C   UNL     2     -11.233  11.999  63.978  1.00  0.00    -0.468 A  
ENDBRANCH  22  23
BRANCH  22  29
HETATM   29  C   UNL     2     -11.125  13.508  68.697  1.00  0.00    -0.299 A  
HETATM   30  C   UNL     2     -10.914  15.645  70.525  1.00  0.00    -0.371 A  
HETATM   31  C   UNL     2     -11.984  14.761  70.608  1.00  0.00    -0.371 A  
HETATM   32  C   UNL     2     -10.073  14.436  68.605  1.00  0.00    -0.242 A  
HETATM   33  C   UNL     2     -12.075  13.693  69.713  1.00  0.00    -0.396 A  
HETATM   34  C   UNL     2      -9.961  15.486  69.524  1.00  0.00    -0.280 A  
ENDBRANCH  22  29
ENDBRANCH  21  22
ENDBRANCH  20  21
ENDBRANCH  19  20
ENDBRANCH   4  19
TORSDOF 6
ENDMDL
MODEL       13
REMARK 921   NORMALIZED FREE ENERGY PREDICTED BY IDOCK:   -6.42 KCAL/MOL
REMARK 922        TOTAL FREE ENERGY PREDICTED BY IDOCK:   -7.06 KCAL/MOL
REMARK 923 INTER-LIGAND FREE ENERGY PREDICTED BY IDOCK:   -9.02 KCAL/MOL
REMARK 924 INTRA-LIGAND FREE ENERGY PREDICTED BY IDOCK:    1.96 KCAL/MOL
REMARK 927      BINDING AFFINITY PREDICTED BY RF-SCORE:    0.00 PKD
ROOT
HETATM    1  C   UNL     1      -6.723   9.584  70.965  1.00  0.00    -0.048 C  
HETATM    2  N   UNL     1      -8.021   8.917  70.811  1.00  0.00    -0.115 N  
HETATM    3  C   UNL     2      -7.556   6.829  70.089  1.00  0.00    -0.099 C  
HETATM    4  N   UNL     2      -9.097   7.161  70.432  1.00  0.00    -0.155 NA 
HETATM    5  C   UNL     1      -8.966   8.895  69.290  1.00  0.00    -0.144 A  
HETATM    6  O   UNL     1      -7.845   7.772  73.257  1.00  0.00    -0.107 OA 
HETATM    7  C   UNL     1     -10.448   8.162  69.192  1.00  0.00    -0.206 A  
HETATM    8  C   UNL     2      -9.570   5.615  70.329  1.00  0.00    -0.168 C  
HETATM    9  C   UNL     1     -10.772   6.605  73.312  1.00  0.00    -0.287 C  
HETATM   10  N   UNL     1     -10.929   8.349  67.934  1.00  0.00    -0.476 NA 
HETATM   11  C   UNL     1     -11.200   7.242  70.634  1.00  0.00    -0.274 C  
HETATM   12  H   UNL     1     -11.832   8.063  67.559  1.00  0.00     0.000 HD 
HETATM   13  O   UNL     1     -12.341   6.776  70.592  1.00  0.00    -0.359 OA 
HETATM   14  N   UNL     1     -10.203   7.169  72.118  1.00  0.00    -0.185 N  
HETATM   15  C   UNL     1      -9.954   8.985  67.312  1.00  0.00    -0.216 A  
HETATM   16  C   UNL     1      -8.566   7.820  72.273  1.00  0.00    -0.132 C  
HETATM   17 CL   UNL     1      -9.966   9.368  65.649  1.00  0.00    -0.320 Cl 
HETATM   18  N   UNL     1      -8.822   9.351  68.017  1.00  0.00    -0.124 NA 
ENDROOT
BRANCH   4  19
HETATM   19  C   UNL     2      -9.994   8.893  71.164  1.00  0.00    -0.272 C  
BRANCH  19  20
HETATM   20  C   UNL     2     -11.299   9.921  70.611  1.00  0.00    -0.339 C  
BRANCH  20  21
HETATM   21  O   UNL     2     -10.830  11.248  70.328  1.00  0.00     0.116 OA 
BRANCH  21  22
HETATM   22  C   UNL     2     -11.861  12.050  69.672  1.00  0.00    -0.333 C  
BRANCH  22  23
HETATM   23  C   UNL     2     -12.384  13.144  70.614  1.00  0.00    -0.405 A  
HETATM   24  C   UNL     2     -12.300  14.493  70.210  1.00  0.00    -0.408 A  
HETATM   25  C   UNL     2     -13.161  12.852  71.747  1.00  0.00    -0.479 A  
HETATM   26  C   UNL     2     -13.041  15.488  70.861  1.00  0.00    -0.508 A  
HETATM   27  C   UNL     2     -13.849  15.161  71.945  1.00  0.00    -0.607 A  
HETATM   28  C   UNL     2     -13.886  13.850  72.406  1.00  0.00    -0.668 A  
ENDBRANCH  22  23
BRANCH  22  29
HETATM   29  C   UNL     2     -11.282  12.480  68.333  1.00  0.00    -0.313 A  
HETATM   30  C   UNL     2     -10.130  12.967  65.805  1.00  0.00    -0.294 A  
HETATM   31  C   UNL     2      -9.383  13.167  66.961  1.00  0.00    -0.238 A  
HETATM   32  C   UNL     2     -12.033  12.323  67.155  1.00  0.00    -0.207 A  
HETATM   33  C   UNL     2      -9.950  12.907  68.210  1.00  0.00    -0.234 A  
HETATM   34  C   UNL     2     -11.454  12.549  65.901  1.00  0.00    -0.417 A  
ENDBRANCH  22  29
ENDBRANCH  21  22
ENDBRANCH  20  21
ENDBRANCH  19  20
ENDBRANCH   4  19
TORSDOF 6
ENDMDL
MODEL       14
REMARK 921   NORMALIZED FREE ENERGY PREDICTED BY IDOCK:   -6.35 KCAL/MOL
REMARK 922        TOTAL FREE ENERGY PREDICTED BY IDOCK:   -6.96 KCAL/MOL
REMARK 923 INTER-LIGAND FREE ENERGY PREDICTED BY IDOCK:   -8.94 KCAL/MOL
REMARK 924 INTRA-LIGAND FREE ENERGY PREDICTED BY IDOCK:    1.98 KCAL/MOL
REMARK 927      BINDING AFFINITY PREDICTED BY RF-SCORE:    0.00 PKD
ROOT
HETATM    1  C   UNL     1     -11.010   6.349  67.115  1.00  0.00    -0.399 C  
HETATM    2  N   UNL     1     -10.295   7.488  67.704  1.00  0.00    -0.210 N  
HETATM    3  C   UNL     2      -8.229   6.725  68.199  1.00  0.00    -0.114 C  
HETATM    4  N   UNL     2      -8.502   8.299  68.417  1.00  0.00    -0.128 NA 
HETATM    5  C   UNL     1     -10.243   7.843  69.458  1.00  0.00    -0.208 A  
HETATM    6  O   UNL     1      -9.149   8.132  65.339  1.00  0.00    -0.052 OA 
HETATM    7  C   UNL     1      -9.456   9.170  70.059  1.00  0.00    -0.198 A  
HETATM    8  C   UNL     2      -6.939   8.651  68.663  1.00  0.00    -0.064 C  
HETATM    9  C   UNL     1      -7.873  10.850  66.294  1.00  0.00    -0.158 C  
HETATM   10  N   UNL     1      -9.629   9.190  71.407  1.00  0.00    -0.280 NA 
HETATM   11  C   UNL     1      -8.503  10.343  68.960  1.00  0.00    -0.155 C  
HETATM   12  H   UNL     1      -9.311   9.895  72.071  1.00  0.00     0.000 HD 
HETATM   13  O   UNL     1      -7.995  11.380  69.391  1.00  0.00     0.062 OA 
HETATM   14  N   UNL     1      -8.461   9.923  67.221  1.00  0.00    -0.121 N  
HETATM   15  C   UNL     1     -10.304   8.084  71.658  1.00  0.00    -0.214 A  
HETATM   16  C   UNL     1      -9.173   8.467  66.512  1.00  0.00    -0.189 C  
HETATM   17 CL   UNL     1     -10.692   7.530  73.224  1.00  0.00    -0.444 Cl 
HETATM   18  N   UNL     1     -10.709   7.281  70.606  1.00  0.00    -0.231 NA 
ENDROOT
BRANCH   4  19
HETATM   19  C   UNL     2     -10.196   9.457  68.059  1.00  0.00    -0.204 C  
BRANCH  19  20
HETATM   20  C   UNL     2     -11.250  10.425  69.068  1.00  0.00    -0.234 C  
BRANCH  20  21
HETATM   21  O   UNL     2     -12.047  11.320  68.278  1.00  0.00    -0.619 OA 
BRANCH  21  22
HETATM   22  C   UNL     2     -11.216  12.297  67.575  1.00  0.00    -0.297 C  
BRANCH  22  23
HETATM   23  C   UNL     2     -11.700  12.486  66.131  1.00  0.00    -0.466 A  
HETATM   24  C   UNL     2     -12.306  13.707  65.766  1.00  0.00    -0.524 A  
HETATM   25  C   UNL     2     -11.350  11.602  65.098  1.00  0.00    -0.223 A  
HETATM   26  C   UNL     2     -12.464  14.061  64.420  1.00  0.00    -0.326 A  
HETATM   27  C   UNL     2     -12.055  13.189  63.416  1.00  0.00    -0.558 A  
HETATM   28  C   UNL     2     -11.525  11.949  63.755  1.00  0.00    -0.542 A  
ENDBRANCH  22  23
BRANCH  22  29
HETATM   29  C   UNL     2     -11.147  13.524  68.471  1.00  0.00    -0.300 A  
HETATM   30  C   UNL     2     -10.874  15.610  70.349  1.00  0.00    -0.358 A  
HETATM   31  C   UNL     2     -12.065  14.897  70.269  1.00  0.00    -0.379 A  
HETATM   32  C   UNL     2      -9.966  14.283  68.540  1.00  0.00    -0.235 A  
HETATM   33  C   UNL     2     -12.191  13.853  69.351  1.00  0.00    -0.338 A  
HETATM   34  C   UNL     2      -9.826  15.306  69.485  1.00  0.00    -0.230 A  
ENDBRANCH  22  29
ENDBRANCH  21  22
ENDBRANCH  20  21
ENDBRANCH  19  20
ENDBRANCH   4  19
TORSDOF 6
ENDMDL
MODEL       15
REMARK 921   NORMALIZED FREE ENERGY PREDICTED BY IDOCK:   -6.33 KCAL/MOL
REMARK 922        TOTAL FREE ENERGY PREDICTED BY IDOCK:   -6.94 KCAL/MOL
REMARK 923 INTER-LIGAND FREE ENERGY PREDICTED BY IDOCK:   -9.56 KCAL/MOL
REMARK 924 INTRA-LIGAND FREE ENERGY PREDICTED BY IDOCK:    2.62 KCAL/MOL
REMARK 927      BINDING AFFINITY PREDICTED BY RF-SCORE:    0.00 PKD
ROOT
HETATM    1  C   UNL     1      -5.223  17.761  65.391  1.00  0.00    -0.005 C  
HETATM    2  N   UNL     1      -6.366  17.827  66.309  1.00  0.00    -0.210 N  
HETATM    3  C   UNL     2      -5.656  19.025  68.086  1.00  0.00    -0.192 C  
HETATM    4  N   UNL     2      -7.213  18.608  68.058  1.00  0.00    -0.241 NA 
HETATM    5  C   UNL     1      -6.670  16.648  67.622  1.00  0.00    -0.139 A  
HETATM    6  O   UNL     1      -7.117  20.252  65.372  1.00  0.00    -0.308 OA 
HETATM    7  C   UNL     1      -8.003  16.751  68.599  1.00  0.00    -0.246 A  
HETATM    8  C   UNL     2      -7.607  19.561  69.307  1.00  0.00    -0.202 C  
HETATM    9  C   UNL     1      -9.845  20.407  66.942  1.00  0.00    -0.431 C  
HETATM   10  N   UNL     1      -7.977  15.701  69.462  1.00  0.00    -0.217 NA 
HETATM   11  C   UNL     1      -9.238  18.146  68.451  1.00  0.00    -0.306 C  
HETATM   12  H   UNL     1      -8.672  15.447  70.163  1.00  0.00     0.000 HD 
HETATM   13  O   UNL     1     -10.278  18.174  69.114  1.00  0.00    -0.344 OA 
HETATM   14  N   UNL     1      -8.872  19.385  67.213  1.00  0.00    -0.290 N  
HETATM   15  C   UNL     1      -6.842  15.088  69.182  1.00  0.00    -0.132 A  
HETATM   16  C   UNL     1      -7.416  19.416  66.210  1.00  0.00    -0.274 C  
HETATM   17 CL   UNL     1      -6.230  13.757  70.057  1.00  0.00    -0.137 Cl 
HETATM   18  N   UNL     1      -6.059  15.548  68.139  1.00  0.00    -0.122 NA 
ENDROOT
BRANCH   4  19
HETATM   19  C   UNL     2      -8.326  17.570  66.636  1.00  0.00    -0.261 C  
BRANCH  19  20
HETATM   20  C   UNL     2      -9.942  16.896  66.602  1.00  0.00    -0.296 C  
BRANCH  20  21
HETATM   21  O   UNL     2      -9.908  15.473  66.419  1.00  0.00    -0.247 OA 
BRANCH  21  22
HETATM   22  C   UNL     2     -11.253  14.900  66.437  1.00  0.00    -0.331 C  
BRANCH  22  23
HETATM   23  C   UNL     2     -11.454  13.943  65.253  1.00  0.00    -0.319 A  
HETATM   24  C   UNL     2     -10.321  13.401  64.611  1.00  0.00    -0.400 A  
HETATM   25  C   UNL     2     -12.706  13.391  64.937  1.00  0.00    -0.365 A  
HETATM   26  C   UNL     2     -10.433  12.294  63.762  1.00  0.00    -0.476 A  
HETATM   27  C   UNL     2     -11.680  11.729  63.511  1.00  0.00    -0.485 A  
HETATM   28  C   UNL     2     -12.818  12.296  64.075  1.00  0.00    -0.387 A  
ENDBRANCH  22  23
BRANCH  22  29
HETATM   29  C   UNL     2     -11.467  14.353  67.840  1.00  0.00    -0.346 A  
HETATM   30  C   UNL     2     -12.165  13.268  70.348  1.00  0.00    -0.404 A  
HETATM   31  C   UNL     2     -12.231  14.641  70.141  1.00  0.00    -0.391 A  
HETATM   32  C   UNL     2     -11.367  12.971  68.083  1.00  0.00    -0.329 A  
HETATM   33  C   UNL     2     -11.903  15.173  68.893  1.00  0.00    -0.337 A  
HETATM   34  C   UNL     2     -11.731  12.433  69.322  1.00  0.00    -0.386 A  
ENDBRANCH  22  29
ENDBRANCH  21  22
ENDBRANCH  20  21
ENDBRANCH  19  20
ENDBRANCH   4  19
TORSDOF 6
ENDMDL
MODEL       16
REMARK 921   NORMALIZED FREE ENERGY PREDICTED BY IDOCK:   -6.29 KCAL/MOL
REMARK 922        TOTAL FREE ENERGY PREDICTED BY IDOCK:   -6.88 KCAL/MOL
REMARK 923 INTER-LIGAND FREE ENERGY PREDICTED BY IDOCK:   -9.81 KCAL/MOL
REMARK 924 INTRA-LIGAND FREE ENERGY PREDICTED BY IDOCK:    2.93 KCAL/MOL
REMARK 927      BINDING AFFINITY PREDICTED BY RF-SCORE:    0.00 PKD
ROOT
HETATM    1  C   UNL     1      -6.910  11.675  69.636  1.00  0.00    -0.006 C  
HETATM    2  N   UNL     1      -7.922  11.598  68.577  1.00  0.00    -0.142 N  
HETATM    3  C   UNL     2      -6.785  11.198  66.668  1.00  0.00    -0.137 C  
HETATM    4  N   UNL     2      -8.395  11.183  66.580  1.00  0.00    -0.163 NA 
HETATM    5  C   UNL     1      -8.457  12.997  67.595  1.00  0.00    -0.187 A  
HETATM    6  O   UNL     1      -8.021   8.898  68.715  1.00  0.00    -0.099 OA 
HETATM    7  C   UNL     1      -9.638  12.856  66.443  1.00  0.00    -0.252 A  
HETATM    8  C   UNL     2      -8.419  10.576  65.078  1.00  0.00    -0.163 C  
HETATM    9  C   UNL     1     -10.482   8.535  66.781  1.00  0.00    -0.238 C  
HETATM   10  N   UNL     1      -9.851  14.086  65.903  1.00  0.00    -0.411 NA 
HETATM   11  C   UNL     1     -10.437  11.218  66.032  1.00  0.00    -0.257 C  
HETATM   12  H   UNL     1     -10.540  14.353  65.202  1.00  0.00     0.000 HD 
HETATM   13  O   UNL     1     -11.379  11.127  65.242  1.00  0.00    -0.015 OA 
HETATM   14  N   UNL     1      -9.820   9.801  66.935  1.00  0.00    -0.190 N  
HETATM   15  C   UNL     1      -8.957  14.854  66.498  1.00  0.00    -0.253 A  
HETATM   16  C   UNL     1      -8.486   9.841  68.096  1.00  0.00    -0.114 C  
HETATM   17 CL   UNL     1      -8.687  16.493  66.108  1.00  0.00    -0.357 Cl 
HETATM   18  N   UNL     1      -8.148  14.317  67.484  1.00  0.00    -0.174 NA 
ENDROOT
BRANCH   4  19
HETATM   19  C   UNL     2      -9.849  11.441  68.049  1.00  0.00    -0.184 C  
BRANCH  19  20
HETATM   20  C   UNL     2     -11.477  12.085  68.057  1.00  0.00    -0.328 C  
BRANCH  20  21
HETATM   21  O   UNL     2     -12.305  11.393  69.003  1.00  0.00    -0.407 OA 
BRANCH  21  22
HETATM   22  C   UNL     2     -11.832  11.592  70.373  1.00  0.00    -0.293 C  
BRANCH  22  23
HETATM   23  C   UNL     2     -12.413  12.883  70.968  1.00  0.00    -0.374 A  
HETATM   24  C   UNL     2     -12.147  14.112  70.327  1.00  0.00    -0.412 A  
HETATM   25  C   UNL     2     -13.394  12.873  71.972  1.00  0.00    -0.579 A  
HETATM   26  C   UNL     2     -12.901  15.256  70.620  1.00  0.00    -0.462 A  
HETATM   27  C   UNL     2     -13.907  15.203  71.580  1.00  0.00    -0.597 A  
HETATM   28  C   UNL     2     -14.133  14.021  72.275  1.00  0.00    -0.633 A  
ENDBRANCH  22  23
BRANCH  22  29
HETATM   29  C   UNL     2     -12.092  10.287  71.110  1.00  0.00    -0.494 A  
HETATM   30  C   UNL     2     -12.542   7.722  72.191  1.00  0.00    -0.250 A  
HETATM   31  C   UNL     2     -13.619   8.535  71.856  1.00  0.00    -0.427 A  
HETATM   32  C   UNL     2     -11.017   9.466  71.494  1.00  0.00    -0.429 A  
HETATM   33  C   UNL     2     -13.393   9.797  71.303  1.00  0.00    -0.413 A  
HETATM   34  C   UNL     2     -11.242   8.187  72.014  1.00  0.00    -0.372 A  
ENDBRANCH  22  29
ENDBRANCH  21  22
ENDBRANCH  20  21
ENDBRANCH  19  20
ENDBRANCH   4  19
TORSDOF 6
ENDMDL
MODEL       17
REMARK 921   NORMALIZED FREE ENERGY PREDICTED BY IDOCK:   -6.28 KCAL/MOL
REMARK 922        TOTAL FREE ENERGY PREDICTED BY IDOCK:   -6.86 KCAL/MOL
REMARK 923 INTER-LIGAND FREE ENERGY PREDICTED BY IDOCK:   -9.25 KCAL/MOL
REMARK 924 INTRA-LIGAND FREE ENERGY PREDICTED BY IDOCK:    2.38 KCAL/MOL
REMARK 927      BINDING AFFINITY PREDICTED BY RF-SCORE:    0.00 PKD
ROOT
HETATM    1  C   UNL     1      -7.567   9.515  67.453  1.00  0.00    -0.095 C  
HETATM    2  N   UNL     1      -8.543   8.694  68.179  1.00  0.00    -0.140 N  
HETATM    3  C   UNL     2      -7.352   7.036  69.144  1.00  0.00    -0.092 C  
HETATM    4  N   UNL     2      -8.921   7.120  69.508  1.00  0.00    -0.141 NA 
HETATM    5  C   UNL     1      -9.372   7.267  67.482  1.00  0.00    -0.129 A  
HETATM    6  O   UNL     1      -8.053   9.978  70.510  1.00  0.00    -0.194 OA 
HETATM    7  C   UNL     1     -10.498   6.406  68.338  1.00  0.00    -0.222 A  
HETATM    8  C   UNL     2      -8.818   6.030  70.702  1.00  0.00    -0.142 C  
HETATM    9  C   UNL     1     -10.383   8.633  72.150  1.00  0.00    -0.333 C  
HETATM   10  N   UNL     1     -10.974   5.418  67.535  1.00  0.00    -0.128 NA 
HETATM   11  C   UNL     1     -10.924   6.813  70.111  1.00  0.00    -0.292 C  
HETATM   12  H   UNL     1     -11.708   4.741  67.740  1.00  0.00     0.000 HD 
HETATM   13  O   UNL     1     -11.827   6.234  70.719  1.00  0.00    -0.307 OA 
HETATM   14  N   UNL     1     -10.012   8.169  70.842  1.00  0.00    -0.186 N  
HETATM   15  C   UNL     1     -10.266   5.539  66.428  1.00  0.00    -0.201 A  
HETATM   16  C   UNL     1      -8.713   9.064  70.042  1.00  0.00    -0.157 C  
HETATM   17 CL   UNL     1     -10.359   4.464  65.106  1.00  0.00    -0.232 Cl 
HETATM   18  N   UNL     1      -9.357   6.575  66.312  1.00  0.00    -0.143 NA 
ENDROOT
BRANCH   4  19
HETATM   19  C   UNL     2     -10.391   8.474  68.921  1.00  0.00    -0.210 C  
BRANCH  19  20
HETATM   20  C   UNL     2     -10.566   9.583  67.576  1.00  0.00    -0.275 C  
BRANCH  20  21
HETATM   21  O   UNL     2     -11.612  10.534  67.820  1.00  0.00    -0.462 OA 
BRANCH  21  22
HETATM   22  C   UNL     2     -11.070  11.839  68.198  1.00  0.00    -0.243 C  
BRANCH  22  23
HETATM   23  C   UNL     2     -11.187  12.835  67.036  1.00  0.00    -0.336 A  
HETATM   24  C   UNL     2     -10.155  13.776  66.835  1.00  0.00    -0.260 A  
HETATM   25  C   UNL     2     -12.146  12.696  66.020  1.00  0.00    -0.429 A  
HETATM   26  C   UNL     2     -10.042  14.476  65.627  1.00  0.00    -0.384 A  
HETATM   27  C   UNL     2     -10.974  14.276  64.614  1.00  0.00    -0.379 A  
HETATM   28  C   UNL     2     -12.041  13.410  64.821  1.00  0.00    -0.448 A  
ENDBRANCH  22  23
BRANCH  22  29
HETATM   29  C   UNL     2     -11.724  12.207  69.521  1.00  0.00    -0.402 A  
HETATM   30  C   UNL     2     -13.219  12.871  71.818  1.00  0.00    -0.479 A  
HETATM   31  C   UNL     2     -12.657  13.876  71.038  1.00  0.00    -0.444 A  
HETATM   32  C   UNL     2     -12.265  11.205  70.346  1.00  0.00    -0.457 A  
HETATM   33  C   UNL     2     -11.934  13.545  69.891  1.00  0.00    -0.416 A  
HETATM   34  C   UNL     2     -13.021  11.537  71.475  1.00  0.00    -0.485 A  
ENDBRANCH  22  29
ENDBRANCH  21  22
ENDBRANCH  20  21
ENDBRANCH  19  20
ENDBRANCH   4  19
TORSDOF 6
ENDMDL
MODEL       18
REMARK 921   NORMALIZED FREE ENERGY PREDICTED BY IDOCK:   -6.23 KCAL/MOL
REMARK 922        TOTAL FREE ENERGY PREDICTED BY IDOCK:   -6.80 KCAL/MOL
REMARK 923 INTER-LIGAND FREE ENERGY PREDICTED BY IDOCK:   -9.06 KCAL/MOL
REMARK 924 INTRA-LIGAND FREE ENERGY PREDICTED BY IDOCK:    2.26 KCAL/MOL
REMARK 927      BINDING AFFINITY PREDICTED BY RF-SCORE:    0.00 PKD
ROOT
HETATM    1  C   UNL     1     -10.951   6.239  66.706  1.00  0.00    -0.255 C  
HETATM    2  N   UNL     1     -10.253   7.012  67.740  1.00  0.00    -0.167 N  
HETATM    3  C   UNL     2      -8.375   5.850  68.209  1.00  0.00    -0.112 C  
HETATM    4  N   UNL     2      -8.545   7.288  68.919  1.00  0.00    -0.129 NA 
HETATM    5  C   UNL     1     -10.471   6.762  69.500  1.00  0.00    -0.220 A  
HETATM    6  O   UNL     1      -8.669   8.229  65.915  1.00  0.00    -0.144 OA 
HETATM    7  C   UNL     1      -9.687   7.698  70.619  1.00  0.00    -0.174 A  
HETATM    8  C   UNL     2      -7.023   7.319  69.474  1.00  0.00    -0.057 C  
HETATM    9  C   UNL     1      -7.346  10.280  67.908  1.00  0.00    -0.087 C  
HETATM   10  N   UNL     1     -10.086   7.298  71.856  1.00  0.00    -0.178 NA 
HETATM   11  C   UNL     1      -8.463   9.021  70.127  1.00  0.00    -0.157 C  
HETATM   12  H   UNL     1      -9.827   7.696  72.758  1.00  0.00     0.000 HD 
HETATM   13  O   UNL     1      -7.949   9.779  70.954  1.00  0.00    -0.279 OA 
HETATM   14  N   UNL     1      -8.162   9.192  68.372  1.00  0.00    -0.114 N  
HETATM   15  C   UNL     1     -10.886   6.276  71.619  1.00  0.00    -0.251 A  
HETATM   16  C   UNL     1      -8.865   8.161  67.118  1.00  0.00    -0.131 C  
HETATM   17 CL   UNL     1     -11.582   5.299  72.832  1.00  0.00    -0.349 Cl 
HETATM   18  N   UNL     1     -11.173   5.926  70.311  1.00  0.00    -0.309 NA 
ENDROOT
BRANCH   4  19
HETATM   19  C   UNL     2     -10.047   8.723  68.762  1.00  0.00    -0.198 C  
BRANCH  19  20
HETATM   20  C   UNL     2     -10.646   9.729  67.460  1.00  0.00    -0.275 C  
BRANCH  20  21
HETATM   21  O   UNL     2     -11.665  10.626  67.924  1.00  0.00    -0.506 OA 
BRANCH  21  22
HETATM   22  C   UNL     2     -11.108  11.932  68.273  1.00  0.00    -0.239 C  
BRANCH  22  23
HETATM   23  C   UNL     2     -11.019  12.835  67.034  1.00  0.00    -0.295 A  
HETATM   24  C   UNL     2     -12.142  12.948  66.186  1.00  0.00    -0.458 A  
HETATM   25  C   UNL     2      -9.964  13.740  66.837  1.00  0.00    -0.264 A  
HETATM   26  C   UNL     2     -12.238  13.984  65.249  1.00  0.00    -0.451 A  
HETATM   27  C   UNL     2     -11.201  14.903  65.115  1.00  0.00    -0.389 A  
HETATM   28  C   UNL     2     -10.054  14.763  65.888  1.00  0.00    -0.343 A  
ENDBRANCH  22  23
BRANCH  22  29
HETATM   29  C   UNL     2     -11.908  12.435  69.465  1.00  0.00    -0.368 A  
HETATM   30  C   UNL     2     -13.106  13.434  71.814  1.00  0.00    -0.479 A  
HETATM   31  C   UNL     2     -12.913  12.065  71.658  1.00  0.00    -0.439 A  
HETATM   32  C   UNL     2     -12.149  13.811  69.624  1.00  0.00    -0.392 A  
HETATM   33  C   UNL     2     -12.303  11.576  70.502  1.00  0.00    -0.432 A  
HETATM   34  C   UNL     2     -12.728  14.306  70.798  1.00  0.00    -0.419 A  
ENDBRANCH  22  29
ENDBRANCH  21  22
ENDBRANCH  20  21
ENDBRANCH  19  20
ENDBRANCH   4  19
TORSDOF 6
ENDMDL
MODEL       19
REMARK 921   NORMALIZED FREE ENERGY PREDICTED BY IDOCK:   -6.22 KCAL/MOL
REMARK 922        TOTAL FREE ENERGY PREDICTED BY IDOCK:   -6.78 KCAL/MOL
REMARK 923 INTER-LIGAND FREE ENERGY PREDICTED BY IDOCK:   -8.97 KCAL/MOL
REMARK 924 INTRA-LIGAND FREE ENERGY PREDICTED BY IDOCK:    2.18 KCAL/MOL
REMARK 927      BINDING AFFINITY PREDICTED BY RF-SCORE:    0.00 PKD
ROOT
HETATM    1  C   UNL     1     -10.983  11.368  65.392  1.00  0.00    -0.184 C  
HETATM    2  N   UNL     1     -10.162  11.081  66.574  1.00  0.00    -0.226 N  
HETATM    3  C   UNL     2     -10.014   8.831  66.687  1.00  0.00    -0.285 C  
HETATM    4  N   UNL     2      -9.142   9.678  67.746  1.00  0.00    -0.125 NA 
HETATM    5  C   UNL     1     -10.825  10.806  68.215  1.00  0.00    -0.229 A  
HETATM    6  O   UNL     1      -7.913  10.841  65.090  1.00  0.00    -0.089 OA 
HETATM    7  C   UNL     1      -9.843  10.531  69.520  1.00  0.00    -0.142 A  
HETATM    8  C   UNL     2      -8.304   8.389  68.258  1.00  0.00    -0.131 C  
HETATM    9  C   UNL     1      -5.910  10.634  67.514  1.00  0.00    -0.044 C  
HETATM   10  N   UNL     1     -10.631  10.403  70.621  1.00  0.00    -0.348 NA 
HETATM   11  C   UNL     1      -7.986  10.410  69.358  1.00  0.00    -0.157 C  
HETATM   12  H   UNL     1     -10.339  10.272  71.589  1.00  0.00     0.000 HD 
HETATM   13  O   UNL     1      -7.248  10.298  70.340  1.00  0.00    -0.257 OA 
HETATM   14  N   UNL     1      -7.334  10.572  67.700  1.00  0.00    -0.086 N  
HETATM   15  C   UNL     1     -11.859  10.488  70.146  1.00  0.00    -0.320 A  
HETATM   16  C   UNL     1      -8.315  10.750  66.238  1.00  0.00    -0.160 C  
HETATM   17 CL   UNL     1     -13.268  10.266  71.083  1.00  0.00    -0.453 Cl 
HETATM   18  N   UNL     1     -12.051  10.739  68.799  1.00  0.00    -0.436 NA 
ENDROOT
BRANCH   4  19
HETATM   19  C   UNL     2      -8.912  11.733  67.998  1.00  0.00    -0.176 C  
BRANCH  19  20
HETATM   20  C   UNL     2      -9.993  13.107  67.887  1.00  0.00    -0.233 C  
BRANCH  20  21
HETATM   21  O   UNL     2      -9.796  14.012  68.982  1.00  0.00    -0.128 OA 
BRANCH  21  22
HETATM   22  C   UNL     2     -10.865  15.008  69.051  1.00  0.00    -0.242 C  
BRANCH  22  23
HETATM   23  C   UNL     2     -11.589  14.938  70.403  1.00  0.00    -0.330 A  
HETATM   24  C   UNL     2     -11.374  15.962  71.350  1.00  0.00    -0.407 A  
HETATM   25  C   UNL     2     -12.640  14.039  70.648  1.00  0.00    -0.414 A  
HETATM   26  C   UNL     2     -12.235  16.129  72.441  1.00  0.00    -0.592 A  
HETATM   27  C   UNL     2     -13.304  15.257  72.627  1.00  0.00    -0.577 A  
HETATM   28  C   UNL     2     -13.488  14.196  71.748  1.00  0.00    -0.471 A  
ENDBRANCH  22  23
BRANCH  22  29
HETATM   29  C   UNL     2     -10.242  16.334  68.644  1.00  0.00    -0.254 A  
HETATM   30  C   UNL     2      -9.052  18.665  67.595  1.00  0.00    -0.294 A  
HETATM   31  C   UNL     2      -8.277  17.737  68.281  1.00  0.00    -0.285 A  
HETATM   32  C   UNL     2     -11.015  17.305  67.984  1.00  0.00    -0.194 A  
HETATM   33  C   UNL     2      -8.865  16.575  68.782  1.00  0.00    -0.255 A  
HETATM   34  C   UNL     2     -10.420  18.453  67.449  1.00  0.00    -0.443 A  
ENDBRANCH  22  29
ENDBRANCH  21  22
ENDBRANCH  20  21
ENDBRANCH  19  20
ENDBRANCH   4  19
TORSDOF 6
ENDMDL
MODEL       20
REMARK 921   NORMALIZED FREE ENERGY PREDICTED BY IDOCK:   -6.18 KCAL/MOL
REMARK 922        TOTAL FREE ENERGY PREDICTED BY IDOCK:   -6.73 KCAL/MOL
REMARK 923 INTER-LIGAND FREE ENERGY PREDICTED BY IDOCK:   -9.39 KCAL/MOL
REMARK 924 INTRA-LIGAND FREE ENERGY PREDICTED BY IDOCK:    2.66 KCAL/MOL
REMARK 927      BINDING AFFINITY PREDICTED BY RF-SCORE:    0.00 PKD
ROOT
HETATM    1  C   UNL     1     -10.650  19.288  67.080  1.00  0.00    -0.472 C  
HETATM    2  N   UNL     1      -9.460  18.453  67.276  1.00  0.00    -0.274 N  
HETATM    3  C   UNL     2      -8.129  19.604  68.690  1.00  0.00    -0.289 C  
HETATM    4  N   UNL     2      -7.657  18.116  68.286  1.00  0.00    -0.265 NA 
HETATM    5  C   UNL     1      -7.975  18.571  66.281  1.00  0.00    -0.246 A  
HETATM    6  O   UNL     1     -10.444  17.394  69.563  1.00  0.00    -0.248 OA 
HETATM    7  C   UNL     1      -6.679  17.568  66.523  1.00  0.00    -0.241 A  
HETATM    8  C   UNL     2      -6.479  18.067  69.397  1.00  0.00    -0.228 C  
HETATM    9  C   UNL     1      -8.193  15.223  69.945  1.00  0.00     0.140 C  
HETATM   10  N   UNL     1      -5.733  17.871  65.595  1.00  0.00    -0.173 NA 
HETATM   11  C   UNL     1      -6.644  16.302  67.896  1.00  0.00    -0.134 C  
HETATM   12  H   UNL     1      -4.836  17.412  65.441  1.00  0.00     0.000 HD 
HETATM   13  O   UNL     1      -5.721  15.493  68.020  1.00  0.00    -0.117 OA 
HETATM   14  N   UNL     1      -8.082  16.263  68.959  1.00  0.00    -0.235 N  
HETATM   15  C   UNL     1      -6.244  18.897  64.940  1.00  0.00    -0.225 A  
HETATM   16  C   UNL     1      -9.456  17.372  68.847  1.00  0.00    -0.201 C  
HETATM   17 CL   UNL     1      -5.419  19.772  63.731  1.00  0.00    -0.267 Cl 
HETATM   18  N   UNL     1      -7.518  19.336  65.254  1.00  0.00    -0.302 NA 
ENDROOT
BRANCH   4  19
HETATM   19  C   UNL     2      -8.555  16.676  67.079  1.00  0.00    -0.195 C  
BRANCH  19  20
HETATM   20  C   UNL     2     -10.029  16.618  66.135  1.00  0.00    -0.337 C  
BRANCH  20  21
HETATM   21  O   UNL     2     -11.017  15.790  66.765  1.00  0.00    -0.293 OA 
BRANCH  21  22
HETATM   22  C   UNL     2     -10.584  14.395  66.827  1.00  0.00    -0.282 C  
BRANCH  22  23
HETATM   23  C   UNL     2     -10.924  13.778  68.192  1.00  0.00    -0.265 A  
HETATM   24  C   UNL     2     -11.668  14.537  69.120  1.00  0.00    -0.349 A  
HETATM   25  C   UNL     2     -10.744  12.413  68.466  1.00  0.00    -0.262 A  
HETATM   26  C   UNL     2     -12.281  13.930  70.222  1.00  0.00    -0.428 A  
HETATM   27  C   UNL     2     -12.134  12.563  70.439  1.00  0.00    -0.380 A  
HETATM   28  C   UNL     2     -11.341  11.812  69.578  1.00  0.00    -0.317 A  
ENDBRANCH  22  23
BRANCH  22  29
HETATM   29  C   UNL     2     -11.136  13.719  65.582  1.00  0.00    -0.297 A  
HETATM   30  C   UNL     2     -12.134  12.186  63.436  1.00  0.00    -0.608 A  
HETATM   31  C   UNL     2     -10.789  12.537  63.474  1.00  0.00    -0.443 A  
HETATM   32  C   UNL     2     -12.500  13.389  65.503  1.00  0.00    -0.534 A  
HETATM   33  C   UNL     2     -10.294  13.279  64.548  1.00  0.00    -0.394 A  
HETATM   34  C   UNL     2     -12.991  12.614  64.446  1.00  0.00    -0.232 A  
ENDBRANCH  22  29
ENDBRANCH  21  22
ENDBRANCH  20  21
ENDBRANCH  19  20
ENDBRANCH   4  19
TORSDOF 6
ENDMDL
MODEL       21
REMARK 921   NORMALIZED FREE ENERGY PREDICTED BY IDOCK:   -6.16 KCAL/MOL
REMARK 922        TOTAL FREE ENERGY PREDICTED BY IDOCK:   -6.70 KCAL/MOL
REMARK 923 INTER-LIGAND FREE ENERGY PREDICTED BY IDOCK:   -9.20 KCAL/MOL
REMARK 924 INTRA-LIGAND FREE ENERGY PREDICTED BY IDOCK:    2.50 KCAL/MOL
REMARK 927      BINDING AFFINITY PREDICTED BY RF-SCORE:    0.00 PKD
ROOT
HETATM    1  C   UNL     1      -7.612  11.897  68.803  1.00  0.00    -0.090 C  
HETATM    2  N   UNL     1      -8.380  10.775  68.251  1.00  0.00    -0.120 N  
HETATM    3  C   UNL     2      -6.875   9.463  67.197  1.00  0.00    -0.084 C  
HETATM    4  N   UNL     2      -8.390   8.916  67.288  1.00  0.00    -0.104 NA 
HETATM    5  C   UNL     1      -9.084  10.753  66.605  1.00  0.00    -0.159 A  
HETATM    6  O   UNL     1      -7.804   9.195  70.371  1.00  0.00    -0.098 OA 
HETATM    7  C   UNL     1      -9.980   9.474  66.054  1.00  0.00    -0.278 A  
HETATM    8  C   UNL     2      -8.005   7.434  66.757  1.00  0.00    -0.115 C  
HETATM    9  C   UNL     1      -9.730   6.830  69.582  1.00  0.00    -0.155 C  
HETATM   10  N   UNL     1     -10.407   9.768  64.797  1.00  0.00    -0.101 NA 
HETATM   11  C   UNL     1     -10.251   7.935  67.079  1.00  0.00    -0.312 C  
HETATM   12  H   UNL     1     -11.015   9.213  64.195  1.00  0.00     0.000 HD 
HETATM   13  O   UNL     1     -10.992   7.022  66.708  1.00  0.00    -0.317 OA 
HETATM   14  N   UNL     1      -9.451   7.913  68.679  1.00  0.00    -0.149 N  
HETATM   15  C   UNL     1      -9.853  10.937  64.537  1.00  0.00    -0.300 A  
HETATM   16  C   UNL     1      -8.385   9.181  69.298  1.00  0.00    -0.123 C  
HETATM   17 CL   UNL     1      -9.952  11.732  63.031  1.00  0.00    -0.366 Cl 
HETATM   18  N   UNL     1      -9.110  11.570  65.517  1.00  0.00    -0.147 NA 
ENDROOT
BRANCH   4  19
HETATM   19  C   UNL     2     -10.085   9.725  68.188  1.00  0.00    -0.165 C  
BRANCH  19  20
HETATM   20  C   UNL     2     -10.888  11.279  68.107  1.00  0.00    -0.217 C  
BRANCH  20  21
HETATM   21  O   UNL     2     -12.106  11.274  68.865  1.00  0.00    -0.455 OA 
BRANCH  21  22
HETATM   22  C   UNL     2     -11.864  11.604  70.269  1.00  0.00    -0.326 C  
BRANCH  22  23
HETATM   23  C   UNL     2     -12.538  12.932  70.641  1.00  0.00    -0.256 A  
HETATM   24  C   UNL     2     -13.374  12.981  71.776  1.00  0.00    -0.468 A  
HETATM   25  C   UNL     2     -12.170  14.153  70.053  1.00  0.00    -0.418 A  
HETATM   26  C   UNL     2     -13.745  14.205  72.348  1.00  0.00    -0.645 A  
HETATM   27  C   UNL     2     -13.317  15.400  71.777  1.00  0.00    -0.567 A  
HETATM   28  C   UNL     2     -12.555  15.374  70.615  1.00  0.00    -0.491 A  
ENDBRANCH  22  23
BRANCH  22  29
HETATM   29  C   UNL     2     -12.237  10.366  71.071  1.00  0.00    -0.498 A  
HETATM   30  C   UNL     2     -12.863   7.901  72.289  1.00  0.00    -0.152 A  
HETATM   31  C   UNL     2     -13.875   8.690  71.754  1.00  0.00    -0.472 A  
HETATM   32  C   UNL     2     -11.233   9.573  71.654  1.00  0.00    -0.378 A  
HETATM   33  C   UNL     2     -13.560   9.901  71.134  1.00  0.00    -0.223 A  
HETATM   34  C   UNL     2     -11.544   8.343  72.244  1.00  0.00    -0.453 A  
ENDBRANCH  22  29
ENDBRANCH  21  22
ENDBRANCH  20  21
ENDBRANCH  19  20
ENDBRANCH   4  19
TORSDOF 6
ENDMDL
MODEL       22
REMARK 921   NORMALIZED FREE ENERGY PREDICTED BY IDOCK:   -6.13 KCAL/MOL
REMARK 922        TOTAL FREE ENERGY PREDICTED BY IDOCK:   -6.66 KCAL/MOL
REMARK 923 INTER-LIGAND FREE ENERGY PREDICTED BY IDOCK:   -8.77 KCAL/MOL
REMARK 924 INTRA-LIGAND FREE ENERGY PREDICTED BY IDOCK:    2.11 KCAL/MOL
REMARK 927      BINDING AFFINITY PREDICTED BY RF-SCORE:    0.00 PKD
ROOT
HETATM    1  C   UNL     1      -6.889  11.265  68.922  1.00  0.00    -0.086 C  
HETATM    2  N   UNL     1      -7.853  10.300  68.381  1.00  0.00    -0.099 N  
HETATM    3  C   UNL     2      -6.665   8.943  67.023  1.00  0.00    -0.069 C  
HETATM    4  N   UNL     2      -8.213   8.563  67.268  1.00  0.00    -0.108 NA 
HETATM    5  C   UNL     1      -8.751  10.528  66.848  1.00  0.00    -0.127 A  
HETATM    6  O   UNL     1      -7.224   8.455  70.257  1.00  0.00    -0.042 OA 
HETATM    7  C   UNL     1      -9.860   9.422  66.312  1.00  0.00    -0.281 A  
HETATM    8  C   UNL     2      -8.086   7.111  66.562  1.00  0.00    -0.114 C  
HETATM    9  C   UNL     1      -9.513   6.416  69.528  1.00  0.00    -0.145 C  
HETATM   10  N   UNL     1     -10.399   9.891  65.155  1.00  0.00    -0.168 NA 
HETATM   11  C   UNL     1     -10.194   7.826  67.224  1.00  0.00    -0.273 C  
HETATM   12  H   UNL     1     -11.140   9.474  64.593  1.00  0.00     0.000 HD 
HETATM   13  O   UNL     1     -11.084   7.046  66.878  1.00  0.00    -0.359 OA 
HETATM   14  N   UNL     1      -9.214   7.548  68.695  1.00  0.00    -0.144 N  
HETATM   15  C   UNL     1      -9.738  11.010  64.927  1.00  0.00    -0.254 A  
HETATM   16  C   UNL     1      -7.929   8.617  69.274  1.00  0.00    -0.103 C  
HETATM   17 CL   UNL     1      -9.920  11.964  63.523  1.00  0.00    -0.420 Cl 
HETATM   18  N   UNL     1      -8.807  11.451  65.851  1.00  0.00    -0.182 NA 
ENDROOT
BRANCH   4  19
HETATM   19  C   UNL     2      -9.671   9.461  68.454  1.00  0.00    -0.149 C  
BRANCH  19  20
HETATM   20  C   UNL     2     -10.939  10.633  68.157  1.00  0.00    -0.269 C  
BRANCH  20  21
HETATM   21  O   UNL     2     -10.869  11.721  69.089  1.00  0.00    -0.224 OA 
BRANCH  21  22
HETATM   22  C   UNL     2     -11.915  12.710  68.836  1.00  0.00    -0.242 C  
BRANCH  22  23
HETATM   23  C   UNL     2     -12.368  13.373  70.144  1.00  0.00    -0.322 A  
HETATM   24  C   UNL     2     -12.593  14.766  70.164  1.00  0.00    -0.319 A  
HETATM   25  C   UNL     2     -12.802  12.630  71.254  1.00  0.00    -0.344 A  
HETATM   26  C   UNL     2     -13.308  15.367  71.208  1.00  0.00    -0.598 A  
HETATM   27  C   UNL     2     -13.778  14.597  72.267  1.00  0.00    -0.565 A  
HETATM   28  C   UNL     2     -13.500  13.235  72.304  1.00  0.00    -0.679 A  
ENDBRANCH  22  23
BRANCH  22  29
HETATM   29  C   UNL     2     -11.396  13.608  67.723  1.00  0.00    -0.336 A  
HETATM   30  C   UNL     2     -10.335  15.002  65.513  1.00  0.00    -0.397 A  
HETATM   31  C   UNL     2      -9.579  14.853  66.671  1.00  0.00    -0.284 A  
HETATM   32  C   UNL     2     -12.160  13.806  66.560  1.00  0.00    -0.483 A  
HETATM   33  C   UNL     2     -10.099  14.146  67.756  1.00  0.00    -0.239 A  
HETATM   34  C   UNL     2     -11.626  14.483  65.458  1.00  0.00    -0.350 A  
ENDBRANCH  22  29
ENDBRANCH  21  22
ENDBRANCH  20  21
ENDBRANCH  19  20
ENDBRANCH   4  19
TORSDOF 6
ENDMDL
MODEL       23
REMARK 921   NORMALIZED FREE ENERGY PREDICTED BY IDOCK:   -6.11 KCAL/MOL
REMARK 922        TOTAL FREE ENERGY PREDICTED BY IDOCK:   -6.64 KCAL/MOL
REMARK 923 INTER-LIGAND FREE ENERGY PREDICTED BY IDOCK:   -9.66 KCAL/MOL
REMARK 924 INTRA-LIGAND FREE ENERGY PREDICTED BY IDOCK:    3.02 KCAL/MOL
REMARK 927      BINDING AFFINITY PREDICTED BY RF-SCORE:    0.00 PKD
ROOT
HETATM    1  C   UNL     1      -6.405  14.524  68.488  1.00  0.00    -0.088 C  
HETATM    2  N   UNL     1      -7.192  15.711  68.132  1.00  0.00    -0.111 N  
HETATM    3  C   UNL     2      -6.513  17.341  69.538  1.00  0.00    -0.207 C  
HETATM    4  N   UNL     2      -7.551  17.759  68.377  1.00  0.00    -0.260 NA 
HETATM    5  C   UNL     1      -8.757  16.143  68.888  1.00  0.00    -0.248 A  
HETATM    6  O   UNL     1      -5.218  16.681  66.556  1.00  0.00    -0.356 OA 
HETATM    7  C   UNL     1      -9.620  17.473  68.411  1.00  0.00    -0.303 A  
HETATM    8  C   UNL     2      -7.389  19.348  68.648  1.00  0.00    -0.340 C  
HETATM    9  C   UNL     1      -6.880  19.063  65.334  1.00  0.00    -0.183 C  
HETATM   10  N   UNL     1     -10.771  17.510  69.133  1.00  0.00    -0.344 NA 
HETATM   11  C   UNL     1      -8.987  18.656  67.111  1.00  0.00    -0.281 C  
HETATM   12  H   UNL     1     -11.541  18.174  69.054  1.00  0.00     0.000 HD 
HETATM   13  O   UNL     1      -9.668  19.594  66.689  1.00  0.00    -0.336 OA 
HETATM   14  N   UNL     1      -7.371  18.284  66.438  1.00  0.00    -0.232 N  
HETATM   15  C   UNL     1     -10.661  16.489  69.961  1.00  0.00    -0.221 A  
HETATM   16  C   UNL     1      -6.332  16.956  66.971  1.00  0.00    -0.194 C  
HETATM   17 CL   UNL     1     -11.781  16.130  71.198  1.00  0.00    -0.475 Cl 
HETATM   18  N   UNL     1      -9.562  15.654  69.868  1.00  0.00    -0.198 NA 
ENDROOT
BRANCH   4  19
HETATM   19  C   UNL     2      -8.407  16.644  66.840  1.00  0.00    -0.210 C  
BRANCH  19  20
HETATM   20  C   UNL     2      -9.976  15.906  66.592  1.00  0.00    -0.257 C  
BRANCH  20  21
HETATM   21  O   UNL     2      -9.921  14.487  66.801  1.00  0.00    -0.252 OA 
BRANCH  21  22
HETATM   22  C   UNL     2     -11.250  13.884  66.718  1.00  0.00    -0.318 C  
BRANCH  22  23
HETATM   23  C   UNL     2     -11.480  13.258  65.335  1.00  0.00    -0.328 A  
HETATM   24  C   UNL     2     -10.362  12.937  64.535  1.00  0.00    -0.380 A  
HETATM   25  C   UNL     2     -12.731  12.764  64.931  1.00  0.00    -0.479 A  
HETATM   26  C   UNL     2     -10.486  12.082  63.433  1.00  0.00    -0.474 A  
HETATM   27  C   UNL     2     -11.729  11.561  63.089  1.00  0.00     0.022 A  
HETATM   28  C   UNL     2     -12.854  11.925  63.819  1.00  0.00    -0.396 A  
ENDBRANCH  22  23
BRANCH  22  29
HETATM   29  C   UNL     2     -11.391  12.987  67.939  1.00  0.00    -0.327 A  
HETATM   30  C   UNL     2     -11.947  11.252  70.091  1.00  0.00    -0.452 A  
HETATM   31  C   UNL     2     -12.144  12.621  70.232  1.00  0.00    -0.372 A  
HETATM   32  C   UNL     2     -11.160  11.605  67.830  1.00  0.00    -0.309 A  
HETATM   33  C   UNL     2     -11.886  13.475  69.159  1.00  0.00    -0.386 A  
HETATM   34  C   UNL     2     -11.453  10.743  68.893  1.00  0.00    -0.362 A  
ENDBRANCH  22  29
ENDBRANCH  21  22
ENDBRANCH  20  21
ENDBRANCH  19  20
ENDBRANCH   4  19
TORSDOF 6
ENDMDL
MODEL       24
REMARK 921   NORMALIZED FREE ENERGY PREDICTED BY IDOCK:   -6.11 KCAL/MOL
REMARK 922        TOTAL FREE ENERGY PREDICTED BY IDOCK:   -6.63 KCAL/MOL
REMARK 923 INTER-LIGAND FREE ENERGY PREDICTED BY IDOCK:   -9.90 KCAL/MOL
REMARK 924 INTRA-LIGAND FREE ENERGY PREDICTED BY IDOCK:    3.27 KCAL/MOL
REMARK 927      BINDING AFFINITY PREDICTED BY RF-SCORE:    0.00 PKD
ROOT
HETATM    1  C   UNL     1     -10.104  20.165  68.186  1.00  0.00    -0.359 C  
HETATM    2  N   UNL     1      -9.282  18.989  67.877  1.00  0.00    -0.295 N  
HETATM    3  C   UNL     2      -7.945  19.609  66.166  1.00  0.00    -0.343 C  
HETATM    4  N   UNL     2      -7.689  18.152  66.807  1.00  0.00    -0.216 NA 
HETATM    5  C   UNL     1      -9.723  17.744  66.668  1.00  0.00    -0.313 A  
HETATM    6  O   UNL     1      -7.230  19.890  69.393  1.00  0.00    -0.301 OA 
HETATM    7  C   UNL     1      -8.774  16.415  66.395  1.00  0.00    -0.319 A  
HETATM    8  C   UNL     2      -6.298  17.922  66.008  1.00  0.00    -0.253 C  
HETATM    9  C   UNL     1      -5.480  17.276  69.208  1.00  0.00    -0.174 C  
HETATM   10  N   UNL     1      -9.389  15.641  65.462  1.00  0.00    -0.323 NA 
HETATM   11  C   UNL     1      -7.142  16.163  67.269  1.00  0.00    -0.196 C  
HETATM   12  H   UNL     1      -9.092  14.734  65.104  1.00  0.00     0.000 HD 
HETATM   13  O   UNL     1      -6.479  15.131  67.137  1.00  0.00    -0.291 OA 
HETATM   14  N   UNL     1      -6.648  17.465  68.392  1.00  0.00    -0.174 N  
HETATM   15  C   UNL     1     -10.459  16.336  65.127  1.00  0.00    -0.227 A  
HETATM   16  C   UNL     1      -7.541  18.969  68.656  1.00  0.00    -0.337 C  
HETATM   17 CL   UNL     1     -11.544  15.891  63.887  1.00  0.00     0.069 Cl 
HETATM   18  N   UNL     1     -10.731  17.524  65.781  1.00  0.00    -0.385 NA 
ENDROOT
BRANCH   4  19
HETATM   19  C   UNL     2      -8.609  17.176  68.400  1.00  0.00    -0.246 C  
BRANCH  19  20
HETATM   20  C   UNL     2      -9.959  16.069  68.541  1.00  0.00    -0.222 C  
BRANCH  20  21
HETATM   21  O   UNL     2      -9.590  14.892  69.273  1.00  0.00    -0.195 OA 
BRANCH  21  22
HETATM   22  C   UNL     2     -10.711  13.958  69.383  1.00  0.00    -0.015 C  
BRANCH  22  23
HETATM   23  C   UNL     2     -11.812  14.532  70.286  1.00  0.00    -0.373 A  
HETATM   24  C   UNL     2     -12.909  13.714  70.633  1.00  0.00    -0.224 A  
HETATM   25  C   UNL     2     -11.661  15.743  70.980  1.00  0.00    -0.462 A  
HETATM   26  C   UNL     2     -13.757  14.056  71.693  1.00  0.00    -0.419 A  
HETATM   27  C   UNL     2     -13.549  15.235  72.402  1.00  0.00    -0.592 A  
HETATM   28  C   UNL     2     -12.520  16.091  72.027  1.00  0.00    -0.498 A  
ENDBRANCH  22  23
BRANCH  22  29
HETATM   29  C   UNL     2     -11.085  13.570  67.961  1.00  0.00    -0.283 A  
HETATM   30  C   UNL     2     -12.014  12.667  65.456  1.00  0.00    -0.509 A  
HETATM   31  C   UNL     2     -10.938  12.035  66.068  1.00  0.00    -0.346 A  
HETATM   32  C   UNL     2     -12.145  14.221  67.306  1.00  0.00    -0.390 A  
HETATM   33  C   UNL     2     -10.493  12.472  67.317  1.00  0.00    -0.232 A  
HETATM   34  C   UNL     2     -12.616  13.761  66.071  1.00  0.00    -0.458 A  
ENDBRANCH  22  29
ENDBRANCH  21  22
ENDBRANCH  20  21
ENDBRANCH  19  20
ENDBRANCH   4  19
TORSDOF 6
ENDMDL
MODEL       25
REMARK 921   NORMALIZED FREE ENERGY PREDICTED BY IDOCK:   -6.08 KCAL/MOL
REMARK 922        TOTAL FREE ENERGY PREDICTED BY IDOCK:   -6.59 KCAL/MOL
REMARK 923 INTER-LIGAND FREE ENERGY PREDICTED BY IDOCK:   -8.81 KCAL/MOL
REMARK 924 INTRA-LIGAND FREE ENERGY PREDICTED BY IDOCK:    2.22 KCAL/MOL
REMARK 927      BINDING AFFINITY PREDICTED BY RF-SCORE:    0.00 PKD
ROOT
HETATM    1  C   UNL     1     -10.653   8.161  72.273  1.00  0.00    -0.309 C  
HETATM    2  N   UNL     1     -10.053   8.135  70.934  1.00  0.00    -0.187 N  
HETATM    3  C   UNL     2      -8.698   6.329  70.906  1.00  0.00    -0.136 C  
HETATM    4  N   UNL     2      -8.880   7.132  69.519  1.00  0.00    -0.137 NA 
HETATM    5  C   UNL     1      -8.498   8.917  70.514  1.00  0.00    -0.177 A  
HETATM    6  O   UNL     1     -11.896   6.375  70.023  1.00  0.00    -0.404 OA 
HETATM    7  C   UNL     1      -7.893   8.890  68.973  1.00  0.00    -0.091 A  
HETATM    8  C   UNL     2      -8.137   5.996  68.634  1.00  0.00    -0.107 C  
HETATM    9  C   UNL     1     -11.032   6.496  66.995  1.00  0.00    -0.396 C  
HETATM   10  N   UNL     1      -6.732   9.598  68.962  1.00  0.00    -0.049 NA 
HETATM   11  C   UNL     1      -8.748   7.976  67.585  1.00  0.00    -0.126 C  
HETATM   12  H   UNL     1      -6.134   9.811  68.165  1.00  0.00     0.000 HD 
HETATM   13  O   UNL     1      -8.349   8.032  66.420  1.00  0.00    -0.114 OA 
HETATM   14  N   UNL     1     -10.242   7.100  68.032  1.00  0.00    -0.176 N  
HETATM   15  C   UNL     1      -6.559   9.944  70.224  1.00  0.00    -0.116 A  
HETATM   16  C   UNL     1     -10.895   6.979  69.672  1.00  0.00    -0.247 C  
HETATM   17 CL   UNL     1      -5.177  10.752  70.816  1.00  0.00    -0.082 Cl 
HETATM   18  N   UNL     1      -7.525   9.618  71.158  1.00  0.00    -0.295 NA 
ENDROOT
BRANCH   4  19
HETATM   19  C   UNL     2     -10.041   8.794  69.042  1.00  0.00    -0.198 C  
BRANCH  19  20
HETATM   20  C   UNL     2      -9.895  10.093  67.877  1.00  0.00    -0.151 C  
BRANCH  20  21
HETATM   21  O   UNL     2     -10.003  11.375  68.513  1.00  0.00    -0.190 OA 
BRANCH  21  22
HETATM   22  C   UNL     2     -11.365  11.900  68.428  1.00  0.00    -0.276 C  
BRANCH  22  23
HETATM   23  C   UNL     2     -11.911  12.230  69.825  1.00  0.00    -0.388 A  
HETATM   24  C   UNL     2     -12.198  13.573  70.149  1.00  0.00    -0.400 A  
HETATM   25  C   UNL     2     -12.367  11.237  70.707  1.00  0.00    -0.495 A  
HETATM   26  C   UNL     2     -12.989  13.894  71.258  1.00  0.00    -0.414 A  
HETATM   27  C   UNL     2     -13.477  12.885  72.084  1.00  0.00    -0.619 A  
HETATM   28  C   UNL     2     -13.142  11.561  71.825  1.00  0.00    -0.503 A  
ENDBRANCH  22  23
BRANCH  22  29
HETATM   29  C   UNL     2     -11.330  13.016  67.395  1.00  0.00    -0.347 A  
HETATM   30  C   UNL     2     -11.165  14.861  65.268  1.00  0.00    -0.369 A  
HETATM   31  C   UNL     2     -10.113  14.741  66.169  1.00  0.00    -0.312 A  
HETATM   32  C   UNL     2     -12.400  13.182  66.498  1.00  0.00    -0.252 A  
HETATM   33  C   UNL     2     -10.189  13.813  67.209  1.00  0.00    -0.253 A  
HETATM   34  C   UNL     2     -12.309  14.086  65.433  1.00  0.00    -0.495 A  
ENDBRANCH  22  29
ENDBRANCH  21  22
ENDBRANCH  20  21
ENDBRANCH  19  20
ENDBRANCH   4  19
TORSDOF 6
ENDMDL
MODEL       26
REMARK 921   NORMALIZED FREE ENERGY PREDICTED BY IDOCK:   -6.08 KCAL/MOL
REMARK 922        TOTAL FREE ENERGY PREDICTED BY IDOCK:   -6.59 KCAL/MOL
REMARK 923 INTER-LIGAND FREE ENERGY PREDICTED BY IDOCK:   -8.61 KCAL/MOL
REMARK 924 INTRA-LIGAND FREE ENERGY PREDICTED BY IDOCK:    2.02 KCAL/MOL
REMARK 927      BINDING AFFINITY PREDICTED BY RF-SCORE:    0.00 PKD
ROOT
HETATM    1  C   UNL     1     -10.783  10.756  64.866  1.00  0.00    -0.096 C  
HETATM    2  N   UNL     1      -9.937  10.734  66.065  1.00  0.00    -0.233 N  
HETATM    3  C   UNL     2      -9.561   8.553  66.511  1.00  0.00    -0.236 C  
HETATM    4  N   UNL     2      -8.779   9.633  67.419  1.00  0.00    -0.128 NA 
HETATM    5  C   UNL     1     -10.568  10.644  67.739  1.00  0.00    -0.236 A  
HETATM    6  O   UNL     1      -7.675  10.501  64.599  1.00  0.00    -0.099 OA 
HETATM    7  C   UNL     1      -9.563  10.668  69.055  1.00  0.00    -0.195 A  
HETATM    8  C   UNL     2      -7.815   8.526  68.104  1.00  0.00    -0.103 C  
HETATM    9  C   UNL     1      -5.661  10.862  66.996  1.00  0.00    -0.059 C  
HETATM   10  N   UNL     1     -10.334  10.629  70.175  1.00  0.00    -0.403 NA 
HETATM   11  C   UNL     1      -7.703  10.711  68.885  1.00  0.00    -0.121 C  
HETATM   12  H   UNL     1     -10.030  10.675  71.147  1.00  0.00     0.000 HD 
HETATM   13  O   UNL     1      -6.958  10.822  69.861  1.00  0.00    -0.149 OA 
HETATM   14  N   UNL     1      -7.072  10.686  67.211  1.00  0.00    -0.087 N  
HETATM   15  C   UNL     1     -11.564  10.518  69.711  1.00  0.00    -0.294 A  
HETATM   16  C   UNL     1      -8.065  10.544  65.755  1.00  0.00    -0.158 C  
HETATM   17 CL   UNL     1     -12.943  10.299  70.692  1.00  0.00    -0.392 Cl 
HETATM   18  N   UNL     1     -11.781  10.543  68.345  1.00  0.00    -0.363 NA 
ENDROOT
BRANCH   4  19
HETATM   19  C   UNL     2      -8.759  11.715  67.356  1.00  0.00    -0.155 C  
BRANCH  19  20
HETATM   20  C   UNL     2      -8.395  12.970  68.523  1.00  0.00    -0.057 C  
BRANCH  20  21
HETATM   21  O   UNL     2      -9.195  14.139  68.294  1.00  0.00    -0.188 OA 
BRANCH  21  22
HETATM   22  C   UNL     2     -10.623  13.826  68.334  1.00  0.00    -0.253 C  
BRANCH  22  23
HETATM   23  C   UNL     2     -11.257  14.337  69.636  1.00  0.00    -0.256 A  
HETATM   24  C   UNL     2     -10.780  15.538  70.204  1.00  0.00    -0.345 A  
HETATM   25  C   UNL     2     -12.447  13.802  70.154  1.00  0.00    -0.332 A  
HETATM   26  C   UNL     2     -11.517  16.216  71.182  1.00  0.00    -0.433 A  
HETATM   27  C   UNL     2     -12.724  15.691  71.636  1.00  0.00    -0.522 A  
HETATM   28  C   UNL     2     -13.173  14.471  71.144  1.00  0.00    -0.423 A  
ENDBRANCH  22  23
BRANCH  22  29
HETATM   29  C   UNL     2     -11.206  14.315  67.017  1.00  0.00    -0.332 A  
HETATM   30  C   UNL     2     -12.120  14.982  64.434  1.00  0.00    -0.373 A  
HETATM   31  C   UNL     2     -11.035  15.655  64.984  1.00  0.00    -0.445 A  
HETATM   32  C   UNL     2     -12.327  13.675  66.460  1.00  0.00    -0.412 A  
HETATM   33  C   UNL     2     -10.573  15.310  66.255  1.00  0.00    -0.312 A  
HETATM   34  C   UNL     2     -12.769  13.996  65.171  1.00  0.00    -0.419 A  
ENDBRANCH  22  29
ENDBRANCH  21  22
ENDBRANCH  20  21
ENDBRANCH  19  20
ENDBRANCH   4  19
TORSDOF 6
ENDMDL
MODEL       27
REMARK 921   NORMALIZED FREE ENERGY PREDICTED BY IDOCK:   -6.07 KCAL/MOL
REMARK 922        TOTAL FREE ENERGY PREDICTED BY IDOCK:   -6.59 KCAL/MOL
REMARK 923 INTER-LIGAND FREE ENERGY PREDICTED BY IDOCK:   -8.42 KCAL/MOL
REMARK 924 INTRA-LIGAND FREE ENERGY PREDICTED BY IDOCK:    1.84 KCAL/MOL
REMARK 927      BINDING AFFINITY PREDICTED BY RF-SCORE:    0.00 PKD
ROOT
HETATM    1  C   UNL     1      -5.207  18.010  65.908  1.00  0.00    -0.193 C  
HETATM    2  N   UNL     1      -6.519  17.823  66.537  1.00  0.00    -0.186 N  
HETATM    3  C   UNL     2      -6.603  19.310  68.234  1.00  0.00    -0.249 C  
HETATM    4  N   UNL     2      -7.944  18.468  67.928  1.00  0.00    -0.250 NA 
HETATM    5  C   UNL     1      -6.827  16.714  67.909  1.00  0.00    -0.144 A  
HETATM    6  O   UNL     1      -7.610  19.853  65.119  1.00  0.00    -0.291 OA 
HETATM    7  C   UNL     1      -8.341  16.513  68.548  1.00  0.00    -0.210 A  
HETATM    8  C   UNL     2      -8.867  19.366  68.912  1.00  0.00    -0.288 C  
HETATM    9  C   UNL     1     -10.588  19.353  66.021  1.00  0.00    -0.480 C  
HETATM   10  N   UNL     1      -8.261  15.585  69.539  1.00  0.00    -0.242 NA 
HETATM   11  C   UNL     1      -9.816  17.484  67.936  1.00  0.00    -0.293 C  
HETATM   12  H   UNL     1      -9.019  15.201  70.101  1.00  0.00     0.000 HD 
HETATM   13  O   UNL     1     -10.959  17.269  68.346  1.00  0.00    -0.312 OA 
HETATM   14  N   UNL     1      -9.484  18.674  66.642  1.00  0.00    -0.309 N  
HETATM   15  C   UNL     1      -6.975  15.298  69.603  1.00  0.00    -0.188 A  
HETATM   16  C   UNL     1      -7.883  19.036  65.984  1.00  0.00    -0.204 C  
HETATM   17 CL   UNL     1      -6.278  14.269  70.773  1.00  0.00    -0.172 Cl 
HETATM   18  N   UNL     1      -6.102  15.877  68.699  1.00  0.00    -0.099 NA 
ENDROOT
BRANCH   4  19
HETATM   19  C   UNL     2      -8.365  17.048  66.464  1.00  0.00    -0.278 C  
BRANCH  19  20
HETATM   20  C   UNL     2      -9.527  15.745  66.323  1.00  0.00    -0.317 C  
BRANCH  20  21
HETATM   21  O   UNL     2      -8.873  14.487  66.102  1.00  0.00    -0.061 OA 
BRANCH  21  22
HETATM   22  C   UNL     2      -9.621  13.383  66.701  1.00  0.00    -0.270 C  
BRANCH  22  23
HETATM   23  C   UNL     2     -10.558  12.737  65.671  1.00  0.00    -0.297 A  
HETATM   24  C   UNL     2     -11.939  13.024  65.727  1.00  0.00    -0.482 A  
HETATM   25  C   UNL     2     -10.079  12.072  64.531  1.00  0.00    -0.293 A  
HETATM   26  C   UNL     2     -12.779  12.739  64.643  1.00  0.00    -0.439 A  
HETATM   27  C   UNL     2     -12.266  12.132  63.501  1.00  0.00    -0.670 A  
HETATM   28  C   UNL     2     -10.924  11.772  63.457  1.00  0.00    -0.499 A  
ENDBRANCH  22  23
BRANCH  22  29
HETATM   29  C   UNL     2      -8.595  12.494  67.388  1.00  0.00    -0.187 A  
HETATM   30  C   UNL     2      -6.708  11.053  68.910  1.00  0.00    -0.074 A  
HETATM   31  C   UNL     2      -6.280  11.958  67.946  1.00  0.00    -0.061 A  
HETATM   32  C   UNL     2      -9.008  11.544  68.339  1.00  0.00    -0.173 A  
HETATM   33  C   UNL     2      -7.216  12.684  67.207  1.00  0.00    -0.106 A  
HETATM   34  C   UNL     2      -8.071  10.843  69.105  1.00  0.00    -0.104 A  
ENDBRANCH  22  29
ENDBRANCH  21  22
ENDBRANCH  20  21
ENDBRANCH  19  20
ENDBRANCH   4  19
TORSDOF 6
ENDMDL
MODEL       28
REMARK 921   NORMALIZED FREE ENERGY PREDICTED BY IDOCK:   -6.04 KCAL/MOL
REMARK 922        TOTAL FREE ENERGY PREDICTED BY IDOCK:   -6.54 KCAL/MOL
REMARK 923 INTER-LIGAND FREE ENERGY PREDICTED BY IDOCK:   -9.13 KCAL/MOL
REMARK 924 INTRA-LIGAND FREE ENERGY PREDICTED BY IDOCK:    2.59 KCAL/MOL
REMARK 927      BINDING AFFINITY PREDICTED BY RF-SCORE:    0.00 PKD
ROOT
HETATM    1  C   UNL     1     -12.784  11.675  63.712  1.00  0.00    -0.099 C  
HETATM    2  N   UNL     1     -11.916  12.131  64.803  1.00  0.00    -0.340 N  
HETATM    3  C   UNL     2     -10.434  13.547  63.856  1.00  0.00     0.382 C  
HETATM    4  N   UNL     2     -10.389  13.404  65.462  1.00  0.00    -0.289 NA 
HETATM    5  C   UNL     1     -10.381  11.333  65.267  1.00  0.00    -0.280 A  
HETATM    6  O   UNL     1     -13.366  14.388  65.161  1.00  0.00    -0.542 OA 
HETATM    7  C   UNL     1      -9.466  11.870  66.539  1.00  0.00    -0.217 A  
HETATM    8  C   UNL     2      -9.381  14.657  65.657  1.00  0.00     0.097 C  
HETATM    9  C   UNL     1     -11.899  15.339  67.782  1.00  0.00    -0.093 C  
HETATM   10  N   UNL     1      -8.394  11.043  66.666  1.00  0.00    -0.150 NA 
HETATM   11  C   UNL     1      -9.927  13.388  67.525  1.00  0.00    -0.230 C  
HETATM   12  H   UNL     1      -7.663  11.068  67.376  1.00  0.00     0.000 HD 
HETATM   13  O   UNL     1      -9.298  13.735  68.528  1.00  0.00    -0.198 OA 
HETATM   14  N   UNL     1     -11.400  14.250  66.988  1.00  0.00    -0.326 N  
HETATM   15  C   UNL     1      -8.521  10.200  65.659  1.00  0.00    -0.153 A  
HETATM   16  C   UNL     1     -12.370  13.816  65.574  1.00  0.00    -0.475 C  
HETATM   17 CL   UNL     1      -7.371   9.005  65.256  1.00  0.00    -0.091 Cl 
HETATM   18  N   UNL     1      -9.630  10.284  64.837  1.00  0.00    -0.278 NA 
ENDROOT
BRANCH   4  19
HETATM   19  C   UNL     2     -11.563  12.287  66.770  1.00  0.00    -0.369 C  
BRANCH  19  20
HETATM   20  C   UNL     2     -11.222  11.083  67.995  1.00  0.00    -0.309 C  
BRANCH  20  21
HETATM   21  O   UNL     2     -12.271  11.025  68.972  1.00  0.00    -0.483 OA 
BRANCH  21  22
HETATM   22  C   UNL     2     -11.747  11.171  70.329  1.00  0.00    -0.341 C  
BRANCH  22  23
HETATM   23  C   UNL     2     -12.420  12.347  71.050  1.00  0.00    -0.353 A  
HETATM   24  C   UNL     2     -12.215  13.656  70.565  1.00  0.00    -0.438 A  
HETATM   25  C   UNL     2     -13.424  12.162  72.015  1.00  0.00    -0.388 A  
HETATM   26  C   UNL     2     -13.044  14.712  70.964  1.00  0.00    -0.427 A  
HETATM   27  C   UNL     2     -14.068  14.488  71.879  1.00  0.00    -0.595 A  
HETATM   28  C   UNL     2     -14.239  13.222  72.426  1.00  0.00    -0.334 A  
ENDBRANCH  22  23
BRANCH  22  29
HETATM   29  C   UNL     2     -11.834   9.795  70.973  1.00  0.00    -0.442 A  
HETATM   30  C   UNL     2     -11.884   7.128  71.886  1.00  0.00    -0.336 A  
HETATM   31  C   UNL     2     -13.041   7.714  71.383  1.00  0.00    -0.339 A  
HETATM   32  C   UNL     2     -10.686   9.198  71.522  1.00  0.00    -0.437 A  
HETATM   33  C   UNL     2     -13.008   9.028  70.915  1.00  0.00     0.043 A  
HETATM   34  C   UNL     2     -10.708   7.869  71.959  1.00  0.00    -0.299 A  
ENDBRANCH  22  29
ENDBRANCH  21  22
ENDBRANCH  20  21
ENDBRANCH  19  20
ENDBRANCH   4  19
TORSDOF 6
ENDMDL
MODEL       29
REMARK 921   NORMALIZED FREE ENERGY PREDICTED BY IDOCK:   -6.02 KCAL/MOL
REMARK 922        TOTAL FREE ENERGY PREDICTED BY IDOCK:   -6.52 KCAL/MOL
REMARK 923 INTER-LIGAND FREE ENERGY PREDICTED BY IDOCK:   -8.62 KCAL/MOL
REMARK 924 INTRA-LIGAND FREE ENERGY PREDICTED BY IDOCK:    2.10 KCAL/MOL
REMARK 927      BINDING AFFINITY PREDICTED BY RF-SCORE:    0.00 PKD
ROOT
HETATM    1  C   UNL     1     -10.952   6.502  67.604  1.00  0.00    -0.337 C  
HETATM    2  N   UNL     1     -10.233   7.698  68.057  1.00  0.00    -0.194 N  
HETATM    3  C   UNL     2      -8.044   7.147  68.022  1.00  0.00    -0.120 C  
HETATM    4  N   UNL     2      -8.410   8.681  68.364  1.00  0.00    -0.125 NA 
HETATM    5  C   UNL     1      -9.801   8.026  69.764  1.00  0.00    -0.183 A  
HETATM    6  O   UNL     1      -9.749   8.501  65.519  1.00  0.00     0.059 OA 
HETATM    7  C   UNL     1      -9.028   9.417  70.219  1.00  0.00    -0.240 A  
HETATM    8  C   UNL     2      -6.876   9.189  68.252  1.00  0.00    -0.065 C  
HETATM    9  C   UNL     1      -8.555  11.320  66.262  1.00  0.00    -0.172 C  
HETATM   10  N   UNL     1      -8.877   9.394  71.570  1.00  0.00    -0.266 NA 
HETATM   11  C   UNL     1      -8.482  10.703  68.977  1.00  0.00    -0.145 C  
HETATM   12  H   UNL     1      -8.481  10.117  72.169  1.00  0.00     0.000 HD 
HETATM   13  O   UNL     1      -7.989  11.780  69.321  1.00  0.00     0.123 OA 
HETATM   14  N   UNL     1      -8.813  10.320  67.261  1.00  0.00    -0.132 N  
HETATM   15  C   UNL     1      -9.361   8.219  71.924  1.00  0.00    -0.216 A  
HETATM   16  C   UNL     1      -9.527   8.810  66.678  1.00  0.00    -0.203 C  
HETATM   17 CL   UNL     1      -9.311   7.600  73.514  1.00  0.00    -0.315 Cl 
HETATM   18  N   UNL     1      -9.924   7.398  70.964  1.00  0.00    -0.184 NA 
ENDROOT
BRANCH   4  19
HETATM   19  C   UNL     2     -10.245   9.660  68.462  1.00  0.00    -0.193 C  
BRANCH  19  20
HETATM   20  C   UNL     2     -11.071  10.589  69.696  1.00  0.00    -0.283 C  
BRANCH  20  21
HETATM   21  O   UNL     2     -11.939  11.571  69.112  1.00  0.00    -0.321 OA 
BRANCH  21  22
HETATM   22  C   UNL     2     -11.442  12.927  69.342  1.00  0.00    -0.260 C  
BRANCH  22  23
HETATM   23  C   UNL     2     -11.189  13.648  68.010  1.00  0.00    -0.295 A  
HETATM   24  C   UNL     2     -10.003  14.398  67.851  1.00  0.00    -0.228 A  
HETATM   25  C   UNL     2     -11.957  13.398  66.862  1.00  0.00    -0.437 A  
HETATM   26  C   UNL     2      -9.566  14.795  66.582  1.00  0.00    -0.289 A  
HETATM   27  C   UNL     2     -10.318  14.483  65.454  1.00  0.00    -0.405 A  
HETATM   28  C   UNL     2     -11.527  13.812  65.597  1.00  0.00    -0.318 A  
ENDBRANCH  22  23
BRANCH  22  29
HETATM   29  C   UNL     2     -12.399  13.573  70.331  1.00  0.00    -0.397 A  
HETATM   30  C   UNL     2     -13.918  14.813  72.358  1.00  0.00    -0.575 A  
HETATM   31  C   UNL     2     -13.858  13.426  72.283  1.00  0.00    -0.671 A  
HETATM   32  C   UNL     2     -12.506  14.973  70.400  1.00  0.00    -0.407 A  
HETATM   33  C   UNL     2     -13.090  12.815  71.290  1.00  0.00    -0.245 A  
HETATM   34  C   UNL     2     -13.246  15.587  71.417  1.00  0.00    -0.587 A  
ENDBRANCH  22  29
ENDBRANCH  21  22
ENDBRANCH  20  21
ENDBRANCH  19  20
ENDBRANCH   4  19
TORSDOF 6
ENDMDL
MODEL       30
REMARK 921   NORMALIZED FREE ENERGY PREDICTED BY IDOCK:   -6.00 KCAL/MOL
REMARK 922        TOTAL FREE ENERGY PREDICTED BY IDOCK:   -6.49 KCAL/MOL
REMARK 923 INTER-LIGAND FREE ENERGY PREDICTED BY IDOCK:   -8.85 KCAL/MOL
REMARK 924 INTRA-LIGAND FREE ENERGY PREDICTED BY IDOCK:    2.36 KCAL/MOL
REMARK 927      BINDING AFFINITY PREDICTED BY RF-SCORE:    0.00 PKD
ROOT
HETATM    1  C   UNL     1     -10.529   7.788  66.914  1.00  0.00    -0.317 C  
HETATM    2  N   UNL     1      -9.636   8.381  67.915  1.00  0.00    -0.153 N  
HETATM    3  C   UNL     2      -8.217   6.734  68.523  1.00  0.00    -0.120 C  
HETATM    4  N   UNL     2      -7.938   8.203  69.127  1.00  0.00    -0.111 NA 
HETATM    5  C   UNL     1      -9.938   8.345  69.680  1.00  0.00    -0.193 A  
HETATM    6  O   UNL     1      -7.733   8.908  66.064  1.00  0.00    -0.095 OA 
HETATM    7  C   UNL     1      -8.913   9.072  70.758  1.00  0.00    -0.236 A  
HETATM    8  C   UNL     2      -6.488   7.803  69.729  1.00  0.00    -0.034 C  
HETATM    9  C   UNL     1      -5.857  10.592  67.955  1.00  0.00    -0.043 C  
HETATM   10  N   UNL     1      -9.428   8.909  72.005  1.00  0.00    -0.347 NA 
HETATM   11  C   UNL     1      -7.333   9.910  70.217  1.00  0.00    -0.157 C  
HETATM   12  H   UNL     1      -9.067   9.274  72.886  1.00  0.00     0.000 HD 
HETATM   13  O   UNL     1      -6.617  10.531  71.006  1.00  0.00    -0.326 OA 
HETATM   14  N   UNL     1      -6.976   9.847  68.465  1.00  0.00    -0.066 N  
HETATM   15  C   UNL     1     -10.504   8.170  71.812  1.00  0.00    -0.242 A  
HETATM   16  C   UNL     1      -7.952   8.994  67.261  1.00  0.00    -0.099 C  
HETATM   17 CL   UNL     1     -11.482   7.551  73.066  1.00  0.00    -0.315 Cl 
HETATM   18  N   UNL     1     -10.872   7.830  70.523  1.00  0.00    -0.238 NA 
ENDROOT
BRANCH   4  19
HETATM   19  C   UNL     2      -8.917  10.016  68.825  1.00  0.00    -0.145 C  
BRANCH  19  20
HETATM   20  C   UNL     2      -8.395  11.631  68.394  1.00  0.00    -0.157 C  
BRANCH  20  21
HETATM   21  O   UNL     2      -9.513  12.521  68.264  1.00  0.00    -0.210 OA 
BRANCH  21  22
HETATM   22  C   UNL     2     -10.768  11.784  68.124  1.00  0.00    -0.214 C  
BRANCH  22  23
HETATM   23  C   UNL     2     -11.736  12.135  69.264  1.00  0.00    -0.386 A  
HETATM   24  C   UNL     2     -12.285  11.094  70.041  1.00  0.00    -0.402 A  
HETATM   25  C   UNL     2     -11.909  13.450  69.725  1.00  0.00    -0.393 A  
HETATM   26  C   UNL     2     -12.897  11.359  71.273  1.00  0.00    -0.481 A  
HETATM   27  C   UNL     2     -13.004  12.667  71.733  1.00  0.00    -0.417 A  
HETATM   28  C   UNL     2     -12.537  13.714  70.946  1.00  0.00    -0.421 A  
ENDBRANCH  22  23
BRANCH  22  29
HETATM   29  C   UNL     2     -11.239  12.006  66.695  1.00  0.00    -0.380 A  
HETATM   30  C   UNL     2     -11.857  12.614  64.012  1.00  0.00    -0.507 A  
HETATM   31  C   UNL     2     -12.481  13.306  65.044  1.00  0.00    -0.498 A  
HETATM   32  C   UNL     2     -10.650  11.290  65.638  1.00  0.00    -0.303 A  
HETATM   33  C   UNL     2     -12.159  13.015  66.371  1.00  0.00    -0.428 A  
HETATM   34  C   UNL     2     -10.945  11.605  64.307  1.00  0.00    -0.418 A  
ENDBRANCH  22  29
ENDBRANCH  21  22
ENDBRANCH  20  21
ENDBRANCH  19  20
ENDBRANCH   4  19
TORSDOF 6
ENDMDL
MODEL       31
REMARK 921   NORMALIZED FREE ENERGY PREDICTED BY IDOCK:   -5.99 KCAL/MOL
REMARK 922        TOTAL FREE ENERGY PREDICTED BY IDOCK:   -6.47 KCAL/MOL
REMARK 923 INTER-LIGAND FREE ENERGY PREDICTED BY IDOCK:   -9.27 KCAL/MOL
REMARK 924 INTRA-LIGAND FREE ENERGY PREDICTED BY IDOCK:    2.80 KCAL/MOL
REMARK 927      BINDING AFFINITY PREDICTED BY RF-SCORE:    0.00 PKD
ROOT
HETATM    1  C   UNL     1      -6.427  11.679  69.490  1.00  0.00    -0.122 C  
HETATM    2  N   UNL     1      -7.365  11.423  68.391  1.00  0.00    -0.089 N  
HETATM    3  C   UNL     2      -6.109  11.360  66.516  1.00  0.00    -0.121 C  
HETATM    4  N   UNL     2      -7.672  10.993  66.364  1.00  0.00    -0.153 NA 
HETATM    5  C   UNL     1      -8.167  12.707  67.434  1.00  0.00    -0.184 A  
HETATM    6  O   UNL     1      -6.866   8.764  68.439  1.00  0.00    -0.063 OA 
HETATM    7  C   UNL     1      -9.251  12.355  66.233  1.00  0.00    -0.150 A  
HETATM    8  C   UNL     2      -7.514  10.456  64.844  1.00  0.00    -0.065 C  
HETATM    9  C   UNL     1      -9.124   7.944  66.400  1.00  0.00    -0.179 C  
HETATM   10  N   UNL     1      -9.714  13.528  65.725  1.00  0.00    -0.475 NA 
HETATM   11  C   UNL     1      -9.653  10.598  65.740  1.00  0.00    -0.210 C  
HETATM   12  H   UNL     1     -10.424  13.664  65.006  1.00  0.00     0.000 HD 
HETATM   13  O   UNL     1     -10.527  10.333  64.911  1.00  0.00    -0.212 OA 
HETATM   14  N   UNL     1      -8.765   9.318  66.621  1.00  0.00    -0.126 N  
HETATM   15  C   UNL     1      -9.032  14.450  66.378  1.00  0.00    -0.088 A  
HETATM   16  C   UNL     1      -7.509   9.605  67.832  1.00  0.00    -0.083 C  
HETATM   17 CL   UNL     1      -9.120  16.122  66.051  1.00  0.00    -0.376 Cl 
HETATM   18  N   UNL     1      -8.155  14.066  67.377  1.00  0.00    -0.184 NA 
ENDROOT
BRANCH   4  19
HETATM   19  C   UNL     2      -9.191  10.865  67.783  1.00  0.00    -0.153 C  
BRANCH  19  20
HETATM   20  C   UNL     2     -10.695  11.724  68.046  1.00  0.00    -0.208 C  
BRANCH  20  21
HETATM   21  O   UNL     2     -10.800  12.184  69.401  1.00  0.00    -0.122 OA 
BRANCH  21  22
HETATM   22  C   UNL     2     -12.120  11.898  69.961  1.00  0.00    -0.291 C  
BRANCH  22  23
HETATM   23  C   UNL     2     -12.120  10.552  70.698  1.00  0.00    -0.452 A  
HETATM   24  C   UNL     2     -10.886   9.938  71.004  1.00  0.00    -0.300 A  
HETATM   25  C   UNL     2     -13.274  10.022  71.299  1.00  0.00    -0.469 A  
HETATM   26  C   UNL     2     -10.809   8.902  71.943  1.00  0.00    -0.433 A  
HETATM   27  C   UNL     2     -11.962   8.436  72.566  1.00  0.00    -0.418 A  
HETATM   28  C   UNL     2     -13.196   8.976  72.222  1.00  0.00    -0.519 A  
ENDBRANCH  22  23
BRANCH  22  29
HETATM   29  C   UNL     2     -12.533  13.138  70.740  1.00  0.00    -0.389 A  
HETATM   30  C   UNL     2     -13.579  15.421  72.023  1.00  0.00    -0.588 A  
HETATM   31  C   UNL     2     -12.747  15.563  70.918  1.00  0.00    -0.525 A  
HETATM   32  C   UNL     2     -13.342  13.017  71.883  1.00  0.00    -0.539 A  
HETATM   33  C   UNL     2     -12.247  14.430  70.273  1.00  0.00    -0.397 A  
HETATM   34  C   UNL     2     -13.874  14.150  72.508  1.00  0.00    -0.590 A  
ENDBRANCH  22  29
ENDBRANCH  21  22
ENDBRANCH  20  21
ENDBRANCH  19  20
ENDBRANCH   4  19
TORSDOF 6
ENDMDL
MODEL       32
REMARK 921   NORMALIZED FREE ENERGY PREDICTED BY IDOCK:   -5.98 KCAL/MOL
REMARK 922        TOTAL FREE ENERGY PREDICTED BY IDOCK:   -6.46 KCAL/MOL
REMARK 923 INTER-LIGAND FREE ENERGY PREDICTED BY IDOCK:   -8.94 KCAL/MOL
REMARK 924 INTRA-LIGAND FREE ENERGY PREDICTED BY IDOCK:    2.48 KCAL/MOL
REMARK 927      BINDING AFFINITY PREDICTED BY RF-SCORE:    0.00 PKD
ROOT
HETATM    1  C   UNL     1      -7.892  11.881  68.653  1.00  0.00    -0.104 C  
HETATM    2  N   UNL     1      -9.088  12.166  67.852  1.00  0.00    -0.178 N  
HETATM    3  C   UNL     2      -8.630  14.064  66.719  1.00  0.00    -0.055 C  
HETATM    4  N   UNL     2     -10.018  13.320  66.374  1.00  0.00    -0.282 NA 
HETATM    5  C   UNL     1     -10.446  13.195  68.405  1.00  0.00    -0.253 A  
HETATM    6  O   UNL     1      -8.039  10.976  65.660  1.00  0.00    -0.113 OA 
HETATM    7  C   UNL     1     -11.791  13.443  67.472  1.00  0.00    -0.366 A  
HETATM    8  C   UNL     2     -10.318  14.241  65.075  1.00  0.00    -0.421 C  
HETATM    9  C   UNL     1     -10.651  11.105  63.903  1.00  0.00    -0.364 C  
HETATM   10  N   UNL     1     -12.653  14.226  68.174  1.00  0.00    -0.312 NA 
HETATM   11  C   UNL     1     -11.952  12.734  65.751  1.00  0.00    -0.449 C  
HETATM   12  H   UNL     1     -13.589  14.527  67.905  1.00  0.00     0.000 HD 
HETATM   13  O   UNL     1     -12.989  12.841  65.092  1.00  0.00    -0.768 OA 
HETATM   14  N   UNL     1     -10.546  11.801  65.157  1.00  0.00    -0.273 N  
HETATM   15  C   UNL     1     -11.997  14.506  69.285  1.00  0.00    -0.319 A  
HETATM   16  C   UNL     1      -9.027  11.584  66.037  1.00  0.00    -0.176 C  
HETATM   17 CL   UNL     1     -12.563  15.571  70.492  1.00  0.00    -0.471 Cl 
HETATM   18  N   UNL     1     -10.753  13.941  69.500  1.00  0.00    -0.022 NA 
ENDROOT
BRANCH   4  19
HETATM   19  C   UNL     2     -10.841  11.550  67.100  1.00  0.00    -0.268 C  
BRANCH  19  20
HETATM   20  C   UNL     2     -10.278   9.895  67.209  1.00  0.00    -0.222 C  
BRANCH  20  21
HETATM   21  O   UNL     2     -10.251   9.444  68.571  1.00  0.00    -0.185 OA 
BRANCH  21  22
HETATM   22  C   UNL     2     -10.896   8.139  68.715  1.00  0.00     0.063 C  
BRANCH  22  23
HETATM   23  C   UNL     2     -10.182   7.082  67.861  1.00  0.00    -0.224 A  
HETATM   24  C   UNL     2      -8.885   6.664  68.229  1.00  0.00    -0.124 A  
HETATM   25  C   UNL     2     -10.849   6.334  66.877  1.00  0.00    -0.428 A  
HETATM   26  C   UNL     2      -8.327   5.494  67.701  1.00  0.00    -0.100 A  
HETATM   27  C   UNL     2      -9.035   4.740  66.770  1.00  0.00    -0.111 A  
HETATM   28  C   UNL     2     -10.282   5.176  66.337  1.00  0.00    -0.303 A  
ENDBRANCH  22  23
BRANCH  22  29
HETATM   29  C   UNL     2     -11.018   7.884  70.210  1.00  0.00    -0.249 A  
HETATM   30  C   UNL     2     -10.965   7.250  72.957  1.00  0.00    -0.388 A  
HETATM   31  C   UNL     2     -11.694   6.461  72.074  1.00  0.00    -0.376 A  
HETATM   32  C   UNL     2     -10.321   8.693  71.124  1.00  0.00    -0.294 A  
HETATM   33  C   UNL     2     -11.703   6.766  70.712  1.00  0.00    -0.439 A  
HETATM   34  C   UNL     2     -10.281   8.367  72.484  1.00  0.00    -0.369 A  
ENDBRANCH  22  29
ENDBRANCH  21  22
ENDBRANCH  20  21
ENDBRANCH  19  20
ENDBRANCH   4  19
TORSDOF 6
ENDMDL
MODEL       33
REMARK 921   NORMALIZED FREE ENERGY PREDICTED BY IDOCK:   -5.98 KCAL/MOL
REMARK 922        TOTAL FREE ENERGY PREDICTED BY IDOCK:   -6.46 KCAL/MOL
REMARK 923 INTER-LIGAND FREE ENERGY PREDICTED BY IDOCK:   -8.46 KCAL/MOL
REMARK 924 INTRA-LIGAND FREE ENERGY PREDICTED BY IDOCK:    2.00 KCAL/MOL
REMARK 927      BINDING AFFINITY PREDICTED BY RF-SCORE:    0.00 PKD
ROOT
HETATM    1  C   UNL     1      -7.547  15.746  69.880  1.00  0.00     0.204 C  
HETATM    2  N   UNL     1      -8.768  15.458  69.119  1.00  0.00    -0.227 N  
HETATM    3  C   UNL     2      -9.586  17.466  68.488  1.00  0.00    -0.298 C  
HETATM    4  N   UNL     2     -10.334  16.157  67.916  1.00  0.00    -0.269 NA 
HETATM    5  C   UNL     1     -10.405  15.369  69.840  1.00  0.00    -0.285 A  
HETATM    6  O   UNL     1      -7.459  15.601  66.755  1.00  0.00    -0.179 OA 
HETATM    7  C   UNL     1     -11.740  14.995  68.934  1.00  0.00    -0.328 A  
HETATM    8  C   UNL     2     -11.234  16.994  66.861  1.00  0.00     0.446 C  
HETATM    9  C   UNL     1      -9.845  14.584  64.967  1.00  0.00    -0.021 C  
HETATM   10  N   UNL     1     -12.817  14.964  69.764  1.00  0.00    -0.593 NA 
HETATM   11  C   UNL     1     -11.645  14.719  67.089  1.00  0.00    -0.359 C  
HETATM   12  H   UNL     1     -13.780  14.723  69.533  1.00  0.00     0.000 HD 
HETATM   13  O   UNL     1     -12.620  14.351  66.429  1.00  0.00    -0.334 OA 
HETATM   14  N   UNL     1     -10.027  14.920  66.352  1.00  0.00    -0.262 N  
HETATM   15  C   UNL     1     -12.327  15.320  70.936  1.00  0.00    -0.377 A  
HETATM   16  C   UNL     1      -8.573  15.431  67.222  1.00  0.00    -0.195 C  
HETATM   17 CL   UNL     1     -13.271  15.572  72.335  1.00  0.00    -0.496 Cl 
HETATM   18  N   UNL     1     -10.968  15.542  71.066  1.00  0.00    -0.330 NA 
ENDROOT
BRANCH   4  19
HETATM   19  C   UNL     2      -9.927  14.129  68.167  1.00  0.00    -0.232 C  
BRANCH  19  20
HETATM   20  C   UNL     2      -8.479  13.151  68.061  1.00  0.00    -0.181 C  
BRANCH  20  21
HETATM   21  O   UNL     2      -8.700  11.837  68.595  1.00  0.00    -0.143 OA 
BRANCH  21  22
HETATM   22  C   UNL     2     -10.015  11.321  68.216  1.00  0.00    -0.195 C  
BRANCH  22  23
HETATM   23  C   UNL     2      -9.949  10.604  66.860  1.00  0.00    -0.245 A  
HETATM   24  C   UNL     2     -10.642  11.153  65.760  1.00  0.00    -0.289 A  
HETATM   25  C   UNL     2      -9.037   9.568  66.600  1.00  0.00    -0.179 A  
HETATM   26  C   UNL     2     -10.360  10.742  64.451  1.00  0.00    -0.405 A  
HETATM   27  C   UNL     2      -9.410   9.753  64.219  1.00  0.00    -0.253 A  
HETATM   28  C   UNL     2      -8.771   9.147  65.294  1.00  0.00    -0.219 A  
ENDBRANCH  22  23
BRANCH  22  29
HETATM   29  C   UNL     2     -10.529  10.537  69.413  1.00  0.00    -0.264 A  
HETATM   30  C   UNL     2     -11.353   9.314  71.817  1.00  0.00    -0.437 A  
HETATM   31  C   UNL     2     -10.176   8.909  71.197  1.00  0.00    -0.336 A  
HETATM   32  C   UNL     2     -11.736  10.904  70.033  1.00  0.00    -0.427 A  
HETATM   33  C   UNL     2      -9.761   9.528  70.018  1.00  0.00    -0.271 A  
HETATM   34  C   UNL     2     -12.135  10.308  71.235  1.00  0.00    -0.479 A  
ENDBRANCH  22  29
ENDBRANCH  21  22
ENDBRANCH  20  21
ENDBRANCH  19  20
ENDBRANCH   4  19
TORSDOF 6
ENDMDL
MODEL       34
REMARK 921   NORMALIZED FREE ENERGY PREDICTED BY IDOCK:   -5.97 KCAL/MOL
REMARK 922        TOTAL FREE ENERGY PREDICTED BY IDOCK:   -6.44 KCAL/MOL
REMARK 923 INTER-LIGAND FREE ENERGY PREDICTED BY IDOCK:   -8.84 KCAL/MOL
REMARK 924 INTRA-LIGAND FREE ENERGY PREDICTED BY IDOCK:    2.40 KCAL/MOL
REMARK 927      BINDING AFFINITY PREDICTED BY RF-SCORE:    0.00 PKD
ROOT
HETATM    1  C   UNL     1      -9.691   5.791  67.734  1.00  0.00    -0.119 C  
HETATM    2  N   UNL     1      -9.480   6.372  69.065  1.00  0.00    -0.130 N  
HETATM    3  C   UNL     2      -9.351   4.621  70.485  1.00  0.00    -0.155 C  
HETATM    4  N   UNL     2      -9.062   6.085  71.097  1.00  0.00    -0.146 NA 
HETATM    5  C   UNL     1     -10.800   6.791  70.200  1.00  0.00    -0.266 A  
HETATM    6  O   UNL     1      -6.799   6.037  68.906  1.00  0.00    -0.061 OA 
HETATM    7  C   UNL     1     -10.500   7.487  71.672  1.00  0.00    -0.200 A  
HETATM    8  C   UNL     2      -8.515   5.509  72.509  1.00  0.00    -0.118 C  
HETATM    9  C   UNL     1      -6.088   7.626  71.533  1.00  0.00    -0.035 C  
HETATM   10  N   UNL     1     -11.694   7.722  72.279  1.00  0.00    -0.323 NA 
HETATM   11  C   UNL     1      -8.764   7.808  72.285  1.00  0.00    -0.133 C  
HETATM   12  H   UNL     1     -11.864   8.179  73.174  1.00  0.00     0.000 HD 
HETATM   13  O   UNL     1      -8.541   8.408  73.339  1.00  0.00    -0.303 OA 
HETATM   14  N   UNL     1      -7.444   7.284  71.198  1.00  0.00    -0.078 N  
HETATM   15  C   UNL     1     -12.582   7.221  71.441  1.00  0.00    -0.388 A  
HETATM   16  C   UNL     1      -7.670   6.431  69.665  1.00  0.00    -0.103 C  
HETATM   17 CL   UNL     1     -14.256   7.128  71.758  1.00  0.00    -0.523 Cl 
HETATM   18  N   UNL     1     -12.157   6.698  70.233  1.00  0.00    -0.270 NA 
ENDROOT
BRANCH   4  19
HETATM   19  C   UNL     2      -9.012   7.961  70.193  1.00  0.00    -0.151 C  
BRANCH  19  20
HETATM   20  C   UNL     2      -9.510   9.567  70.682  1.00  0.00    -0.213 C  
BRANCH  20  21
HETATM   21  O   UNL     2      -9.674  10.428  69.546  1.00  0.00    -0.219 OA 
BRANCH  21  22
HETATM   22  C   UNL     2     -11.056  10.421  69.066  1.00  0.00    -0.248 C  
BRANCH  22  23
HETATM   23  C   UNL     2     -11.924  11.382  69.891  1.00  0.00    -0.434 A  
HETATM   24  C   UNL     2     -12.765  10.856  70.894  1.00  0.00    -0.464 A  
HETATM   25  C   UNL     2     -11.740  12.774  69.862  1.00  0.00    -0.321 A  
HETATM   26  C   UNL     2     -13.318  11.684  71.879  1.00  0.00    -0.403 A  
HETATM   27  C   UNL     2     -13.072  13.053  71.860  1.00  0.00    -0.483 A  
HETATM   28  C   UNL     2     -12.309  13.601  70.835  1.00  0.00    -0.450 A  
ENDBRANCH  22  23
BRANCH  22  29
HETATM   29  C   UNL     2     -10.988  10.633  67.562  1.00  0.00    -0.371 A  
HETATM   30  C   UNL     2     -10.590  11.193  64.827  1.00  0.00    -0.371 A  
HETATM   31  C   UNL     2     -11.439  11.992  65.585  1.00  0.00    -0.372 A  
HETATM   32  C   UNL     2     -10.166   9.813  66.769  1.00  0.00    -0.300 A  
HETATM   33  C   UNL     2     -11.619  11.724  66.943  1.00  0.00    -0.310 A  
HETATM   34  C   UNL     2      -9.957  10.103  65.416  1.00  0.00    -0.377 A  
ENDBRANCH  22  29
ENDBRANCH  21  22
ENDBRANCH  20  21
ENDBRANCH  19  20
ENDBRANCH   4  19
TORSDOF 6
ENDMDL
MODEL       35
REMARK 921   NORMALIZED FREE ENERGY PREDICTED BY IDOCK:   -5.95 KCAL/MOL
REMARK 922        TOTAL FREE ENERGY PREDICTED BY IDOCK:   -6.42 KCAL/MOL
REMARK 923 INTER-LIGAND FREE ENERGY PREDICTED BY IDOCK:   -8.65 KCAL/MOL
REMARK 924 INTRA-LIGAND FREE ENERGY PREDICTED BY IDOCK:    2.24 KCAL/MOL
REMARK 927      BINDING AFFINITY PREDICTED BY RF-SCORE:    0.00 PKD
ROOT
HETATM    1  C   UNL     1     -10.343   8.404  72.215  1.00  0.00    -0.333 C  
HETATM    2  N   UNL     1      -9.885   8.414  70.821  1.00  0.00    -0.178 N  
HETATM    3  C   UNL     2      -8.425   6.701  70.643  1.00  0.00    -0.138 C  
HETATM    4  N   UNL     2      -8.802   7.488  69.287  1.00  0.00    -0.136 NA 
HETATM    5  C   UNL     1      -8.436   9.296  70.246  1.00  0.00    -0.203 A  
HETATM    6  O   UNL     1     -11.694   6.537  70.097  1.00  0.00    -0.418 OA 
HETATM    7  C   UNL     1      -7.994   9.306  68.650  1.00  0.00    -0.100 A  
HETATM    8  C   UNL     2      -8.083   6.402  68.324  1.00  0.00    -0.113 C  
HETATM    9  C   UNL     1     -11.159   6.709  66.996  1.00  0.00    -0.325 C  
HETATM   10  N   UNL     1      -6.889  10.088  68.523  1.00  0.00    -0.054 NA 
HETATM   11  C   UNL     1      -8.927   8.336  67.354  1.00  0.00    -0.134 C  
HETATM   12  H   UNL     1      -6.393  10.339  67.669  1.00  0.00     0.000 HD 
HETATM   13  O   UNL     1      -8.656   8.416  66.154  1.00  0.00    -0.125 OA 
HETATM   14  N   UNL     1     -10.307   7.365  67.949  1.00  0.00    -0.193 N  
HETATM   15  C   UNL     1      -6.609  10.447  69.761  1.00  0.00    -0.103 A  
HETATM   16  C   UNL     1     -10.776   7.204  69.647  1.00  0.00    -0.239 C  
HETATM   17 CL   UNL     1      -5.229  11.345  70.212  1.00  0.00    -0.080 Cl 
HETATM   18  N   UNL     1      -7.450  10.059  70.789  1.00  0.00    -0.232 NA 
ENDROOT
BRANCH   4  19
HETATM   19  C   UNL     2     -10.112   9.070  68.941  1.00  0.00    -0.196 C  
BRANCH  19  20
HETATM   20  C   UNL     2      -9.956  10.646  68.193  1.00  0.00    -0.158 C  
BRANCH  20  21
HETATM   21  O   UNL     2     -11.099  11.467  68.470  1.00  0.00    -0.201 OA 
BRANCH  21  22
HETATM   22  C   UNL     2     -10.763  12.889  68.409  1.00  0.00    -0.255 C  
BRANCH  22  23
HETATM   23  C   UNL     2     -10.940  13.430  66.983  1.00  0.00    -0.298 A  
HETATM   24  C   UNL     2     -12.174  13.237  66.326  1.00  0.00    -0.440 A  
HETATM   25  C   UNL     2     -10.024  14.317  66.395  1.00  0.00    -0.302 A  
HETATM   26  C   UNL     2     -12.506  13.975  65.183  1.00  0.00    -0.472 A  
HETATM   27  C   UNL     2     -11.601  14.891  64.655  1.00  0.00    -0.395 A  
HETATM   28  C   UNL     2     -10.350  15.040  65.244  1.00  0.00    -0.424 A  
ENDBRANCH  22  23
BRANCH  22  29
HETATM   29  C   UNL     2     -11.540  13.563  69.529  1.00  0.00    -0.355 A  
HETATM   30  C   UNL     2     -13.250  14.747  71.434  1.00  0.00    -0.442 A  
HETATM   31  C   UNL     2     -12.614  15.537  70.482  1.00  0.00    -0.462 A  
HETATM   32  C   UNL     2     -12.159  12.787  70.525  1.00  0.00    -0.369 A  
HETATM   33  C   UNL     2     -11.784  14.945  69.528  1.00  0.00    -0.353 A  
HETATM   34  C   UNL     2     -13.020  13.374  71.459  1.00  0.00    -0.429 A  
ENDBRANCH  22  29
ENDBRANCH  21  22
ENDBRANCH  20  21
ENDBRANCH  19  20
ENDBRANCH   4  19
TORSDOF 6
ENDMDL
MODEL       36
REMARK 921   NORMALIZED FREE ENERGY PREDICTED BY IDOCK:   -5.94 KCAL/MOL
REMARK 922        TOTAL FREE ENERGY PREDICTED BY IDOCK:   -6.41 KCAL/MOL
REMARK 923 INTER-LIGAND FREE ENERGY PREDICTED BY IDOCK:   -8.78 KCAL/MOL
REMARK 924 INTRA-LIGAND FREE ENERGY PREDICTED BY IDOCK:    2.37 KCAL/MOL
REMARK 927      BINDING AFFINITY PREDICTED BY RF-SCORE:    0.00 PKD
ROOT
HETATM    1  C   UNL     1      -6.866   8.944  68.014  1.00  0.00    -0.070 C  
HETATM    2  N   UNL     1      -8.100   8.355  68.545  1.00  0.00    -0.121 N  
HETATM    3  C   UNL     2      -7.462   6.507  69.674  1.00  0.00    -0.093 C  
HETATM    4  N   UNL     2      -9.019   6.919  69.761  1.00  0.00    -0.141 NA 
HETATM    5  C   UNL     1      -9.071   7.116  67.691  1.00  0.00    -0.127 A  
HETATM    6  O   UNL     1      -7.769   9.556  70.947  1.00  0.00    -0.287 OA 
HETATM    7  C   UNL     1     -10.482   6.522  68.323  1.00  0.00    -0.219 A  
HETATM    8  C   UNL     2      -9.351   5.855  70.936  1.00  0.00    -0.161 C  
HETATM    9  C   UNL     1     -10.575   8.751  72.134  1.00  0.00    -0.316 C  
HETATM   10  N   UNL     1     -11.003   5.637  67.432  1.00  0.00    -0.327 NA 
HETATM   11  C   UNL     1     -11.116   7.042  70.002  1.00  0.00    -0.278 C  
HETATM   12  H   UNL     1     -11.885   5.129  67.495  1.00  0.00     0.000 HD 
HETATM   13  O   UNL     1     -12.210   6.671  70.433  1.00  0.00    -0.332 OA 
HETATM   14  N   UNL     1     -10.086   8.195  70.902  1.00  0.00    -0.187 N  
HETATM   15  C   UNL     1     -10.104   5.588  66.467  1.00  0.00    -0.204 A  
HETATM   16  C   UNL     1      -8.512   8.789  70.355  1.00  0.00    -0.153 C  
HETATM   17 CL   UNL     1     -10.186   4.529  65.132  1.00  0.00    -0.177 Cl 
HETATM   18  N   UNL     1      -8.995   6.413  66.529  1.00  0.00    -0.141 NA 
ENDROOT
BRANCH   4  19
HETATM   19  C   UNL     2     -10.054   8.534  68.950  1.00  0.00    -0.203 C  
BRANCH  19  20
HETATM   20  C   UNL     2      -9.821  10.270  68.969  1.00  0.00    -0.207 C  
BRANCH  20  21
HETATM   21  O   UNL     2     -10.903  10.946  68.313  1.00  0.00    -0.192 OA 
BRANCH  21  22
HETATM   22  C   UNL     2     -10.466  12.215  67.731  1.00  0.00    -0.205 C  
BRANCH  22  23
HETATM   23  C   UNL     2     -10.910  12.324  66.266  1.00  0.00    -0.313 A  
HETATM   24  C   UNL     2     -10.231  11.567  65.287  1.00  0.00    -0.315 A  
HETATM   25  C   UNL     2     -12.110  12.948  65.887  1.00  0.00    -0.503 A  
HETATM   26  C   UNL     2     -10.784  11.371  64.015  1.00  0.00    -0.450 A  
HETATM   27  C   UNL     2     -12.004  11.954  63.686  1.00  0.00    -0.578 A  
HETATM   28  C   UNL     2     -12.651  12.765  64.611  1.00  0.00    -0.491 A  
ENDBRANCH  22  23
BRANCH  22  29
HETATM   29  C   UNL     2     -10.913  13.304  68.694  1.00  0.00    -0.294 A  
HETATM   30  C   UNL     2     -11.512  15.215  70.680  1.00  0.00    -0.345 A  
HETATM   31  C   UNL     2     -12.252  14.041  70.598  1.00  0.00    -0.442 A  
HETATM   32  C   UNL     2     -10.204  14.516  68.768  1.00  0.00    -0.244 A  
HETATM   33  C   UNL     2     -11.941  13.088  69.626  1.00  0.00    -0.367 A  
HETATM   34  C   UNL     2     -10.491  15.455  69.765  1.00  0.00    -0.303 A  
ENDBRANCH  22  29
ENDBRANCH  21  22
ENDBRANCH  20  21
ENDBRANCH  19  20
ENDBRANCH   4  19
TORSDOF 6
ENDMDL
MODEL       37
REMARK 921   NORMALIZED FREE ENERGY PREDICTED BY IDOCK:   -5.94 KCAL/MOL
REMARK 922        TOTAL FREE ENERGY PREDICTED BY IDOCK:   -6.41 KCAL/MOL
REMARK 923 INTER-LIGAND FREE ENERGY PREDICTED BY IDOCK:   -8.13 KCAL/MOL
REMARK 924 INTRA-LIGAND FREE ENERGY PREDICTED BY IDOCK:    1.72 KCAL/MOL
REMARK 927      BINDING AFFINITY PREDICTED BY RF-SCORE:    0.00 PKD
ROOT
HETATM    1  C   UNL     1     -12.702  11.820  63.876  1.00  0.00    -0.207 C  
HETATM    2  N   UNL     1     -11.825  12.283  64.958  1.00  0.00    -0.372 N  
HETATM    3  C   UNL     2     -10.593  13.956  64.075  1.00  0.00     0.456 C  
HETATM    4  N   UNL     2     -10.425  13.676  65.654  1.00  0.00    -0.291 NA 
HETATM    5  C   UNL     1     -10.177  11.650  65.258  1.00  0.00    -0.272 A  
HETATM    6  O   UNL     1     -13.514  14.294  65.612  1.00  0.00    -0.502 OA 
HETATM    7  C   UNL     1      -9.253  12.182  66.524  1.00  0.00    -0.216 A  
HETATM    8  C   UNL     2      -9.567  15.025  65.916  1.00  0.00    -0.321 C  
HETATM    9  C   UNL     1     -12.004  15.185  68.231  1.00  0.00    -0.159 C  
HETATM   10  N   UNL     1      -8.082  11.491  66.512  1.00  0.00    -0.278 NA 
HETATM   11  C   UNL     1      -9.830  13.534  67.678  1.00  0.00    -0.228 C  
HETATM   12  H   UNL     1      -7.314  11.545  67.180  1.00  0.00     0.000 HD 
HETATM   13  O   UNL     1      -9.184  13.866  68.674  1.00  0.00    -0.179 OA 
HETATM   14  N   UNL     1     -11.430  14.245  67.308  1.00  0.00    -0.333 N  
HETATM   15  C   UNL     1      -8.171  10.733  65.435  1.00  0.00    -0.077 A  
HETATM   16  C   UNL     1     -12.430  13.819  65.913  1.00  0.00    -0.468 C  
HETATM   17 CL   UNL     1      -6.912   9.737  64.856  1.00  0.00    -0.117 Cl 
HETATM   18  N   UNL     1      -9.334  10.748  64.687  1.00  0.00    -0.219 NA 
ENDROOT
BRANCH   4  19
HETATM   19  C   UNL     2     -11.366  12.305  66.908  1.00  0.00    -0.333 C  
BRANCH  19  20
HETATM   20  C   UNL     2     -11.200  11.882  68.600  1.00  0.00    -0.257 C  
BRANCH  20  21
HETATM   21  O   UNL     2     -11.321  10.465  68.794  1.00  0.00    -0.250 OA 
BRANCH  21  22
HETATM   22  C   UNL     2     -10.106   9.901  69.380  1.00  0.00    -0.212 C  
BRANCH  22  23
HETATM   23  C   UNL     2     -10.379   9.365  70.793  1.00  0.00    -0.366 A  
HETATM   24  C   UNL     2     -11.702   9.030  71.154  1.00  0.00    -0.366 A  
HETATM   25  C   UNL     2      -9.349   8.961  71.657  1.00  0.00    -0.328 A  
HETATM   26  C   UNL     2     -11.964   8.244  72.283  1.00  0.00    -0.448 A  
HETATM   27  C   UNL     2     -10.918   7.809  73.090  1.00  0.00    -0.372 A  
HETATM   28  C   UNL     2      -9.615   8.192  72.794  1.00  0.00    -0.353 A  
ENDBRANCH  22  23
BRANCH  22  29
HETATM   29  C   UNL     2      -9.540   8.937  68.349  1.00  0.00    -0.157 A  
HETATM   30  C   UNL     2      -8.609   6.911  66.622  1.00  0.00    -0.124 A  
HETATM   31  C   UNL     2      -7.756   7.465  67.570  1.00  0.00    -0.111 A  
HETATM   32  C   UNL     2     -10.375   8.394  67.357  1.00  0.00    -0.355 A  
HETATM   33  C   UNL     2      -8.225   8.454  68.436  1.00  0.00    -0.124 A  
HETATM   34  C   UNL     2      -9.917   7.377  66.512  1.00  0.00    -0.194 A  
ENDBRANCH  22  29
ENDBRANCH  21  22
ENDBRANCH  20  21
ENDBRANCH  19  20
ENDBRANCH   4  19
TORSDOF 6
ENDMDL
MODEL       38
REMARK 921   NORMALIZED FREE ENERGY PREDICTED BY IDOCK:   -5.94 KCAL/MOL
REMARK 922        TOTAL FREE ENERGY PREDICTED BY IDOCK:   -6.41 KCAL/MOL
REMARK 923 INTER-LIGAND FREE ENERGY PREDICTED BY IDOCK:   -8.99 KCAL/MOL
REMARK 924 INTRA-LIGAND FREE ENERGY PREDICTED BY IDOCK:    2.58 KCAL/MOL
REMARK 927      BINDING AFFINITY PREDICTED BY RF-SCORE:    0.00 PKD
ROOT
HETATM    1  C   UNL     1     -11.078   6.619  67.163  1.00  0.00    -0.357 C  
HETATM    2  N   UNL     1     -10.216   7.615  67.809  1.00  0.00    -0.188 N  
HETATM    3  C   UNL     2      -8.309   6.528  68.337  1.00  0.00    -0.117 C  
HETATM    4  N   UNL     2      -8.344   8.119  68.599  1.00  0.00    -0.125 NA 
HETATM    5  C   UNL     1     -10.168   7.908  69.575  1.00  0.00    -0.208 A  
HETATM    6  O   UNL     1      -8.907   8.142  65.500  1.00  0.00    -0.162 OA 
HETATM    7  C   UNL     1      -9.206   9.080  70.241  1.00  0.00    -0.202 A  
HETATM    8  C   UNL     2      -6.755   8.217  68.901  1.00  0.00    -0.053 C  
HETATM    9  C   UNL     1      -7.260  10.601  66.580  1.00  0.00    -0.128 C  
HETATM   10  N   UNL     1      -9.419   9.087  71.584  1.00  0.00    -0.300 NA 
HETATM   11  C   UNL     1      -8.049  10.122  69.209  1.00  0.00    -0.149 C  
HETATM   12  H   UNL     1      -9.018   9.716  72.279  1.00  0.00     0.000 HD 
HETATM   13  O   UNL     1      -7.401  11.055  69.689  1.00  0.00    -0.114 OA 
HETATM   14  N   UNL     1      -8.015   9.750  67.459  1.00  0.00    -0.105 N  
HETATM   15  C   UNL     1     -10.263   8.092  71.779  1.00  0.00    -0.212 A  
HETATM   16  C   UNL     1      -8.919   8.443  66.683  1.00  0.00    -0.151 C  
HETATM   17 CL   UNL     1     -10.784   7.561  73.315  1.00  0.00    -0.444 Cl 
HETATM   18  N   UNL     1     -10.752   7.393  70.690  1.00  0.00    -0.225 NA 
ENDROOT
BRANCH   4  19
HETATM   19  C   UNL     2      -9.827   9.535  68.232  1.00  0.00    -0.155 C  
BRANCH  19  20
HETATM   20  C   UNL     2     -10.481  10.883  69.139  1.00  0.00    -0.221 C  
BRANCH  20  21
HETATM   21  O   UNL     2     -10.352  12.111  68.409  1.00  0.00    -0.219 OA 
BRANCH  21  22
HETATM   22  C   UNL     2     -11.653  12.740  68.187  1.00  0.00    -0.336 C  
BRANCH  22  23
HETATM   23  C   UNL     2     -11.792  14.017  69.029  1.00  0.00    -0.391 A  
HETATM   24  C   UNL     2     -12.643  14.005  70.154  1.00  0.00    -0.310 A  
HETATM   25  C   UNL     2     -10.931  15.115  68.878  1.00  0.00    -0.256 A  
HETATM   26  C   UNL     2     -12.562  15.006  71.130  1.00  0.00    -0.416 A  
HETATM   27  C   UNL     2     -11.658  16.053  70.984  1.00  0.00    -0.472 A  
HETATM   28  C   UNL     2     -10.864  16.123  69.845  1.00  0.00    -0.355 A  
ENDBRANCH  22  23
BRANCH  22  29
HETATM   29  C   UNL     2     -11.820  12.859  66.679  1.00  0.00    -0.461 A  
HETATM   30  C   UNL     2     -11.836  13.217  63.882  1.00  0.00    -0.533 A  
HETATM   31  C   UNL     2     -12.462  14.145  64.707  1.00  0.00    -0.395 A  
HETATM   32  C   UNL     2     -11.229  11.910  65.827  1.00  0.00    -0.365 A  
HETATM   33  C   UNL     2     -12.436  13.975  66.092  1.00  0.00    -0.467 A  
HETATM   34  C   UNL     2     -11.223  12.098  64.440  1.00  0.00    -0.400 A  
ENDBRANCH  22  29
ENDBRANCH  21  22
ENDBRANCH  20  21
ENDBRANCH  19  20
ENDBRANCH   4  19
TORSDOF 6
ENDMDL
MODEL       39
REMARK 921   NORMALIZED FREE ENERGY PREDICTED BY IDOCK:   -5.91 KCAL/MOL
REMARK 922        TOTAL FREE ENERGY PREDICTED BY IDOCK:   -6.36 KCAL/MOL
REMARK 923 INTER-LIGAND FREE ENERGY PREDICTED BY IDOCK:   -8.73 KCAL/MOL
REMARK 924 INTRA-LIGAND FREE ENERGY PREDICTED BY IDOCK:    2.37 KCAL/MOL
REMARK 927      BINDING AFFINITY PREDICTED BY RF-SCORE:    0.00 PKD
ROOT
HETATM    1  C   UNL     1     -11.022   6.352  67.326  1.00  0.00    -0.392 C  
HETATM    2  N   UNL     1     -10.189   7.042  68.318  1.00  0.00    -0.174 N  
HETATM    3  C   UNL     2      -9.602   5.468  69.826  1.00  0.00    -0.163 C  
HETATM    4  N   UNL     2      -8.939   6.928  69.994  1.00  0.00    -0.142 NA 
HETATM    5  C   UNL     1     -10.823   7.792  69.815  1.00  0.00    -0.209 A  
HETATM    6  O   UNL     1      -7.902   6.272  67.093  1.00  0.00    -0.102 OA 
HETATM    7  C   UNL     1      -9.836   8.596  70.875  1.00  0.00    -0.205 A  
HETATM    8  C   UNL     2      -7.876   6.440  71.114  1.00  0.00    -0.114 C  
HETATM    9  C   UNL     1      -5.956   8.021  68.848  1.00  0.00    -0.039 C  
HETATM   10  N   UNL     1     -10.609   9.085  71.882  1.00  0.00    -0.349 NA 
HETATM   11  C   UNL     1      -7.988   8.708  70.625  1.00  0.00    -0.110 C  
HETATM   12  H   UNL     1     -10.320   9.664  72.670  1.00  0.00     0.000 HD 
HETATM   13  O   UNL     1      -7.266   9.383  71.362  1.00  0.00    -0.318 OA 
HETATM   14  N   UNL     1      -7.343   7.860  69.187  1.00  0.00    -0.082 N  
HETATM   15  C   UNL     1     -11.818   8.637  71.602  1.00  0.00    -0.323 A  
HETATM   16  C   UNL     1      -8.305   6.883  68.069  1.00  0.00    -0.121 C  
HETATM   17 CL   UNL     1     -13.177   8.847  72.613  1.00  0.00    -0.440 Cl 
HETATM   18  N   UNL     1     -12.025   7.919  70.438  1.00  0.00     0.043 NA 
ENDROOT
BRANCH   4  19
HETATM   19  C   UNL     2      -9.126   8.656  68.846  1.00  0.00    -0.145 C  
BRANCH  19  20
HETATM   20  C   UNL     2      -9.256  10.363  69.217  1.00  0.00    -0.184 C  
BRANCH  20  21
HETATM   21  O   UNL     2      -9.502  11.134  68.033  1.00  0.00    -0.163 OA 
BRANCH  21  22
HETATM   22  C   UNL     2     -10.935  11.306  67.796  1.00  0.00    -0.252 C  
BRANCH  22  23
HETATM   23  C   UNL     2     -11.547  12.264  68.827  1.00  0.00    -0.380 A  
HETATM   24  C   UNL     2     -12.241  11.729  69.933  1.00  0.00    -0.293 A  
HETATM   25  C   UNL     2     -11.241  13.635  68.855  1.00  0.00    -0.309 A  
HETATM   26  C   UNL     2     -12.529  12.516  71.054  1.00  0.00    -0.353 A  
HETATM   27  C   UNL     2     -12.162  13.858  71.079  1.00  0.00    -0.421 A  
HETATM   28  C   UNL     2     -11.545  14.423  69.969  1.00  0.00    -0.334 A  
ENDBRANCH  22  23
BRANCH  22  29
HETATM   29  C   UNL     2     -11.087  11.652  66.322  1.00  0.00    -0.345 A  
HETATM   30  C   UNL     2     -11.602  12.067  63.581  1.00  0.00    -0.578 A  
HETATM   31  C   UNL     2     -10.560  11.235  63.976  1.00  0.00    -0.450 A  
HETATM   32  C   UNL     2     -12.109  12.522  65.903  1.00  0.00    -0.420 A  
HETATM   33  C   UNL     2     -10.320  11.016  65.333  1.00  0.00    -0.330 A  
HETATM   34  C   UNL     2     -12.374  12.713  64.542  1.00  0.00    -0.537 A  
ENDBRANCH  22  29
ENDBRANCH  21  22
ENDBRANCH  20  21
ENDBRANCH  19  20
ENDBRANCH   4  19
TORSDOF 6
ENDMDL
MODEL       40
REMARK 921   NORMALIZED FREE ENERGY PREDICTED BY IDOCK:   -5.91 KCAL/MOL
REMARK 922        TOTAL FREE ENERGY PREDICTED BY IDOCK:   -6.36 KCAL/MOL
REMARK 923 INTER-LIGAND FREE ENERGY PREDICTED BY IDOCK:   -8.75 KCAL/MOL
REMARK 924 INTRA-LIGAND FREE ENERGY PREDICTED BY IDOCK:    2.39 KCAL/MOL
REMARK 927      BINDING AFFINITY PREDICTED BY RF-SCORE:    0.00 PKD
ROOT
HETATM    1  C   UNL     1     -11.377  15.373  64.541  1.00  0.00    -0.313 C  
HETATM    2  N   UNL     1     -10.796  14.447  65.520  1.00  0.00    -0.314 N  
HETATM    3  C   UNL     2     -12.402  12.918  65.945  1.00  0.00    -0.313 C  
HETATM    4  N   UNL     2     -10.957  12.670  66.617  1.00  0.00    -0.251 NA 
HETATM    5  C   UNL     1     -10.947  14.636  67.295  1.00  0.00    -0.317 A  
HETATM    6  O   UNL     1     -10.073  12.690  63.594  1.00  0.00    -0.385 OA 
HETATM    7  C   UNL     1     -10.230  13.581  68.351  1.00  0.00    -0.245 A  
HETATM    8  C   UNL     2     -11.317  11.168  67.106  1.00  0.00    -0.181 C  
HETATM    9  C   UNL     1      -8.406  10.780  65.465  1.00  0.00    -0.129 C  
HETATM   10  N   UNL     1     -10.488  14.009  69.615  1.00  0.00    -0.419 NA 
HETATM   11  C   UNL     1      -9.285  12.079  67.767  1.00  0.00    -0.190 C  
HETATM   12  H   UNL     1     -10.155  13.611  70.493  1.00  0.00     0.000 HD 
HETATM   13  O   UNL     1      -8.674  11.344  68.547  1.00  0.00    -0.152 OA 
HETATM   14  N   UNL     1      -9.232  11.829  65.996  1.00  0.00    -0.218 N  
HETATM   15  C   UNL     1     -11.268  15.059  69.443  1.00  0.00    -0.284 A  
HETATM   16  C   UNL     1     -10.064  12.838  64.805  1.00  0.00    -0.217 C  
HETATM   17 CL   UNL     1     -12.004  15.927  70.715  1.00  0.00    -0.418 Cl 
HETATM   18  N   UNL     1     -11.554  15.492  68.161  1.00  0.00    -0.341 NA 
ENDROOT
BRANCH   4  19
HETATM   19  C   UNL     2      -9.181  13.750  66.480  1.00  0.00    -0.192 C  
BRANCH  19  20
HETATM   20  C   UNL     2      -8.790  15.456  66.412  1.00  0.00    -0.305 C  
BRANCH  20  21
HETATM   21  O   UNL     2      -7.727  15.781  67.320  1.00  0.00    -0.161 OA 
BRANCH  21  22
HETATM   22  C   UNL     2      -7.478  17.221  67.357  1.00  0.00    -0.170 C  
BRANCH  22  23
HETATM   23  C   UNL     2      -8.796  18.005  67.276  1.00  0.00    -0.247 A  
HETATM   24  C   UNL     2      -9.514  18.263  68.463  1.00  0.00    -0.346 A  
HETATM   25  C   UNL     2      -9.195  18.687  66.115  1.00  0.00    -0.146 A  
HETATM   26  C   UNL     2     -10.524  19.232  68.499  1.00  0.00    -0.256 A  
HETATM   27  C   UNL     2     -10.860  19.935  67.347  1.00  0.00    -0.365 A  
HETATM   28  C   UNL     2     -10.216  19.642  66.150  1.00  0.00    -0.604 A  
ENDBRANCH  22  23
BRANCH  22  29
HETATM   29  C   UNL     2      -6.573  17.470  68.554  1.00  0.00    -0.198 A  
HETATM   30  C   UNL     2      -5.166  17.939  70.953  1.00  0.00    -0.269 A  
HETATM   31  C   UNL     2      -5.479  18.999  70.110  1.00  0.00    -0.239 A  
HETATM   32  C   UNL     2      -6.212  16.406  69.399  1.00  0.00    -0.186 A  
HETATM   33  C   UNL     2      -6.192  18.767  68.933  1.00  0.00    -0.250 A  
HETATM   34  C   UNL     2      -5.529  16.643  70.598  1.00  0.00    -0.126 A  
ENDBRANCH  22  29
ENDBRANCH  21  22
ENDBRANCH  20  21
ENDBRANCH  19  20
ENDBRANCH   4  19
TORSDOF 6
ENDMDL
MODEL       41
REMARK 921   NORMALIZED FREE ENERGY PREDICTED BY IDOCK:   -5.87 KCAL/MOL
REMARK 922        TOTAL FREE ENERGY PREDICTED BY IDOCK:   -6.31 KCAL/MOL
REMARK 923 INTER-LIGAND FREE ENERGY PREDICTED BY IDOCK:   -8.69 KCAL/MOL
REMARK 924 INTRA-LIGAND FREE ENERGY PREDICTED BY IDOCK:    2.38 KCAL/MOL
REMARK 927      BINDING AFFINITY PREDICTED BY RF-SCORE:    0.00 PKD
ROOT
HETATM    1  C   UNL     1      -6.943   9.021  68.162  1.00  0.00    -0.077 C  
HETATM    2  N   UNL     1      -8.168   8.372  68.642  1.00  0.00    -0.122 N  
HETATM    3  C   UNL     2      -7.489   6.542  69.775  1.00  0.00    -0.088 C  
HETATM    4  N   UNL     2      -9.065   6.883  69.809  1.00  0.00    -0.144 NA 
HETATM    5  C   UNL     1      -9.052   7.101  67.741  1.00  0.00    -0.127 A  
HETATM    6  O   UNL     1      -7.978   9.559  71.066  1.00  0.00    -0.321 OA 
HETATM    7  C   UNL     1     -10.456   6.438  68.316  1.00  0.00    -0.223 A  
HETATM    8  C   UNL     2      -9.391   5.792  70.962  1.00  0.00    -0.160 C  
HETATM    9  C   UNL     1     -10.785   8.617  72.143  1.00  0.00    -0.347 C  
HETATM   10  N   UNL     1     -10.905   5.541  67.398  1.00  0.00    -0.284 NA 
HETATM   11  C   UNL     1     -11.172   6.910  69.976  1.00  0.00    -0.299 C  
HETATM   12  H   UNL     1     -11.765   4.993  67.425  1.00  0.00     0.000 HD 
HETATM   13  O   UNL     1     -12.264   6.486  70.364  1.00  0.00    -0.306 OA 
HETATM   14  N   UNL     1     -10.227   8.097  70.924  1.00  0.00    -0.188 N  
HETATM   15  C   UNL     1      -9.971   5.543  66.466  1.00  0.00    -0.185 A  
HETATM   16  C   UNL     1      -8.664   8.767  70.441  1.00  0.00    -0.166 C  
HETATM   17 CL   UNL     1      -9.958   4.497  65.118  1.00  0.00    -0.177 Cl 
HETATM   18  N   UNL     1      -8.903   6.415  66.576  1.00  0.00    -0.131 NA 
ENDROOT
BRANCH   4  19
HETATM   19  C   UNL     2     -10.142   8.460  68.978  1.00  0.00    -0.203 C  
BRANCH  19  20
HETATM   20  C   UNL     2     -10.225  10.182  69.288  1.00  0.00    -0.223 C  
BRANCH  20  21
HETATM   21  O   UNL     2     -10.001  10.936  68.088  1.00  0.00    -0.165 OA 
BRANCH  21  22
HETATM   22  C   UNL     2     -11.111  11.847  67.815  1.00  0.00    -0.239 C  
BRANCH  22  23
HETATM   23  C   UNL     2     -10.980  13.131  68.647  1.00  0.00    -0.296 A  
HETATM   24  C   UNL     2     -10.037  14.106  68.258  1.00  0.00    -0.241 A  
HETATM   25  C   UNL     2     -11.919  13.491  69.627  1.00  0.00    -0.397 A  
HETATM   26  C   UNL     2     -10.097  15.410  68.764  1.00  0.00    -0.213 A  
HETATM   27  C   UNL     2     -11.074  15.756  69.692  1.00  0.00    -0.307 A  
HETATM   28  C   UNL     2     -11.965  14.789  70.145  1.00  0.00    -0.367 A  
ENDBRANCH  22  23
BRANCH  22  29
HETATM   29  C   UNL     2     -11.192  11.983  66.302  1.00  0.00    -0.394 A  
HETATM   30  C   UNL     2     -11.572  12.007  63.508  1.00  0.00    -0.553 A  
HETATM   31  C   UNL     2     -10.546  11.252  64.065  1.00  0.00    -0.450 A  
HETATM   32  C   UNL     2     -12.198  12.772  65.717  1.00  0.00    -0.469 A  
HETATM   33  C   UNL     2     -10.372  11.228  65.450  1.00  0.00    -0.328 A  
HETATM   34  C   UNL     2     -12.396  12.769  64.331  1.00  0.00    -0.498 A  
ENDBRANCH  22  29
ENDBRANCH  21  22
ENDBRANCH  20  21
ENDBRANCH  19  20
ENDBRANCH   4  19
TORSDOF 6
ENDMDL
MODEL       42
REMARK 921   NORMALIZED FREE ENERGY PREDICTED BY IDOCK:   -5.84 KCAL/MOL
REMARK 922        TOTAL FREE ENERGY PREDICTED BY IDOCK:   -6.27 KCAL/MOL
REMARK 923 INTER-LIGAND FREE ENERGY PREDICTED BY IDOCK:   -8.40 KCAL/MOL
REMARK 924 INTRA-LIGAND FREE ENERGY PREDICTED BY IDOCK:    2.13 KCAL/MOL
REMARK 927      BINDING AFFINITY PREDICTED BY RF-SCORE:    0.00 PKD
ROOT
HETATM    1  C   UNL     1      -7.627  15.428  69.650  1.00  0.00    -0.165 C  
HETATM    2  N   UNL     1      -8.804  14.868  68.976  1.00  0.00    -0.196 N  
HETATM    3  C   UNL     2      -9.684  16.561  67.770  1.00  0.00    -0.235 C  
HETATM    4  N   UNL     2     -10.351  15.104  67.586  1.00  0.00    -0.246 NA 
HETATM    5  C   UNL     1     -10.462  14.905  69.653  1.00  0.00    -0.166 A  
HETATM    6  O   UNL     1      -7.413  14.389  66.706  1.00  0.00     0.208 OA 
HETATM    7  C   UNL     1     -11.744  14.215  68.864  1.00  0.00    -0.334 A  
HETATM    8  C   UNL     2     -11.246  15.552  66.311  1.00  0.00    -0.096 C  
HETATM    9  C   UNL     1      -9.683  12.773  65.234  1.00  0.00    -0.007 C  
HETATM   10  N   UNL     1     -12.849  14.369  69.640  1.00  0.00    -0.440 NA 
HETATM   11  C   UNL     1     -11.566  13.422  67.182  1.00  0.00    -0.358 C  
HETATM   12  H   UNL     1     -13.791  14.020  69.467  1.00  0.00     0.000 HD 
HETATM   13  O   UNL     1     -12.498  12.828  66.635  1.00  0.00    -0.373 OA 
HETATM   14  N   UNL     1      -9.931  13.486  66.457  1.00  0.00    -0.280 N  
HETATM   15  C   UNL     1     -12.420  15.074  70.670  1.00  0.00    -0.365 A  
HETATM   16  C   UNL     1      -8.536  14.302  67.175  1.00  0.00    -0.200 C  
HETATM   17 CL   UNL     1     -13.427  15.670  71.912  1.00  0.00    -0.556 Cl 
HETATM   18  N   UNL     1     -11.078  15.396  70.762  1.00  0.00    -0.333 NA 
ENDROOT
BRANCH   4  19
HETATM   19  C   UNL     2      -9.867  13.261  68.425  1.00  0.00    -0.218 C  
BRANCH  19  20
HETATM   20  C   UNL     2      -8.456  12.225  68.368  1.00  0.00    -0.138 C  
BRANCH  20  21
HETATM   21  O   UNL     2      -8.640  11.053  69.176  1.00  0.00    -0.111 OA 
BRANCH  21  22
HETATM   22  C   UNL     2      -9.834  10.310  68.774  1.00  0.00    -0.180 C  
BRANCH  22  23
HETATM   23  C   UNL     2      -9.452   9.020  68.034  1.00  0.00    -0.157 A  
HETATM   24  C   UNL     2      -8.273   8.340  68.409  1.00  0.00    -0.132 A  
HETATM   25  C   UNL     2     -10.339   8.355  67.174  1.00  0.00    -0.381 A  
HETATM   26  C   UNL     2      -8.047   7.016  68.011  1.00  0.00    -0.119 A  
HETATM   27  C   UNL     2      -8.973   6.361  67.205  1.00  0.00    -0.107 A  
HETATM   28  C   UNL     2     -10.103   7.040  66.763  1.00  0.00    -0.270 A  
ENDBRANCH  22  23
BRANCH  22  29
HETATM   29  C   UNL     2     -10.701  10.188  70.018  1.00  0.00    -0.356 A  
HETATM   30  C   UNL     2     -12.458   9.717  72.174  1.00  0.00    -0.350 A  
HETATM   31  C   UNL     2     -12.749  10.706  71.241  1.00  0.00    -0.537 A  
HETATM   32  C   UNL     2     -10.404   9.221  70.994  1.00  0.00    -0.388 A  
HETATM   33  C   UNL     2     -11.888  10.924  70.165  1.00  0.00    -0.438 A  
HETATM   34  C   UNL     2     -11.285   8.976  72.053  1.00  0.00    -0.379 A  
ENDBRANCH  22  29
ENDBRANCH  21  22
ENDBRANCH  20  21
ENDBRANCH  19  20
ENDBRANCH   4  19
TORSDOF 6
ENDMDL
MODEL       43
REMARK 921   NORMALIZED FREE ENERGY PREDICTED BY IDOCK:   -5.81 KCAL/MOL
REMARK 922        TOTAL FREE ENERGY PREDICTED BY IDOCK:   -6.23 KCAL/MOL
REMARK 923 INTER-LIGAND FREE ENERGY PREDICTED BY IDOCK:   -8.68 KCAL/MOL
REMARK 924 INTRA-LIGAND FREE ENERGY PREDICTED BY IDOCK:    2.44 KCAL/MOL
REMARK 927      BINDING AFFINITY PREDICTED BY RF-SCORE:    0.00 PKD
ROOT
HETATM    1  C   UNL     1     -11.128   7.037  67.208  1.00  0.00    -0.232 C  
HETATM    2  N   UNL     1     -10.278   7.512  68.306  1.00  0.00    -0.181 N  
HETATM    3  C   UNL     2      -8.544   6.070  68.407  1.00  0.00    -0.111 C  
HETATM    4  N   UNL     2      -8.485   7.358  69.376  1.00  0.00    -0.132 NA 
HETATM    5  C   UNL     1     -10.428   6.961  70.004  1.00  0.00    -0.207 A  
HETATM    6  O   UNL     1      -8.654   8.859  66.612  1.00  0.00    -0.119 OA 
HETATM    7  C   UNL     1      -9.467   7.568  71.208  1.00  0.00    -0.150 A  
HETATM    8  C   UNL     2      -6.943   7.104  69.805  1.00  0.00    -0.054 C  
HETATM    9  C   UNL     1      -6.966  10.325  68.832  1.00  0.00    -0.065 C  
HETATM   10  N   UNL     1      -9.844   6.991  72.380  1.00  0.00    -0.153 NA 
HETATM   11  C   UNL     1      -8.111   8.808  70.869  1.00  0.00    -0.150 C  
HETATM   12  H   UNL     1      -9.485   7.178  73.316  1.00  0.00     0.000 HD 
HETATM   13  O   UNL     1      -7.457   9.330  71.775  1.00  0.00    -0.335 OA 
HETATM   14  N   UNL     1      -7.889   9.272  69.155  1.00  0.00    -0.084 N  
HETATM   15  C   UNL     1     -10.782   6.133  72.026  1.00  0.00    -0.233 A  
HETATM   16  C   UNL     1      -8.789   8.588  67.794  1.00  0.00    -0.137 C  
HETATM   17 CL   UNL     1     -11.530   5.032  73.094  1.00  0.00    -0.398 Cl 
HETATM   18  N   UNL     1     -11.185   6.074  70.704  1.00  0.00    -0.303 NA 
ENDROOT
BRANCH   4  19
HETATM   19  C   UNL     2      -9.794   8.961  69.602  1.00  0.00    -0.180 C  
BRANCH  19  20
HETATM   20  C   UNL     2     -10.508  10.122  68.502  1.00  0.00    -0.195 C  
BRANCH  20  21
HETATM   21  O   UNL     2     -10.401  11.457  69.014  1.00  0.00    -0.201 OA 
BRANCH  21  22
HETATM   22  C   UNL     2     -11.589  12.249  68.696  1.00  0.00    -0.323 C  
BRANCH  22  23
HETATM   23  C   UNL     2     -12.018  13.098  69.901  1.00  0.00    -0.387 A  
HETATM   24  C   UNL     2     -12.114  14.498  69.752  1.00  0.00    -0.380 A  
HETATM   25  C   UNL     2     -12.553  12.531  71.068  1.00  0.00    -0.350 A  
HETATM   26  C   UNL     2     -12.801  15.277  70.691  1.00  0.00    -0.462 A  
HETATM   27  C   UNL     2     -13.373  14.681  71.811  1.00  0.00    -0.445 A  
HETATM   28  C   UNL     2     -13.223  13.314  72.014  1.00  0.00    -0.541 A  
ENDBRANCH  22  23
BRANCH  22  29
HETATM   29  C   UNL     2     -11.288  12.966  67.389  1.00  0.00    -0.355 A  
HETATM   30  C   UNL     2     -10.798  14.572  65.123  1.00  0.00    -0.407 A  
HETATM   31  C   UNL     2     -12.037  13.962  65.290  1.00  0.00    -0.422 A  
HETATM   32  C   UNL     2     -10.030  13.558  67.181  1.00  0.00    -0.246 A  
HETATM   33  C   UNL     2     -12.282  13.184  66.422  1.00  0.00    -0.396 A  
HETATM   34  C   UNL     2      -9.794  14.368  66.065  1.00  0.00    -0.342 A  
ENDBRANCH  22  29
ENDBRANCH  21  22
ENDBRANCH  20  21
ENDBRANCH  19  20
ENDBRANCH   4  19
TORSDOF 6
ENDMDL
MODEL       44
REMARK 921   NORMALIZED FREE ENERGY PREDICTED BY IDOCK:   -5.78 KCAL/MOL
REMARK 922        TOTAL FREE ENERGY PREDICTED BY IDOCK:   -6.19 KCAL/MOL
REMARK 923 INTER-LIGAND FREE ENERGY PREDICTED BY IDOCK:   -8.71 KCAL/MOL
REMARK 924 INTRA-LIGAND FREE ENERGY PREDICTED BY IDOCK:    2.52 KCAL/MOL
REMARK 927      BINDING AFFINITY PREDICTED BY RF-SCORE:    0.00 PKD
ROOT
HETATM    1  C   UNL     1      -7.560  15.211  69.819  1.00  0.00    -0.094 C  
HETATM    2  N   UNL     1      -8.784  15.000  69.038  1.00  0.00    -0.202 N  
HETATM    3  C   UNL     2      -9.375  17.037  68.264  1.00  0.00    -0.255 C  
HETATM    4  N   UNL     2     -10.239  15.777  67.747  1.00  0.00    -0.246 NA 
HETATM    5  C   UNL     1     -10.439  15.121  69.711  1.00  0.00    -0.233 A  
HETATM    6  O   UNL     1      -7.407  14.863  66.712  1.00  0.00     0.035 OA 
HETATM    7  C   UNL     1     -11.782  14.828  68.788  1.00  0.00    -0.323 A  
HETATM    8  C   UNL     2     -11.021  16.633  66.616  1.00  0.00     0.104 C  
HETATM    9  C   UNL     1      -9.839  13.983  64.913  1.00  0.00     0.037 C  
HETATM   10  N   UNL     1     -12.877  14.958  69.583  1.00  0.00    -0.526 NA 
HETATM   11  C   UNL     1     -11.669  14.430  66.966  1.00  0.00    -0.399 C  
HETATM   12  H   UNL     1     -13.854  14.800  69.337  1.00  0.00     0.000 HD 
HETATM   13  O   UNL     1     -12.659  14.121  66.299  1.00  0.00    -0.449 OA 
HETATM   14  N   UNL     1     -10.020  14.421  66.270  1.00  0.00    -0.294 N  
HETATM   15  C   UNL     1     -12.383  15.334  70.747  1.00  0.00    -0.380 A  
HETATM   16  C   UNL     1      -8.545  14.835  67.153  1.00  0.00    -0.226 C  
HETATM   17 CL   UNL     1     -13.332  15.766  72.098  1.00  0.00    -0.523 Cl 
HETATM   18  N   UNL     1     -11.012  15.426  70.906  1.00  0.00    -0.326 NA 
ENDROOT
BRANCH   4  19
HETATM   19  C   UNL     2     -10.048  13.738  68.130  1.00  0.00    -0.245 C  
BRANCH  19  20
HETATM   20  C   UNL     2      -9.860  12.317  67.123  1.00  0.00    -0.203 C  
BRANCH  20  21
HETATM   21  O   UNL     2     -10.683  11.238  67.589  1.00  0.00    -0.201 OA 
BRANCH  21  22
HETATM   22  C   UNL     2      -9.997  10.445  68.608  1.00  0.00    -0.177 C  
BRANCH  22  23
HETATM   23  C   UNL     2     -10.847  10.341  69.882  1.00  0.00    -0.355 A  
HETATM   24  C   UNL     2     -11.721  11.400  70.211  1.00  0.00    -0.397 A  
HETATM   25  C   UNL     2     -10.979   9.143  70.603  1.00  0.00    -0.319 A  
HETATM   26  C   UNL     2     -12.741  11.227  71.154  1.00  0.00    -0.492 A  
HETATM   27  C   UNL     2     -12.885  10.009  71.812  1.00  0.00    -0.546 A  
HETATM   28  C   UNL     2     -11.987   8.979  71.558  1.00  0.00    -0.414 A  
ENDBRANCH  22  23
BRANCH  22  29
HETATM   29  C   UNL     2      -9.569   9.152  67.929  1.00  0.00    -0.168 A  
HETATM   30  C   UNL     2      -8.949   6.602  66.898  1.00  0.00    -0.131 A  
HETATM   31  C   UNL     2      -8.060   7.242  67.754  1.00  0.00    -0.115 A  
HETATM   32  C   UNL     2     -10.436   8.507  67.030  1.00  0.00    -0.362 A  
HETATM   33  C   UNL     2      -8.378   8.496  68.278  1.00  0.00    -0.124 A  
HETATM   34  C   UNL     2     -10.134   7.234  66.532  1.00  0.00    -0.163 A  
ENDBRANCH  22  29
ENDBRANCH  21  22
ENDBRANCH  20  21
ENDBRANCH  19  20
ENDBRANCH   4  19
TORSDOF 6
ENDMDL
MODEL       45
REMARK 921   NORMALIZED FREE ENERGY PREDICTED BY IDOCK:   -5.78 KCAL/MOL
REMARK 922        TOTAL FREE ENERGY PREDICTED BY IDOCK:   -6.19 KCAL/MOL
REMARK 923 INTER-LIGAND FREE ENERGY PREDICTED BY IDOCK:   -8.32 KCAL/MOL
REMARK 924 INTRA-LIGAND FREE ENERGY PREDICTED BY IDOCK:    2.13 KCAL/MOL
REMARK 927      BINDING AFFINITY PREDICTED BY RF-SCORE:    0.00 PKD
ROOT
HETATM    1  C   UNL     1     -11.400  11.235  64.781  1.00  0.00     0.027 C  
HETATM    2  N   UNL     1     -10.464  11.169  65.909  1.00  0.00    -0.257 N  
HETATM    3  C   UNL     2     -10.065   8.972  66.247  1.00  0.00    -0.241 C  
HETATM    4  N   UNL     2      -9.209  10.017  67.128  1.00  0.00    -0.141 NA 
HETATM    5  C   UNL     1     -10.963  11.021  67.623  1.00  0.00    -0.275 A  
HETATM    6  O   UNL     1      -8.324  10.982  64.263  1.00  0.00     0.083 OA 
HETATM    7  C   UNL     1      -9.858  10.996  68.856  1.00  0.00    -0.177 A  
HETATM    8  C   UNL     2      -8.200   8.884  67.696  1.00  0.00    -0.110 C  
HETATM    9  C   UNL     1      -6.128  11.253  66.506  1.00  0.00    -0.139 C  
HETATM   10  N   UNL     1     -10.538  10.919  70.031  1.00  0.00    -0.439 NA 
HETATM   11  C   UNL     1      -8.016  11.040  68.543  1.00  0.00    -0.137 C  
HETATM   12  H   UNL     1     -10.160  10.930  70.977  1.00  0.00     0.000 HD 
HETATM   13  O   UNL     1      -7.196  11.115  69.461  1.00  0.00    -0.121 OA 
HETATM   14  N   UNL     1      -7.518  11.073  66.825  1.00  0.00    -0.133 N  
HETATM   15  C   UNL     1     -11.802  10.827  69.661  1.00  0.00    -0.320 A  
HETATM   16  C   UNL     1      -8.623  10.985  65.446  1.00  0.00    -0.068 C  
HETATM   17 CL   UNL     1     -13.102  10.577  70.739  1.00  0.00    -0.405 Cl 
HETATM   18  N   UNL     1     -12.125  10.901  68.318  1.00  0.00    -0.505 NA 
ENDROOT
BRANCH   4  19
HETATM   19  C   UNL     2      -9.183  12.100  67.137  1.00  0.00    -0.193 C  
BRANCH  19  20
HETATM   20  C   UNL     2      -9.064  13.316  68.393  1.00  0.00    -0.137 C  
BRANCH  20  21
HETATM   21  O   UNL     2     -10.209  14.182  68.387  1.00  0.00    -0.234 OA 
BRANCH  21  22
HETATM   22  C   UNL     2     -10.058  15.273  69.349  1.00  0.00    -0.264 C  
BRANCH  22  23
HETATM   23  C   UNL     2      -9.838  16.610  68.626  1.00  0.00    -0.252 A  
HETATM   24  C   UNL     2     -10.906  17.179  67.900  1.00  0.00    -0.294 A  
HETATM   25  C   UNL     2      -8.708  17.411  68.854  1.00  0.00    -0.153 A  
HETATM   26  C   UNL     2     -10.874  18.523  67.506  1.00  0.00    -0.337 A  
HETATM   27  C   UNL     2      -9.765  19.311  67.796  1.00  0.00    -0.409 A  
HETATM   28  C   UNL     2      -8.671  18.747  68.444  1.00  0.00    -0.369 A  
ENDBRANCH  22  23
BRANCH  22  29
HETATM   29  C   UNL     2     -11.234  15.165  70.307  1.00  0.00    -0.306 A  
HETATM   30  C   UNL     2     -13.577  15.153  71.876  1.00  0.00    -0.545 A  
HETATM   31  C   UNL     2     -12.554  16.050  72.159  1.00  0.00    -0.489 A  
HETATM   32  C   UNL     2     -12.262  14.238  70.062  1.00  0.00    -0.417 A  
HETATM   33  C   UNL     2     -11.404  16.067  71.369  1.00  0.00    -0.371 A  
HETATM   34  C   UNL     2     -13.432  14.245  70.831  1.00  0.00    -0.191 A  
ENDBRANCH  22  29
ENDBRANCH  21  22
ENDBRANCH  20  21
ENDBRANCH  19  20
ENDBRANCH   4  19
TORSDOF 6
ENDMDL
MODEL       46
REMARK 921   NORMALIZED FREE ENERGY PREDICTED BY IDOCK:   -5.76 KCAL/MOL
REMARK 922        TOTAL FREE ENERGY PREDICTED BY IDOCK:   -6.17 KCAL/MOL
REMARK 923 INTER-LIGAND FREE ENERGY PREDICTED BY IDOCK:   -8.58 KCAL/MOL
REMARK 924 INTRA-LIGAND FREE ENERGY PREDICTED BY IDOCK:    2.42 KCAL/MOL
REMARK 927      BINDING AFFINITY PREDICTED BY RF-SCORE:    0.00 PKD
ROOT
HETATM    1  C   UNL     1      -6.861  10.512  69.542  1.00  0.00    -0.098 C  
HETATM    2  N   UNL     1      -7.870   9.589  69.007  1.00  0.00    -0.075 N  
HETATM    3  C   UNL     2      -7.008   7.519  69.271  1.00  0.00    -0.068 C  
HETATM    4  N   UNL     2      -8.522   7.620  68.725  1.00  0.00    -0.129 NA 
HETATM    5  C   UNL     1      -7.908   9.016  67.311  1.00  0.00    -0.099 A  
HETATM    6  O   UNL     1      -8.909   9.129  71.462  1.00  0.00    -0.330 OA 
HETATM    7  C   UNL     1      -9.100   8.009  66.755  1.00  0.00    -0.155 A  
HETATM    8  C   UNL     2      -8.806   6.033  68.891  1.00  0.00    -0.120 C  
HETATM    9  C   UNL     1     -11.400   7.466  70.485  1.00  0.00    -0.271 C  
HETATM   10  N   UNL     1      -8.882   7.788  65.431  1.00  0.00    -0.371 NA 
HETATM   11  C   UNL     1     -10.437   7.338  67.874  1.00  0.00    -0.209 C  
HETATM   12  H   UNL     1      -9.455   7.250  64.782  1.00  0.00     0.000 HD 
HETATM   13  O   UNL     1     -11.376   6.664  67.444  1.00  0.00    -0.299 OA 
HETATM   14  N   UNL     1     -10.331   7.822  69.594  1.00  0.00    -0.208 N  
HETATM   15  C   UNL     1      -7.757   8.431  65.182  1.00  0.00    -0.097 A  
HETATM   16  C   UNL     1      -9.031   8.796  70.295  1.00  0.00    -0.161 C  
HETATM   17 CL   UNL     1      -6.939   8.389  63.684  1.00  0.00    -0.083 Cl 
HETATM   18  N   UNL     1      -7.158   9.168  66.187  1.00  0.00    -0.086 NA 
ENDROOT
BRANCH   4  19
HETATM   19  C   UNL     2      -9.744   9.270  68.375  1.00  0.00    -0.154 C  
BRANCH  19  20
HETATM   20  C   UNL     2     -10.215  10.665  69.322  1.00  0.00    -0.213 C  
BRANCH  20  21
HETATM   21  O   UNL     2     -10.168  11.865  68.537  1.00  0.00    -0.213 OA 
BRANCH  21  22
HETATM   22  C   UNL     2     -11.498  12.452  68.379  1.00  0.00    -0.310 C  
BRANCH  22  23
HETATM   23  C   UNL     2     -11.665  13.679  69.287  1.00  0.00    -0.376 A  
HETATM   24  C   UNL     2     -12.508  13.588  70.414  1.00  0.00    -0.345 A  
HETATM   25  C   UNL     2     -10.832  14.805  69.189  1.00  0.00    -0.267 A  
HETATM   26  C   UNL     2     -12.446  14.538  71.441  1.00  0.00    -0.423 A  
HETATM   27  C   UNL     2     -11.569  15.614  71.345  1.00  0.00    -0.499 A  
HETATM   28  C   UNL     2     -10.784  15.763  70.207  1.00  0.00    -0.342 A  
ENDBRANCH  22  23
BRANCH  22  29
HETATM   29  C   UNL     2     -11.710  12.637  66.884  1.00  0.00    -0.453 A  
HETATM   30  C   UNL     2     -11.813  13.127  64.109  1.00  0.00    -0.487 A  
HETATM   31  C   UNL     2     -12.439  13.998  64.993  1.00  0.00    -0.446 A  
HETATM   32  C   UNL     2     -11.118  11.747  65.971  1.00  0.00    -0.363 A  
HETATM   33  C   UNL     2     -12.370  13.763  66.367  1.00  0.00    -0.460 A  
HETATM   34  C   UNL     2     -11.156  12.000  64.595  1.00  0.00    -0.375 A  
ENDBRANCH  22  29
ENDBRANCH  21  22
ENDBRANCH  20  21
ENDBRANCH  19  20
ENDBRANCH   4  19
TORSDOF 6
ENDMDL
MODEL       47
REMARK 921   NORMALIZED FREE ENERGY PREDICTED BY IDOCK:   -5.74 KCAL/MOL
REMARK 922        TOTAL FREE ENERGY PREDICTED BY IDOCK:   -6.14 KCAL/MOL
REMARK 923 INTER-LIGAND FREE ENERGY PREDICTED BY IDOCK:   -9.30 KCAL/MOL
REMARK 924 INTRA-LIGAND FREE ENERGY PREDICTED BY IDOCK:    3.16 KCAL/MOL
REMARK 927      BINDING AFFINITY PREDICTED BY RF-SCORE:    0.00 PKD
ROOT
HETATM    1  C   UNL     1     -10.608  10.987  64.915  1.00  0.00    -0.258 C  
HETATM    2  N   UNL     1      -9.843  10.794  66.152  1.00  0.00    -0.212 N  
HETATM    3  C   UNL     2      -9.659   8.560  66.418  1.00  0.00    -0.245 C  
HETATM    4  N   UNL     2      -8.857   9.491  67.462  1.00  0.00    -0.125 NA 
HETATM    5  C   UNL     1     -10.582  10.610  67.773  1.00  0.00    -0.236 A  
HETATM    6  O   UNL     1      -7.517  10.509  64.799  1.00  0.00    -0.091 OA 
HETATM    7  C   UNL     1      -9.662  10.440  69.140  1.00  0.00    -0.220 A  
HETATM    8  C   UNL     2      -8.022   8.256  68.096  1.00  0.00    -0.123 C  
HETATM    9  C   UNL     1      -5.636  10.500  67.326  1.00  0.00    -0.041 C  
HETATM   10  N   UNL     1     -10.501  10.366  70.207  1.00  0.00    -0.442 NA 
HETATM   11  C   UNL     1      -7.797  10.349  69.078  1.00  0.00    -0.120 C  
HETATM   12  H   UNL     1     -10.257  10.303  71.194  1.00  0.00     0.000 HD 
HETATM   13  O   UNL     1      -7.107  10.315  70.100  1.00  0.00    -0.147 OA 
HETATM   14  N   UNL     1      -7.066  10.419  67.446  1.00  0.00    -0.085 N  
HETATM   15  C   UNL     1     -11.706  10.393  69.668  1.00  0.00    -0.212 A  
HETATM   16  C   UNL     1      -7.975  10.482  65.930  1.00  0.00    -0.154 C  
HETATM   17 CL   UNL     1     -13.156  10.201  70.547  1.00  0.00    -0.270 Cl 
HETATM   18  N   UNL     1     -11.835  10.554  68.300  1.00  0.00    -0.356 NA 
ENDROOT
BRANCH   4  19
HETATM   19  C   UNL     2      -8.678  11.562  67.591  1.00  0.00    -0.142 C  
BRANCH  19  20
HETATM   20  C   UNL     2      -9.811  12.895  67.506  1.00  0.00    -0.208 C  
BRANCH  20  21
HETATM   21  O   UNL     2      -9.679  13.762  68.642  1.00  0.00    -0.213 OA 
BRANCH  21  22
HETATM   22  C   UNL     2     -10.532  14.942  68.516  1.00  0.00    -0.242 C  
BRANCH  22  23
HETATM   23  C   UNL     2     -11.219  14.974  67.143  1.00  0.00    -0.336 A  
HETATM   24  C   UNL     2     -10.626  15.713  66.097  1.00  0.00    -0.325 A  
HETATM   25  C   UNL     2     -12.273  14.108  66.809  1.00  0.00    -0.429 A  
HETATM   26  C   UNL     2     -11.013  15.518  64.766  1.00  0.00    -0.416 A  
HETATM   27  C   UNL     2     -12.022  14.610  64.457  1.00  0.00    -0.473 A  
HETATM   28  C   UNL     2     -12.670  13.928  65.480  1.00  0.00    -0.536 A  
ENDBRANCH  22  23
BRANCH  22  29
HETATM   29  C   UNL     2     -11.414  14.969  69.755  1.00  0.00    -0.324 A  
HETATM   30  C   UNL     2     -12.790  14.912  72.215  1.00  0.00    -0.414 A  
HETATM   31  C   UNL     2     -12.893  13.840  71.335  1.00  0.00    -0.449 A  
HETATM   32  C   UNL     2     -11.357  16.059  70.640  1.00  0.00    -0.424 A  
HETATM   33  C   UNL     2     -12.195  13.863  70.127  1.00  0.00    -0.425 A  
HETATM   34  C   UNL     2     -12.026  16.022  71.868  1.00  0.00    -0.606 A  
ENDBRANCH  22  29
ENDBRANCH  21  22
ENDBRANCH  20  21
ENDBRANCH  19  20
ENDBRANCH   4  19
TORSDOF 6
ENDMDL
MODEL       48
REMARK 921   NORMALIZED FREE ENERGY PREDICTED BY IDOCK:   -5.68 KCAL/MOL
REMARK 922        TOTAL FREE ENERGY PREDICTED BY IDOCK:   -6.06 KCAL/MOL
REMARK 923 INTER-LIGAND FREE ENERGY PREDICTED BY IDOCK:   -8.22 KCAL/MOL
REMARK 924 INTRA-LIGAND FREE ENERGY PREDICTED BY IDOCK:    2.16 KCAL/MOL
REMARK 927      BINDING AFFINITY PREDICTED BY RF-SCORE:    0.00 PKD
ROOT
HETATM    1  C   UNL     1     -10.127  11.364  65.304  1.00  0.00    -0.268 C  
HETATM    2  N   UNL     1      -9.499  11.023  66.586  1.00  0.00    -0.181 N  
HETATM    3  C   UNL     2      -9.491   8.767  66.683  1.00  0.00    -0.203 C  
HETATM    4  N   UNL     2      -8.733   9.556  67.869  1.00  0.00    -0.120 NA 
HETATM    5  C   UNL     1     -10.402  10.772  68.112  1.00  0.00    -0.171 A  
HETATM    6  O   UNL     1      -7.078  10.669  65.430  1.00  0.00    -0.108 OA 
HETATM    7  C   UNL     1      -9.632  10.433  69.538  1.00  0.00    -0.157 A  
HETATM    8  C   UNL     2      -8.047   8.218  68.472  1.00  0.00    -0.123 C  
HETATM    9  C   UNL     1      -5.454  10.331  68.109  1.00  0.00    -0.034 C  
HETATM   10  N   UNL     1     -10.573  10.340  70.515  1.00  0.00    -0.421 NA 
HETATM   11  C   UNL     1      -7.779  10.209  69.639  1.00  0.00    -0.163 C  
HETATM   12  H   UNL     1     -10.429  10.186  71.512  1.00  0.00     0.000 HD 
HETATM   13  O   UNL     1      -7.195  10.048  70.713  1.00  0.00    -0.328 OA 
HETATM   14  N   UNL     1      -6.891  10.347  68.092  1.00  0.00    -0.072 N  
HETATM   15  C   UNL     1     -11.715  10.497  69.873  1.00  0.00    -0.294 A  
HETATM   16  C   UNL     1      -7.643  10.591  66.509  1.00  0.00    -0.128 C  
HETATM   17 CL   UNL     1     -13.253  10.347  70.598  1.00  0.00    -0.321 Cl 
HETATM   18  N   UNL     1     -11.701  10.769  68.516  1.00  0.00    -0.432 NA 
ENDROOT
BRANCH   4  19
HETATM   19  C   UNL     2      -8.430  11.592  68.182  1.00  0.00    -0.156 C  
BRANCH  19  20
HETATM   20  C   UNL     2      -8.171  12.967  67.127  1.00  0.00    -0.139 C  
BRANCH  20  21
HETATM   21  O   UNL     2      -8.445  14.201  67.807  1.00  0.00    -0.155 OA 
BRANCH  21  22
HETATM   22  C   UNL     2      -8.881  15.238  66.874  1.00  0.00    -0.254 C  
BRANCH  22  23
HETATM   23  C   UNL     2     -10.319  14.978  66.402  1.00  0.00    -0.293 A  
HETATM   24  C   UNL     2     -10.623  15.102  65.030  1.00  0.00    -0.439 A  
HETATM   25  C   UNL     2     -11.286  14.387  67.230  1.00  0.00    -0.357 A  
HETATM   26  C   UNL     2     -11.805  14.570  64.502  1.00  0.00    -0.459 A  
HETATM   27  C   UNL     2     -12.721  13.937  65.337  1.00  0.00    -0.525 A  
HETATM   28  C   UNL     2     -12.475  13.872  66.704  1.00  0.00    -0.313 A  
ENDBRANCH  22  23
BRANCH  22  29
HETATM   29  C   UNL     2      -8.580  16.571  67.543  1.00  0.00    -0.188 A  
HETATM   30  C   UNL     2      -7.856  19.116  68.517  1.00  0.00    -0.380 A  
HETATM   31  C   UNL     2      -7.113  17.997  68.875  1.00  0.00    -0.268 A  
HETATM   32  C   UNL     2      -9.342  17.709  67.226  1.00  0.00    -0.249 A  
HETATM   33  C   UNL     2      -7.463  16.741  68.376  1.00  0.00    -0.202 A  
HETATM   34  C   UNL     2      -8.972  18.974  67.696  1.00  0.00    -0.322 A  
ENDBRANCH  22  29
ENDBRANCH  21  22
ENDBRANCH  20  21
ENDBRANCH  19  20
ENDBRANCH   4  19
TORSDOF 6
ENDMDL
MODEL       49
REMARK 921   NORMALIZED FREE ENERGY PREDICTED BY IDOCK:   -5.63 KCAL/MOL
REMARK 922        TOTAL FREE ENERGY PREDICTED BY IDOCK:   -5.99 KCAL/MOL
REMARK 923 INTER-LIGAND FREE ENERGY PREDICTED BY IDOCK:   -8.13 KCAL/MOL
REMARK 924 INTRA-LIGAND FREE ENERGY PREDICTED BY IDOCK:    2.14 KCAL/MOL
REMARK 927      BINDING AFFINITY PREDICTED BY RF-SCORE:    0.00 PKD
ROOT
HETATM    1  C   UNL     1     -12.772  15.164  68.995  1.00  0.00     0.453 C  
HETATM    2  N   UNL     1     -11.518  14.617  68.464  1.00  0.00    -0.287 N  
HETATM    3  C   UNL     2     -10.693  16.203  67.085  1.00  0.00    -0.262 C  
HETATM    4  N   UNL     2      -9.768  14.908  67.351  1.00  0.00    -0.216 NA 
HETATM    5  C   UNL     1     -11.394  13.677  66.945  1.00  0.00    -0.327 A  
HETATM    6  O   UNL     1     -10.039  15.912  70.324  1.00  0.00    -0.140 OA 
HETATM    7  C   UNL     1      -9.955  13.047  66.421  1.00  0.00    -0.277 A  
HETATM    8  C   UNL     2      -8.465  15.554  66.637  1.00  0.00    -0.279 C  
HETATM    9  C   UNL     1      -7.297  14.528  69.621  1.00  0.00    -0.011 C  
HETATM   10  N   UNL     1     -10.189  12.357  65.273  1.00  0.00    -0.280 NA 
HETATM   11  C   UNL     1      -8.351  13.340  67.332  1.00  0.00    -0.192 C  
HETATM   12  H   UNL     1      -9.527  11.814  64.721  1.00  0.00     0.000 HD 
HETATM   13  O   UNL     1      -7.296  12.797  66.996  1.00  0.00    -0.063 OA 
HETATM   14  N   UNL     1      -8.458  14.375  68.788  1.00  0.00    -0.149 N  
HETATM   15  C   UNL     1     -11.474  12.553  65.040  1.00  0.00    -0.326 A  
HETATM   16  C   UNL     1      -9.927  15.182  69.353  1.00  0.00    -0.228 C  
HETATM   17 CL   UNL     1     -12.289  12.011  63.642  1.00  0.00    -0.641 Cl 
HETATM   18  N   UNL     1     -12.229  13.269  65.952  1.00  0.00    -0.437 NA 
ENDROOT
BRANCH   4  19
HETATM   19  C   UNL     2     -10.066  13.239  68.561  1.00  0.00    -0.206 C  
BRANCH  19  20
HETATM   20  C   UNL     2     -11.468  12.510  69.314  1.00  0.00    -0.293 C  
BRANCH  20  21
HETATM   21  O   UNL     2     -11.513  11.097  69.070  1.00  0.00    -0.241 OA 
BRANCH  21  22
HETATM   22  C   UNL     2     -10.308  10.431  69.564  1.00  0.00    -0.237 C  
BRANCH  22  23
HETATM   23  C   UNL     2     -10.610   9.633  70.840  1.00  0.00    -0.386 A  
HETATM   24  C   UNL     2     -11.955   9.407  71.204  1.00  0.00    -0.413 A  
HETATM   25  C   UNL     2      -9.622   8.911  71.527  1.00  0.00    -0.362 A  
HETATM   26  C   UNL     2     -12.292   8.430  72.149  1.00  0.00    -0.426 A  
HETATM   27  C   UNL     2     -11.294   7.688  72.773  1.00  0.00    -0.419 A  
HETATM   28  C   UNL     2      -9.960   7.949  72.484  1.00  0.00    -0.312 A  
ENDBRANCH  22  23
BRANCH  22  29
HETATM   29  C   UNL     2      -9.715   9.684  68.379  1.00  0.00    -0.163 A  
HETATM   30  C   UNL     2      -8.597   8.040  66.379  1.00  0.00    -0.155 A  
HETATM   31  C   UNL     2      -7.781   8.889  67.120  1.00  0.00    -0.095 A  
HETATM   32  C   UNL     2     -10.528   8.850  67.592  1.00  0.00    -0.320 A  
HETATM   33  C   UNL     2      -8.335   9.687  68.122  1.00  0.00    -0.117 A  
HETATM   34  C   UNL     2      -9.969   8.022  66.611  1.00  0.00    -0.326 A  
ENDBRANCH  22  29
ENDBRANCH  21  22
ENDBRANCH  20  21
ENDBRANCH  19  20
ENDBRANCH   4  19
TORSDOF 6
ENDMDL
MODEL       50
REMARK 921   NORMALIZED FREE ENERGY PREDICTED BY IDOCK:   -5.62 KCAL/MOL
REMARK 922        TOTAL FREE ENERGY PREDICTED BY IDOCK:   -5.97 KCAL/MOL
REMARK 923 INTER-LIGAND FREE ENERGY PREDICTED BY IDOCK:   -8.44 KCAL/MOL
REMARK 924 INTRA-LIGAND FREE ENERGY PREDICTED BY IDOCK:    2.47 KCAL/MOL
REMARK 927      BINDING AFFINITY PREDICTED BY RF-SCORE:    0.00 PKD
ROOT
HETATM    1  C   UNL     1      -7.479  12.361  68.801  1.00  0.00    -0.056 C  
HETATM    2  N   UNL     1      -8.714  12.477  68.017  1.00  0.00    -0.179 N  
HETATM    3  C   UNL     2      -8.439  14.293  66.704  1.00  0.00     0.102 C  
HETATM    4  N   UNL     2      -9.771  13.414  66.472  1.00  0.00    -0.276 NA 
HETATM    5  C   UNL     1     -10.136  13.443  68.519  1.00  0.00    -0.207 A  
HETATM    6  O   UNL     1      -7.627  11.176  65.908  1.00  0.00    -0.055 OA 
HETATM    7  C   UNL     1     -11.520  13.499  67.611  1.00  0.00    -0.318 A  
HETATM    8  C   UNL     2     -10.177  14.186  65.106  1.00  0.00    -0.384 C  
HETATM    9  C   UNL     1     -10.285  10.938  64.232  1.00  0.00    -0.364 C  
HETATM   10  N   UNL     1     -12.424  14.274  68.268  1.00  0.00    -0.502 NA 
HETATM   11  C   UNL     1     -11.666  12.624  65.967  1.00  0.00    -0.417 C  
HETATM   12  H   UNL     1     -13.388  14.474  68.003  1.00  0.00     0.000 HD 
HETATM   13  O   UNL     1     -12.725  12.588  65.335  1.00  0.00    -0.624 OA 
HETATM   14  N   UNL     1     -10.205  11.752  65.414  1.00  0.00    -0.251 N  
HETATM   15  C   UNL     1     -11.765  14.705  69.327  1.00  0.00    -0.312 A  
HETATM   16  C   UNL     1      -8.652  11.737  66.260  1.00  0.00    -0.062 C  
HETATM   17 CL   UNL     1     -12.385  15.829  70.451  1.00  0.00    -0.407 Cl 
HETATM   18  N   UNL     1     -10.474  14.261  69.552  1.00  0.00    -0.036 NA 
ENDROOT
BRANCH   4  19
HETATM   19  C   UNL     2     -10.429  11.659  67.380  1.00  0.00    -0.210 C  
BRANCH  19  20
HETATM   20  C   UNL     2      -9.680  10.122  67.756  1.00  0.00    -0.153 C  
BRANCH  20  21
HETATM   21  O   UNL     2      -9.676   9.878  69.171  1.00  0.00    -0.178 OA 
BRANCH  21  22
HETATM   22  C   UNL     2     -10.593   8.797  69.529  1.00  0.00    -0.219 C  
BRANCH  22  23
HETATM   23  C   UNL     2      -9.825   7.601  70.109  1.00  0.00    -0.184 A  
HETATM   24  C   UNL     2      -8.854   7.829  71.107  1.00  0.00    -0.143 A  
HETATM   25  C   UNL     2     -10.213   6.272  69.873  1.00  0.00    -0.232 A  
HETATM   26  C   UNL     2      -8.367   6.778  71.894  1.00  0.00    -0.109 A  
HETATM   27  C   UNL     2      -8.812   5.478  71.676  1.00  0.00    -0.141 A  
HETATM   28  C   UNL     2      -9.711   5.222  70.648  1.00  0.00    -0.249 A  
ENDBRANCH  22  23
BRANCH  22  29
HETATM   29  C   UNL     2     -11.683   9.426  70.383  1.00  0.00    -0.195 A  
HETATM   30  C   UNL     2     -13.471  10.669  72.176  1.00  0.00    -0.237 A  
HETATM   31  C   UNL     2     -13.294   9.290  72.212  1.00  0.00    -0.547 A  
HETATM   32  C   UNL     2     -11.907  10.813  70.335  1.00  0.00    -0.450 A  
HETATM   33  C   UNL     2     -12.395   8.680  71.336  1.00  0.00    -0.344 A  
HETATM   34  C   UNL     2     -12.781  11.430  71.237  1.00  0.00    -0.498 A  
ENDBRANCH  22  29
ENDBRANCH  21  22
ENDBRANCH  20  21
ENDBRANCH  19  20
ENDBRANCH   4  19
TORSDOF 6
ENDMDL
MODEL       51
REMARK 921   NORMALIZED FREE ENERGY PREDICTED BY IDOCK:   -5.61 KCAL/MOL
REMARK 922        TOTAL FREE ENERGY PREDICTED BY IDOCK:   -5.97 KCAL/MOL
REMARK 923 INTER-LIGAND FREE ENERGY PREDICTED BY IDOCK:   -7.94 KCAL/MOL
REMARK 924 INTRA-LIGAND FREE ENERGY PREDICTED BY IDOCK:    1.97 KCAL/MOL
REMARK 927      BINDING AFFINITY PREDICTED BY RF-SCORE:    0.00 PKD
ROOT
HETATM    1  C   UNL     1      -6.462  10.162  69.544  1.00  0.00    -0.055 C  
HETATM    2  N   UNL     1      -7.604   9.500  68.903  1.00  0.00    -0.074 N  
HETATM    3  C   UNL     2      -7.583  10.187  66.753  1.00  0.00    -0.105 C  
HETATM    4  N   UNL     2      -8.667   9.062  67.153  1.00  0.00    -0.116 NA 
HETATM    5  C   UNL     1      -9.243  10.214  68.787  1.00  0.00    -0.164 A  
HETATM    6  O   UNL     1      -6.052   7.499  67.952  1.00  0.00    -0.040 OA 
HETATM    7  C   UNL     1     -10.504   9.398  68.090  1.00  0.00    -0.220 A  
HETATM    8  C   UNL     2      -9.081   8.754  65.618  1.00  0.00    -0.191 C  
HETATM    9  C   UNL     1      -8.408   5.706  66.874  1.00  0.00    -0.108 C  
HETATM   10  N   UNL     1     -11.616  10.174  68.189  1.00  0.00    -0.672 NA 
HETATM   11  C   UNL     1     -10.289   7.714  67.308  1.00  0.00    -0.297 C  
HETATM   12  H   UNL     1     -12.567   9.949  67.900  1.00  0.00     0.000 HD 
HETATM   13  O   UNL     1     -11.243   7.067  66.872  1.00  0.00    -0.302 OA 
HETATM   14  N   UNL     1      -8.626   7.053  67.325  1.00  0.00    -0.120 N  
HETATM   15  C   UNL     1     -11.178  11.287  68.747  1.00  0.00    -0.250 A  
HETATM   16  C   UNL     1      -7.203   7.903  67.942  1.00  0.00    -0.091 C  
HETATM   17 CL   UNL     1     -12.136  12.677  68.997  1.00  0.00    -0.257 Cl 
HETATM   18  N   UNL     1      -9.853  11.378  69.136  1.00  0.00    -0.028 NA 
ENDROOT
BRANCH   4  19
HETATM   19  C   UNL     2      -9.031   8.095  68.962  1.00  0.00    -0.144 C  
BRANCH  19  20
HETATM   20  C   UNL     2      -8.450   8.306  70.600  1.00  0.00    -0.130 C  
BRANCH  20  21
HETATM   21  O   UNL     2      -9.404   7.821  71.556  1.00  0.00    -0.135 OA 
BRANCH  21  22
HETATM   22  C   UNL     2     -10.501   7.110  70.901  1.00  0.00    -0.210 C  
BRANCH  22  23
HETATM   23  C   UNL     2     -10.336   5.591  71.057  1.00  0.00    -0.307 A  
HETATM   24  C   UNL     2     -10.089   4.808  69.910  1.00  0.00    -0.299 A  
HETATM   25  C   UNL     2     -10.176   4.976  72.309  1.00  0.00    -0.257 A  
HETATM   26  C   UNL     2      -9.611   3.496  70.020  1.00  0.00    -0.226 A  
HETATM   27  C   UNL     2      -9.406   2.931  71.275  1.00  0.00    -0.208 A  
HETATM   28  C   UNL     2      -9.716   3.660  72.417  1.00  0.00    -0.215 A  
ENDBRANCH  22  23
BRANCH  22  29
HETATM   29  C   UNL     2     -11.787   7.743  71.411  1.00  0.00    -0.324 A  
HETATM   30  C   UNL     2     -14.249   8.963  72.045  1.00  0.00    -0.444 A  
HETATM   31  C   UNL     2     -13.079   9.715  72.044  1.00  0.00    -0.537 A  
HETATM   32  C   UNL     2     -12.974   6.992  71.457  1.00  0.00    -0.411 A  
HETATM   33  C   UNL     2     -11.864   9.112  71.711  1.00  0.00    -0.453 A  
HETATM   34  C   UNL     2     -14.197   7.603  71.755  1.00  0.00    -0.549 A  
ENDBRANCH  22  29
ENDBRANCH  21  22
ENDBRANCH  20  21
ENDBRANCH  19  20
ENDBRANCH   4  19
TORSDOF 6
ENDMDL
MODEL       52
REMARK 921   NORMALIZED FREE ENERGY PREDICTED BY IDOCK:   -5.61 KCAL/MOL
REMARK 922        TOTAL FREE ENERGY PREDICTED BY IDOCK:   -5.96 KCAL/MOL
REMARK 923 INTER-LIGAND FREE ENERGY PREDICTED BY IDOCK:   -7.99 KCAL/MOL
REMARK 924 INTRA-LIGAND FREE ENERGY PREDICTED BY IDOCK:    2.03 KCAL/MOL
REMARK 927      BINDING AFFINITY PREDICTED BY RF-SCORE:    0.00 PKD
ROOT
HETATM    1  C   UNL     1      -8.771   9.491  70.572  1.00  0.00    -0.197 C  
HETATM    2  N   UNL     1      -8.367   9.650  69.171  1.00  0.00    -0.122 N  
HETATM    3  C   UNL     2      -6.235   8.918  69.061  1.00  0.00    -0.044 C  
HETATM    4  N   UNL     2      -6.946   9.316  67.669  1.00  0.00    -0.077 NA 
HETATM    5  C   UNL     1      -7.569  11.112  68.514  1.00  0.00    -0.120 A  
HETATM    6  O   UNL     1      -8.951   7.070  68.597  1.00  0.00    -0.131 OA 
HETATM    7  C   UNL     1      -7.177  11.249  66.911  1.00  0.00    -0.142 A  
HETATM    8  C   UNL     2      -5.762   8.694  66.756  1.00  0.00    -0.048 C  
HETATM    9  C   UNL     1      -8.547   7.301  65.481  1.00  0.00    -0.075 C  
HETATM   10  N   UNL     1      -6.627  12.476  66.714  1.00  0.00    -0.439 NA 
HETATM   11  C   UNL     1      -7.467   9.860  65.694  1.00  0.00    -0.116 C  
HETATM   12  H   UNL     1      -6.320  12.893  65.836  1.00  0.00     0.000 HD 
HETATM   13  O   UNL     1      -7.262   9.994  64.485  1.00  0.00    -0.134 OA 
HETATM   14  N   UNL     1      -8.161   8.358  66.375  1.00  0.00    -0.107 N  
HETATM   15  C   UNL     1      -6.584  13.004  67.923  1.00  0.00    -0.131 A  
HETATM   16  C   UNL     1      -8.500   8.084  68.089  1.00  0.00    -0.123 C  
HETATM   17 CL   UNL     1      -5.864  14.507  68.289  1.00  0.00    -0.107 Cl 
HETATM   18  N   UNL     1      -7.119  12.304  68.989  1.00  0.00    -0.085 NA 
ENDROOT
BRANCH   4  19
HETATM   19  C   UNL     2      -8.878   9.979  67.261  1.00  0.00    -0.135 C  
BRANCH  19  20
HETATM   20  C   UNL     2     -10.481   9.357  67.596  1.00  0.00    -0.268 C  
BRANCH  20  21
HETATM   21  O   UNL     2     -11.459  10.407  67.581  1.00  0.00    -0.401 OA 
BRANCH  21  22
HETATM   22  C   UNL     2     -10.867  11.693  67.951  1.00  0.00    -0.210 C  
BRANCH  22  23
HETATM   23  C   UNL     2     -10.956  12.689  66.785  1.00  0.00    -0.296 A  
HETATM   24  C   UNL     2     -12.142  12.748  66.023  1.00  0.00    -0.458 A  
HETATM   25  C   UNL     2     -10.012  13.711  66.596  1.00  0.00    -0.283 A  
HETATM   26  C   UNL     2     -12.405  13.835  65.181  1.00  0.00    -0.476 A  
HETATM   27  C   UNL     2     -11.476  14.863  65.056  1.00  0.00    -0.379 A  
HETATM   28  C   UNL     2     -10.269  14.786  65.740  1.00  0.00    -0.359 A  
ENDBRANCH  22  23
BRANCH  22  29
HETATM   29  C   UNL     2     -11.498  12.089  69.277  1.00  0.00    -0.361 A  
HETATM   30  C   UNL     2     -12.953  12.806  71.583  1.00  0.00    -0.402 A  
HETATM   31  C   UNL     2     -12.388  13.792  70.782  1.00  0.00    -0.451 A  
HETATM   32  C   UNL     2     -12.042  11.106  70.122  1.00  0.00    -0.443 A  
HETATM   33  C   UNL     2     -11.685  13.435  69.631  1.00  0.00    -0.375 A  
HETATM   34  C   UNL     2     -12.778  11.465  71.257  1.00  0.00    -0.498 A  
ENDBRANCH  22  29
ENDBRANCH  21  22
ENDBRANCH  20  21
ENDBRANCH  19  20
ENDBRANCH   4  19
TORSDOF 6
ENDMDL
MODEL       53
REMARK 921   NORMALIZED FREE ENERGY PREDICTED BY IDOCK:   -5.60 KCAL/MOL
REMARK 922        TOTAL FREE ENERGY PREDICTED BY IDOCK:   -5.94 KCAL/MOL
REMARK 923 INTER-LIGAND FREE ENERGY PREDICTED BY IDOCK:   -7.99 KCAL/MOL
REMARK 924 INTRA-LIGAND FREE ENERGY PREDICTED BY IDOCK:    2.04 KCAL/MOL
REMARK 927      BINDING AFFINITY PREDICTED BY RF-SCORE:    0.00 PKD
ROOT
HETATM    1  C   UNL     1     -12.861  14.023  66.144  1.00  0.00    -0.118 C  
HETATM    2  N   UNL     1     -11.508  13.824  66.675  1.00  0.00    -0.331 N  
HETATM    3  C   UNL     2     -10.162  15.144  65.433  1.00  0.00    -0.372 C  
HETATM    4  N   UNL     2      -9.491  14.385  66.687  1.00  0.00    -0.272 NA 
HETATM    5  C   UNL     1     -10.355  12.601  66.057  1.00  0.00    -0.270 A  
HETATM    6  O   UNL     1     -11.685  16.019  68.248  1.00  0.00    -0.303 OA 
HETATM    7  C   UNL     1      -8.855  12.395  66.728  1.00  0.00    -0.189 A  
HETATM    8  C   UNL     2      -8.104  15.218  66.593  1.00  0.00    -0.036 C  
HETATM    9  C   UNL     1      -8.996  15.544  69.821  1.00  0.00    -0.033 C  
HETATM   10  N   UNL     1      -8.237  11.375  66.075  1.00  0.00    -0.363 NA 
HETATM   11  C   UNL     1      -8.233  13.473  68.121  1.00  0.00    -0.162 C  
HETATM   12  H   UNL     1      -7.324  10.967  66.271  1.00  0.00     0.000 HD 
HETATM   13  O   UNL     1      -7.155  13.262  68.683  1.00  0.00    -0.095 OA 
HETATM   14  N   UNL     1      -9.343  14.769  68.661  1.00  0.00    -0.195 N  
HETATM   15  C   UNL     1      -9.094  11.036  65.130  1.00  0.00    -0.181 A  
HETATM   16  C   UNL     1     -10.909  15.134  67.925  1.00  0.00    -0.291 C  
HETATM   17 CL   UNL     1      -8.778   9.875  63.920  1.00  0.00    -0.203 Cl 
HETATM   18  N   UNL     1     -10.324  11.667  65.069  1.00  0.00    -0.267 NA 
ENDROOT
BRANCH   4  19
HETATM   19  C   UNL     2     -10.316  13.127  68.127  1.00  0.00    -0.244 C  
BRANCH  19  20
HETATM   20  C   UNL     2      -9.776  11.666  68.929  1.00  0.00    -0.013 C  
BRANCH  20  21
HETATM   21  O   UNL     2     -10.848  10.722  69.064  1.00  0.00    -0.203 OA 
BRANCH  21  22
HETATM   22  C   UNL     2     -10.434   9.550  69.834  1.00  0.00    -0.240 C  
BRANCH  22  23
HETATM   23  C   UNL     2     -11.546   9.109  70.796  1.00  0.00    -0.329 A  
HETATM   24  C   UNL     2     -12.318  10.093  71.449  1.00  0.00    -0.515 A  
HETATM   25  C   UNL     2     -11.994   7.780  70.869  1.00  0.00    -0.229 A  
HETATM   26  C   UNL     2     -13.532   9.767  72.066  1.00  0.00    -0.498 A  
HETATM   27  C   UNL     2     -13.980   8.450  72.073  1.00  0.00    -0.468 A  
HETATM   28  C   UNL     2     -13.198   7.453  71.501  1.00  0.00    -0.426 A  
ENDBRANCH  22  23
BRANCH  22  29
HETATM   29  C   UNL     2      -9.919   8.535  68.825  1.00  0.00    -0.197 A  
HETATM   30  C   UNL     2      -8.742   6.873  66.875  1.00  0.00    -0.118 A  
HETATM   31  C   UNL     2      -9.865   7.629  66.559  1.00  0.00    -0.242 A  
HETATM   32  C   UNL     2      -8.807   7.732  69.136  1.00  0.00    -0.138 A  
HETATM   33  C   UNL     2     -10.434   8.465  67.522  1.00  0.00    -0.328 A  
HETATM   34  C   UNL     2      -8.214   6.921  68.162  1.00  0.00    -0.119 A  
ENDBRANCH  22  29
ENDBRANCH  21  22
ENDBRANCH  20  21
ENDBRANCH  19  20
ENDBRANCH   4  19
TORSDOF 6
ENDMDL
MODEL       54
REMARK 921   NORMALIZED FREE ENERGY PREDICTED BY IDOCK:   -5.59 KCAL/MOL
REMARK 922        TOTAL FREE ENERGY PREDICTED BY IDOCK:   -5.94 KCAL/MOL
REMARK 923 INTER-LIGAND FREE ENERGY PREDICTED BY IDOCK:   -8.41 KCAL/MOL
REMARK 924 INTRA-LIGAND FREE ENERGY PREDICTED BY IDOCK:    2.47 KCAL/MOL
REMARK 927      BINDING AFFINITY PREDICTED BY RF-SCORE:    0.00 PKD
ROOT
HETATM    1  C   UNL     1      -6.026   9.271  67.410  1.00  0.00    -0.049 C  
HETATM    2  N   UNL     1      -7.465   9.539  67.512  1.00  0.00    -0.091 N  
HETATM    3  C   UNL     2      -8.489   7.587  67.021  1.00  0.00    -0.122 C  
HETATM    4  N   UNL     2      -9.427   8.806  67.508  1.00  0.00    -0.139 NA 
HETATM    5  C   UNL     1      -8.490  10.060  66.139  1.00  0.00    -0.127 A  
HETATM    6  O   UNL     1      -7.573   8.596  70.046  1.00  0.00    -0.063 OA 
HETATM    7  C   UNL     1     -10.102  10.391  66.327  1.00  0.00    -0.231 A  
HETATM    8  C   UNL     2     -10.743   7.875  67.672  1.00  0.00    -0.145 C  
HETATM    9  C   UNL     1     -10.543   9.477  70.624  1.00  0.00    -0.308 C  
HETATM   10  N   UNL     1     -10.592  10.799  65.126  1.00  0.00    -0.222 NA 
HETATM   11  C   UNL     1     -10.979  10.168  67.961  1.00  0.00    -0.270 C  
HETATM   12  H   UNL     1     -11.535  11.119  64.909  1.00  0.00     0.000 HD 
HETATM   13  O   UNL     1     -12.155  10.501  68.126  1.00  0.00    -0.279 OA 
HETATM   14  N   UNL     1      -9.978   9.538  69.304  1.00  0.00    -0.178 N  
HETATM   15  C   UNL     1      -9.564  10.684  64.306  1.00  0.00    -0.296 A  
HETATM   16  C   UNL     1      -8.284   9.050  69.163  1.00  0.00    -0.121 C  
HETATM   17 CL   UNL     1      -9.644  10.947  62.622  1.00  0.00    -0.302 Cl 
HETATM   18  N   UNL     1      -8.334  10.295  64.808  1.00  0.00    -0.169 NA 
ENDROOT
BRANCH   4  19
HETATM   19  C   UNL     2      -8.952  10.742  68.110  1.00  0.00    -0.140 C  
BRANCH  19  20
HETATM   20  C   UNL     2      -9.434  12.340  67.580  1.00  0.00    -0.188 C  
BRANCH  20  21
HETATM   21  O   UNL     2      -9.436  13.271  68.673  1.00  0.00    -0.141 OA 
BRANCH  21  22
HETATM   22  C   UNL     2     -10.328  14.399  68.411  1.00  0.00    -0.244 C  
BRANCH  22  23
HETATM   23  C   UNL     2     -10.872  14.343  66.977  1.00  0.00    -0.297 A  
HETATM   24  C   UNL     2     -12.147  13.782  66.749  1.00  0.00    -0.460 A  
HETATM   25  C   UNL     2     -10.272  15.042  65.917  1.00  0.00    -0.335 A  
HETATM   26  C   UNL     2     -12.824  13.996  65.542  1.00  0.00    -0.453 A  
HETATM   27  C   UNL     2     -12.229  14.743  64.530  1.00  0.00    -0.443 A  
HETATM   28  C   UNL     2     -10.943  15.240  64.706  1.00  0.00    -0.403 A  
ENDBRANCH  22  23
BRANCH  22  29
HETATM   29  C   UNL     2     -11.332  14.425  69.554  1.00  0.00    -0.318 A  
HETATM   30  C   UNL     2     -13.419  14.404  71.450  1.00  0.00    -0.422 A  
HETATM   31  C   UNL     2     -12.995  15.606  70.896  1.00  0.00    -0.471 A  
HETATM   32  C   UNL     2     -11.748  13.225  70.156  1.00  0.00    -0.254 A  
HETATM   33  C   UNL     2     -11.974  15.612  69.943  1.00  0.00    -0.376 A  
HETATM   34  C   UNL     2     -12.796  13.215  71.084  1.00  0.00    -0.349 A  
ENDBRANCH  22  29
ENDBRANCH  21  22
ENDBRANCH  20  21
ENDBRANCH  19  20
ENDBRANCH   4  19
TORSDOF 6
ENDMDL
MODEL       55
REMARK 921   NORMALIZED FREE ENERGY PREDICTED BY IDOCK:   -5.59 KCAL/MOL
REMARK 922        TOTAL FREE ENERGY PREDICTED BY IDOCK:   -5.93 KCAL/MOL
REMARK 923 INTER-LIGAND FREE ENERGY PREDICTED BY IDOCK:   -9.01 KCAL/MOL
REMARK 924 INTRA-LIGAND FREE ENERGY PREDICTED BY IDOCK:    3.08 KCAL/MOL
REMARK 927      BINDING AFFINITY PREDICTED BY RF-SCORE:    0.00 PKD
ROOT
HETATM    1  C   UNL     1     -13.011  11.731  64.174  1.00  0.00     0.161 C  
HETATM    2  N   UNL     1     -12.016  12.223  65.133  1.00  0.00    -0.370 N  
HETATM    3  C   UNL     2     -10.575  13.478  63.931  1.00  0.00     0.244 C  
HETATM    4  N   UNL     2     -10.373  13.459  65.531  1.00  0.00    -0.289 NA 
HETATM    5  C   UNL     1     -10.481  11.382  65.510  1.00  0.00    -0.268 A  
HETATM    6  O   UNL     1     -13.317  14.576  65.441  1.00  0.00    -0.458 OA 
HETATM    7  C   UNL     1      -9.417  11.967  66.637  1.00  0.00    -0.217 A  
HETATM    8  C   UNL     2      -9.294  14.667  65.522  1.00  0.00     0.242 C  
HETATM    9  C   UNL     1     -11.549  15.650  67.818  1.00  0.00    -0.136 C  
HETATM   10  N   UNL     1      -8.378  11.096  66.728  1.00  0.00    -0.146 NA 
HETATM   11  C   UNL     1      -9.706  13.581  67.533  1.00  0.00    -0.228 C  
HETATM   12  H   UNL     1      -7.578  11.137  67.359  1.00  0.00     0.000 HD 
HETATM   13  O   UNL     1      -8.963  13.971  68.437  1.00  0.00    -0.188 OA 
HETATM   14  N   UNL     1     -11.185  14.476  67.072  1.00  0.00    -0.326 N  
HETATM   15  C   UNL     1      -8.645  10.184  65.812  1.00  0.00    -0.149 A  
HETATM   16  C   UNL     1     -12.312  13.985  65.801  1.00  0.00    -0.480 C  
HETATM   17 CL   UNL     1      -7.597   8.901  65.400  1.00  0.00    -0.086 Cl 
HETATM   18  N   UNL     1      -9.827  10.263  65.098  1.00  0.00    -0.302 NA 
ENDROOT
BRANCH   4  19
HETATM   19  C   UNL     2     -11.459  12.514  67.036  1.00  0.00    -0.356 C  
BRANCH  19  20
HETATM   20  C   UNL     2     -11.378  10.938  67.797  1.00  0.00    -0.292 C  
BRANCH  20  21
HETATM   21  O   UNL     2     -10.961  11.044  69.166  1.00  0.00    -0.207 OA 
BRANCH  21  22
HETATM   22  C   UNL     2     -12.039  10.674  70.082  1.00  0.00    -0.333 C  
BRANCH  22  23
HETATM   23  C   UNL     2     -11.649   9.445  70.916  1.00  0.00    -0.380 A  
HETATM   24  C   UNL     2     -10.295   9.257  71.265  1.00  0.00    -0.397 A  
HETATM   25  C   UNL     2     -12.602   8.634  71.552  1.00  0.00    -0.360 A  
HETATM   26  C   UNL     2      -9.928   8.360  72.277  1.00  0.00    -0.383 A  
HETATM   27  C   UNL     2     -10.901   7.611  72.932  1.00  0.00    -0.446 A  
HETATM   28  C   UNL     2     -12.232   7.726  72.549  1.00  0.00    -0.193 A  
ENDBRANCH  22  23
BRANCH  22  29
HETATM   29  C   UNL     2     -12.426  11.944  70.824  1.00  0.00    -0.384 A  
HETATM   30  C   UNL     2     -13.426  14.284  72.040  1.00  0.00    -0.499 A  
HETATM   31  C   UNL     2     -12.602  14.377  70.924  1.00  0.00    -0.422 A  
HETATM   32  C   UNL     2     -13.227  11.873  71.977  1.00  0.00    -0.461 A  
HETATM   33  C   UNL     2     -12.124  13.217  70.313  1.00  0.00    -0.399 A  
HETATM   34  C   UNL     2     -13.737  13.034  72.569  1.00  0.00    -0.501 A  
ENDBRANCH  22  29
ENDBRANCH  21  22
ENDBRANCH  20  21
ENDBRANCH  19  20
ENDBRANCH   4  19
TORSDOF 6
ENDMDL
MODEL       56
REMARK 921   NORMALIZED FREE ENERGY PREDICTED BY IDOCK:   -5.59 KCAL/MOL
REMARK 922        TOTAL FREE ENERGY PREDICTED BY IDOCK:   -5.93 KCAL/MOL
REMARK 923 INTER-LIGAND FREE ENERGY PREDICTED BY IDOCK:   -8.13 KCAL/MOL
REMARK 924 INTRA-LIGAND FREE ENERGY PREDICTED BY IDOCK:    2.20 KCAL/MOL
REMARK 927      BINDING AFFINITY PREDICTED BY RF-SCORE:    0.00 PKD
ROOT
HETATM    1  C   UNL     1     -12.517  14.654  68.965  1.00  0.00     0.064 C  
HETATM    2  N   UNL     1     -11.198  14.316  68.419  1.00  0.00    -0.257 N  
HETATM    3  C   UNL     2     -10.648  16.021  67.045  1.00  0.00    -0.302 C  
HETATM    4  N   UNL     2      -9.527  14.887  67.293  1.00  0.00    -0.209 NA 
HETATM    5  C   UNL     1     -10.942  13.416  66.892  1.00  0.00    -0.284 A  
HETATM    6  O   UNL     1      -9.924  15.816  70.276  1.00  0.00    -0.147 OA 
HETATM    7  C   UNL     1      -9.427  13.025  66.350  1.00  0.00    -0.224 A  
HETATM    8  C   UNL     2      -8.349  15.735  66.573  1.00  0.00    -0.278 C  
HETATM    9  C   UNL     1      -7.004  14.888  69.539  1.00  0.00    -0.180 C  
HETATM   10  N   UNL     1      -9.560  12.314  65.200  1.00  0.00    -0.454 NA 
HETATM   11  C   UNL     1      -7.880  13.563  67.250  1.00  0.00    -0.091 C  
HETATM   12  H   UNL     1      -8.826  11.886  64.637  1.00  0.00     0.000 HD 
HETATM   13  O   UNL     1      -6.756  13.195  66.900  1.00  0.00     0.038 OA 
HETATM   14  N   UNL     1      -8.135  14.559  68.714  1.00  0.00    -0.149 N  
HETATM   15  C   UNL     1     -10.861  12.306  64.979  1.00  0.00    -0.298 A  
HETATM   16  C   UNL     1      -9.708  15.119  69.298  1.00  0.00    -0.225 C  
HETATM   17 CL   UNL     1     -11.595  11.650  63.585  1.00  0.00    -0.498 Cl 
HETATM   18  N   UNL     1     -11.711  12.887  65.903  1.00  0.00    -0.377 NA 
ENDROOT
BRANCH   4  19
HETATM   19  C   UNL     2      -9.545  13.185  68.492  1.00  0.00    -0.117 C  
BRANCH  19  20
HETATM   20  C   UNL     2      -8.749  11.626  68.416  1.00  0.00    -0.158 C  
BRANCH  20  21
HETATM   21  O   UNL     2      -9.267  10.730  69.409  1.00  0.00    -0.118 OA 
BRANCH  21  22
HETATM   22  C   UNL     2     -10.400   9.960  68.896  1.00  0.00    -0.205 C  
BRANCH  22  23
HETATM   23  C   UNL     2      -9.940   8.584  68.392  1.00  0.00    -0.208 A  
HETATM   24  C   UNL     2      -9.042   7.832  69.178  1.00  0.00    -0.145 A  
HETATM   25  C   UNL     2     -10.558   7.934  67.312  1.00  0.00    -0.365 A  
HETATM   26  C   UNL     2      -8.848   6.465  68.944  1.00  0.00    -0.125 A  
HETATM   27  C   UNL     2      -9.518   5.833  67.901  1.00  0.00    -0.114 A  
HETATM   28  C   UNL     2     -10.349   6.573  67.068  1.00  0.00    -0.319 A  
ENDBRANCH  22  23
BRANCH  22  29
HETATM   29  C   UNL     2     -11.471  10.004  69.974  1.00  0.00    -0.310 A  
HETATM   30  C   UNL     2     -13.223  10.174  72.177  1.00  0.00    -0.463 A  
HETATM   31  C   UNL     2     -12.679   8.947  71.813  1.00  0.00    -0.421 A  
HETATM   32  C   UNL     2     -12.064  11.227  70.332  1.00  0.00    -0.474 A  
HETATM   33  C   UNL     2     -11.798   8.869  70.734  1.00  0.00    -0.230 A  
HETATM   34  C   UNL     2     -12.920  11.313  71.436  1.00  0.00    -0.482 A  
ENDBRANCH  22  29
ENDBRANCH  21  22
ENDBRANCH  20  21
ENDBRANCH  19  20
ENDBRANCH   4  19
TORSDOF 6
ENDMDL
MODEL       57
REMARK 921   NORMALIZED FREE ENERGY PREDICTED BY IDOCK:   -5.54 KCAL/MOL
REMARK 922        TOTAL FREE ENERGY PREDICTED BY IDOCK:   -5.86 KCAL/MOL
REMARK 923 INTER-LIGAND FREE ENERGY PREDICTED BY IDOCK:   -8.15 KCAL/MOL
REMARK 924 INTRA-LIGAND FREE ENERGY PREDICTED BY IDOCK:    2.29 KCAL/MOL
REMARK 927      BINDING AFFINITY PREDICTED BY RF-SCORE:    0.00 PKD
ROOT
HETATM    1  C   UNL     1      -7.661   9.290  68.381  1.00  0.00    -0.090 C  
HETATM    2  N   UNL     1      -8.769  10.072  67.821  1.00  0.00    -0.125 N  
HETATM    3  C   UNL     2      -8.273  12.232  68.251  1.00  0.00    -0.167 C  
HETATM    4  N   UNL     2      -9.576  11.945  67.345  1.00  0.00    -0.173 NA 
HETATM    5  C   UNL     1     -10.228  10.550  68.743  1.00  0.00    -0.190 A  
HETATM    6  O   UNL     1      -7.419  10.546  65.525  1.00  0.00    -0.148 OA 
HETATM    7  C   UNL     1     -11.467  11.396  68.042  1.00  0.00    -0.307 A  
HETATM    8  C   UNL     2      -9.767  13.499  66.928  1.00  0.00    -0.261 C  
HETATM    9  C   UNL     1      -9.815  11.884  63.976  1.00  0.00    -0.233 C  
HETATM   10  N   UNL     1     -12.440  11.571  68.976  1.00  0.00    -0.229 NA 
HETATM   11  C   UNL     1     -11.395  11.978  66.268  1.00  0.00    -0.357 C  
HETATM   12  H   UNL     1     -13.352  12.011  68.857  1.00  0.00     0.000 HD 
HETATM   13  O   UNL     1     -12.353  12.527  65.718  1.00  0.00    -0.627 OA 
HETATM   14  N   UNL     1      -9.888  11.598  65.383  1.00  0.00    -0.234 N  
HETATM   15  C   UNL     1     -11.931  11.039  70.071  1.00  0.00    -0.351 A  
HETATM   16  C   UNL     1      -8.472  10.803  66.086  1.00  0.00    -0.167 C  
HETATM   17 CL   UNL     1     -12.682  11.089  71.602  1.00  0.00    -0.506 Cl 
HETATM   18  N   UNL     1     -10.694  10.421  70.015  1.00  0.00    -0.281 NA 
ENDROOT
BRANCH   4  19
HETATM   19  C   UNL     2     -10.392  10.159  66.649  1.00  0.00    -0.208 C  
BRANCH  19  20
HETATM   20  C   UNL     2      -9.724   8.608  66.188  1.00  0.00    -0.222 C  
BRANCH  20  21
HETATM   21  O   UNL     2     -10.510   7.528  66.711  1.00  0.00    -0.305 OA 
BRANCH  21  22
HETATM   22  C   UNL     2      -9.664   6.456  67.235  1.00  0.00    -0.130 C  
BRANCH  22  23
HETATM   23  C   UNL     2     -10.187   5.962  68.591  1.00  0.00    -0.243 A  
HETATM   24  C   UNL     2      -9.564   4.852  69.202  1.00  0.00    -0.231 A  
HETATM   25  C   UNL     2     -11.090   6.707  69.366  1.00  0.00    -0.365 A  
HETATM   26  C   UNL     2      -9.771   4.565  70.557  1.00  0.00    -0.290 A  
HETATM   27  C   UNL     2     -10.627   5.356  71.317  1.00  0.00    -0.276 A  
HETATM   28  C   UNL     2     -11.308   6.408  70.714  1.00  0.00    -0.411 A  
ENDBRANCH  22  23
BRANCH  22  29
HETATM   29  C   UNL     2      -9.518   5.438  66.114  1.00  0.00    -0.171 A  
HETATM   30  C   UNL     2      -9.310   3.795  63.831  1.00  0.00    -0.143 A  
HETATM   31  C   UNL     2     -10.503   3.849  64.544  1.00  0.00    -0.221 A  
HETATM   32  C   UNL     2      -8.309   5.338  65.404  1.00  0.00    -0.136 A  
HETATM   33  C   UNL     2     -10.609   4.678  65.662  1.00  0.00    -0.241 A  
HETATM   34  C   UNL     2      -8.213   4.536  64.261  1.00  0.00    -0.109 A  
ENDBRANCH  22  29
ENDBRANCH  21  22
ENDBRANCH  20  21
ENDBRANCH  19  20
ENDBRANCH   4  19
TORSDOF 6
ENDMDL
MODEL       58
REMARK 921   NORMALIZED FREE ENERGY PREDICTED BY IDOCK:   -5.51 KCAL/MOL
REMARK 922        TOTAL FREE ENERGY PREDICTED BY IDOCK:   -5.83 KCAL/MOL
REMARK 923 INTER-LIGAND FREE ENERGY PREDICTED BY IDOCK:   -7.70 KCAL/MOL
REMARK 924 INTRA-LIGAND FREE ENERGY PREDICTED BY IDOCK:    1.87 KCAL/MOL
REMARK 927      BINDING AFFINITY PREDICTED BY RF-SCORE:    0.00 PKD
ROOT
HETATM    1  C   UNL     1      -6.804   8.040  70.163  1.00  0.00    -0.041 C  
HETATM    2  N   UNL     1      -7.672   7.415  69.159  1.00  0.00    -0.108 N  
HETATM    3  C   UNL     2      -6.391   7.152  67.319  1.00  0.00    -0.049 C  
HETATM    4  N   UNL     2      -7.876   6.524  67.276  1.00  0.00    -0.104 NA 
HETATM    5  C   UNL     1      -8.648   8.327  67.967  1.00  0.00    -0.132 A  
HETATM    6  O   UNL     1      -6.767   4.937  69.760  1.00  0.00    -0.040 OA 
HETATM    7  C   UNL     1      -9.645   7.564  66.886  1.00  0.00    -0.187 A  
HETATM    8  C   UNL     2      -7.612   5.708  65.901  1.00  0.00    -0.086 C  
HETATM    9  C   UNL     1      -8.837   3.363  67.981  1.00  0.00    -0.122 C  
HETATM   10  N   UNL     1     -10.276   8.517  66.150  1.00  0.00    -0.393 NA 
HETATM   11  C   UNL     1      -9.761   5.702  66.783  1.00  0.00    -0.154 C  
HETATM   12  H   UNL     1     -10.987   8.386  65.431  1.00  0.00     0.000 HD 
HETATM   13  O   UNL     1     -10.569   5.135  66.045  1.00  0.00    -0.252 OA 
HETATM   14  N   UNL     1      -8.700   4.791  67.899  1.00  0.00    -0.103 N  
HETATM   15  C   UNL     1      -9.756   9.650  66.581  1.00  0.00    -0.209 A  
HETATM   16  C   UNL     1      -7.523   5.520  69.001  1.00  0.00    -0.082 C  
HETATM   17 CL   UNL     1     -10.098  11.181  65.909  1.00  0.00    -0.283 Cl 
HETATM   18  N   UNL     1      -8.847   9.628  67.623  1.00  0.00    -0.125 NA 
ENDROOT
BRANCH   4  19
HETATM   19  C   UNL     2      -9.380   6.464  68.716  1.00  0.00    -0.125 C  
BRANCH  19  20
HETATM   20  C   UNL     2     -11.125   6.340  68.656  1.00  0.00    -0.325 C  
BRANCH  20  21
HETATM   21  O   UNL     2     -11.694   6.383  69.973  1.00  0.00    -0.429 OA 
BRANCH  21  22
HETATM   22  C   UNL     2     -11.016   7.367  70.815  1.00  0.00    -0.255 C  
BRANCH  22  23
HETATM   23  C   UNL     2     -11.752   8.714  70.780  1.00  0.00    -0.239 A  
HETATM   24  C   UNL     2     -12.963   8.852  71.491  1.00  0.00    -0.379 A  
HETATM   25  C   UNL     2     -11.157   9.883  70.280  1.00  0.00    -0.368 A  
HETATM   26  C   UNL     2     -13.499  10.116  71.766  1.00  0.00    -0.406 A  
HETATM   27  C   UNL     2     -12.857  11.262  71.307  1.00  0.00    -0.491 A  
HETATM   28  C   UNL     2     -11.703  11.144  70.540  1.00  0.00    -0.392 A  
ENDBRANCH  22  23
BRANCH  22  29
HETATM   29  C   UNL     2     -10.809   6.703  72.168  1.00  0.00    -0.259 A  
HETATM   30  C   UNL     2     -10.152   5.348  74.552  1.00  0.00    -0.291 A  
HETATM   31  C   UNL     2     -11.034   4.772  73.644  1.00  0.00    -0.391 A  
HETATM   32  C   UNL     2      -9.952   7.286  73.117  1.00  0.00    -0.295 A  
HETATM   33  C   UNL     2     -11.342   5.437  72.456  1.00  0.00    -0.286 A  
HETATM   34  C   UNL     2      -9.613   6.605  74.292  1.00  0.00    -0.296 A  
ENDBRANCH  22  29
ENDBRANCH  21  22
ENDBRANCH  20  21
ENDBRANCH  19  20
ENDBRANCH   4  19
TORSDOF 6
ENDMDL
MODEL       59
REMARK 921   NORMALIZED FREE ENERGY PREDICTED BY IDOCK:   -5.49 KCAL/MOL
REMARK 922        TOTAL FREE ENERGY PREDICTED BY IDOCK:   -5.80 KCAL/MOL
REMARK 923 INTER-LIGAND FREE ENERGY PREDICTED BY IDOCK:   -8.18 KCAL/MOL
REMARK 924 INTRA-LIGAND FREE ENERGY PREDICTED BY IDOCK:    2.38 KCAL/MOL
REMARK 927      BINDING AFFINITY PREDICTED BY RF-SCORE:    0.00 PKD
ROOT
HETATM    1  C   UNL     1      -8.015  12.239  68.209  1.00  0.00    -0.163 C  
HETATM    2  N   UNL     1      -9.275  12.722  67.632  1.00  0.00    -0.184 N  
HETATM    3  C   UNL     2      -8.741  14.574  66.456  1.00  0.00    -0.044 C  
HETATM    4  N   UNL     2     -10.262  14.050  66.349  1.00  0.00    -0.284 NA 
HETATM    5  C   UNL     1     -10.351  13.915  68.423  1.00  0.00    -0.249 A  
HETATM    6  O   UNL     1      -8.802  11.472  65.279  1.00  0.00    -0.033 OA 
HETATM    7  C   UNL     1     -11.784  14.387  67.740  1.00  0.00    -0.376 A  
HETATM    8  C   UNL     2     -10.640  15.050  65.132  1.00  0.00    -0.418 C  
HETATM    9  C   UNL     1     -11.627  12.038  64.004  1.00  0.00    -0.411 C  
HETATM   10  N   UNL     1     -12.388  15.260  68.590  1.00  0.00    -0.560 NA 
HETATM   11  C   UNL     1     -12.339  13.771  66.066  1.00  0.00    -0.457 C  
HETATM   12  H   UNL     1     -13.302  15.701  68.490  1.00  0.00     0.000 HD 
HETATM   13  O   UNL     1     -13.446  14.048  65.599  1.00  0.00    -0.604 OA 
HETATM   14  N   UNL     1     -11.208  12.666  65.227  1.00  0.00    -0.292 N  
HETATM   15  C   UNL     1     -11.519  15.403  69.572  1.00  0.00    -0.319 A  
HETATM   16  C   UNL     1      -9.611  12.203  65.828  1.00  0.00    -0.197 C  
HETATM   17 CL   UNL     1     -11.707  16.495  70.870  1.00  0.00    -0.110 Cl 
HETATM   18  N   UNL     1     -10.353  14.658  69.562  1.00  0.00    -0.125 NA 
ENDROOT
BRANCH   4  19
HETATM   19  C   UNL     2     -11.201  12.391  67.189  1.00  0.00    -0.298 C  
BRANCH  19  20
HETATM   20  C   UNL     2     -10.764  10.706  67.382  1.00  0.00    -0.276 C  
BRANCH  20  21
HETATM   21  O   UNL     2     -11.078  10.236  68.701  1.00  0.00    -0.243 OA 
BRANCH  21  22
HETATM   22  C   UNL     2     -10.466   8.934  68.964  1.00  0.00    -0.214 C  
BRANCH  22  23
HETATM   23  C   UNL     2      -8.942   9.065  69.097  1.00  0.00    -0.140 A  
HETATM   24  C   UNL     2      -8.395   9.481  70.330  1.00  0.00    -0.221 A  
HETATM   25  C   UNL     2      -8.056   8.558  68.133  1.00  0.00    -0.119 A  
HETATM   26  C   UNL     2      -7.035   9.306  70.612  1.00  0.00    -0.101 A  
HETATM   27  C   UNL     2      -6.190   8.746  69.658  1.00  0.00    -0.036 A  
HETATM   28  C   UNL     2      -6.695   8.400  68.410  1.00  0.00    -0.064 A  
ENDBRANCH  22  23
BRANCH  22  29
HETATM   29  C   UNL     2     -11.233   8.327  70.129  1.00  0.00    -0.132 A  
HETATM   30  C   UNL     2     -12.883   7.119  72.071  1.00  0.00    -0.204 A  
HETATM   31  C   UNL     2     -12.938   8.493  71.868  1.00  0.00    -0.394 A  
HETATM   32  C   UNL     2     -11.162   6.946  70.378  1.00  0.00    -0.359 A  
HETATM   33  C   UNL     2     -12.135   9.086  70.892  1.00  0.00    -0.247 A  
HETATM   34  C   UNL     2     -11.994   6.345  71.330  1.00  0.00    -0.307 A  
ENDBRANCH  22  29
ENDBRANCH  21  22
ENDBRANCH  20  21
ENDBRANCH  19  20
ENDBRANCH   4  19
TORSDOF 6
ENDMDL
MODEL       60
REMARK 921   NORMALIZED FREE ENERGY PREDICTED BY IDOCK:   -5.42 KCAL/MOL
REMARK 922        TOTAL FREE ENERGY PREDICTED BY IDOCK:   -5.71 KCAL/MOL
REMARK 923 INTER-LIGAND FREE ENERGY PREDICTED BY IDOCK:   -7.77 KCAL/MOL
REMARK 924 INTRA-LIGAND FREE ENERGY PREDICTED BY IDOCK:    2.06 KCAL/MOL
REMARK 927      BINDING AFFINITY PREDICTED BY RF-SCORE:    0.00 PKD
ROOT
HETATM    1  C   UNL     1      -7.544  13.664  68.396  1.00  0.00    -0.132 C  
HETATM    2  N   UNL     1      -8.831  13.409  67.738  1.00  0.00    -0.187 N  
HETATM    3  C   UNL     2     -10.346  14.663  68.846  1.00  0.00    -0.245 C  
HETATM    4  N   UNL     2     -10.861  13.881  67.533  1.00  0.00    -0.264 NA 
HETATM    5  C   UNL     1      -9.983  12.134  68.242  1.00  0.00    -0.212 A  
HETATM    6  O   UNL     1      -8.601  15.617  66.190  1.00  0.00    -0.297 OA 
HETATM    7  C   UNL     1     -11.401  11.866  67.430  1.00  0.00    -0.324 A  
HETATM    8  C   UNL     2     -12.285  14.652  67.494  1.00  0.00    -0.046 C  
HETATM    9  C   UNL     1     -11.103  15.033  64.367  1.00  0.00    -0.104 C  
HETATM   10  N   UNL     1     -12.033  10.817  68.020  1.00  0.00    -0.773 NA 
HETATM   11  C   UNL     1     -11.934  12.923  65.984  1.00  0.00    -0.446 C  
HETATM   12  H   UNL     1     -12.905  10.370  67.737  1.00  0.00     0.000 HD 
HETATM   13  O   UNL     1     -12.942  12.667  65.321  1.00  0.00    -0.657 OA 
HETATM   14  N   UNL     1     -10.835  14.268  65.553  1.00  0.00    -0.307 N  
HETATM   15  C   UNL     1     -11.257  10.511  69.042  1.00  0.00    -0.259 A  
HETATM   16  C   UNL     1      -9.364  14.697  66.436  1.00  0.00    -0.284 C  
HETATM   17 CL   UNL     1     -11.636   9.331  70.216  1.00  0.00    -0.204 Cl 
HETATM   18  N   UNL     1     -10.068  11.194  69.221  1.00  0.00    -0.109 NA 
ENDROOT
BRANCH   4  19
HETATM   19  C   UNL     2      -9.847  12.667  66.177  1.00  0.00    -0.259 C  
BRANCH  19  20
HETATM   20  C   UNL     2     -10.068  11.029  65.600  1.00  0.00    -0.256 C  
BRANCH  20  21
HETATM   21  O   UNL     2      -9.070  10.150  66.137  1.00  0.00    -0.149 OA 
BRANCH  21  22
HETATM   22  C   UNL     2      -9.255   8.779  65.664  1.00  0.00    -0.180 C  
BRANCH  22  23
HETATM   23  C   UNL     2      -8.054   8.327  64.820  1.00  0.00    -0.151 A  
HETATM   24  C   UNL     2      -7.792   6.947  64.685  1.00  0.00    -0.116 A  
HETATM   25  C   UNL     2      -7.354   9.205  63.978  1.00  0.00    -0.100 A  
HETATM   26  C   UNL     2      -6.935   6.469  63.686  1.00  0.00    -0.051 A  
HETATM   27  C   UNL     2      -6.299   7.360  62.827  1.00  0.00    -0.054 A  
HETATM   28  C   UNL     2      -6.485   8.727  62.992  1.00  0.00    -0.090 A  
ENDBRANCH  22  23
BRANCH  22  29
HETATM   29  C   UNL     2      -9.620   7.949  66.885  1.00  0.00    -0.263 A  
HETATM   30  C   UNL     2     -10.084   6.191  69.041  1.00  0.00    -0.213 A  
HETATM   31  C   UNL     2     -10.931   6.180  67.938  1.00  0.00    -0.399 A  
HETATM   32  C   UNL     2      -8.800   7.973  68.027  1.00  0.00    -0.128 A  
HETATM   33  C   UNL     2     -10.687   7.037  66.865  1.00  0.00    -0.376 A  
HETATM   34  C   UNL     2      -9.021   7.089  69.088  1.00  0.00    -0.134 A  
ENDBRANCH  22  29
ENDBRANCH  21  22
ENDBRANCH  20  21
ENDBRANCH  19  20
ENDBRANCH   4  19
TORSDOF 6
ENDMDL
MODEL       61
REMARK 921   NORMALIZED FREE ENERGY PREDICTED BY IDOCK:   -5.39 KCAL/MOL
REMARK 922        TOTAL FREE ENERGY PREDICTED BY IDOCK:   -5.67 KCAL/MOL
REMARK 923 INTER-LIGAND FREE ENERGY PREDICTED BY IDOCK:   -8.04 KCAL/MOL
REMARK 924 INTRA-LIGAND FREE ENERGY PREDICTED BY IDOCK:    2.37 KCAL/MOL
REMARK 927      BINDING AFFINITY PREDICTED BY RF-SCORE:    0.00 PKD
ROOT
HETATM    1  C   UNL     1     -11.183  10.323  70.670  1.00  0.00    -0.325 C  
HETATM    2  N   UNL     1     -10.177  10.358  69.602  1.00  0.00    -0.230 N  
HETATM    3  C   UNL     2     -10.235   8.318  68.637  1.00  0.00    -0.204 C  
HETATM    4  N   UNL     2      -9.286   9.427  67.952  1.00  0.00    -0.130 NA 
HETATM    5  C   UNL     1      -8.469   9.863  69.814  1.00  0.00    -0.192 A  
HETATM    6  O   UNL     1     -12.032  10.953  67.724  1.00  0.00    -0.553 OA 
HETATM    7  C   UNL     1      -7.369   9.968  68.581  1.00  0.00    -0.081 A  
HETATM    8  C   UNL     2      -9.007   8.534  66.629  1.00  0.00    -0.148 C  
HETATM    9  C   UNL     1      -9.998  11.496  65.379  1.00  0.00    -0.248 C  
HETATM   10  N   UNL     1      -6.161   9.564  69.057  1.00  0.00    -0.042 NA 
HETATM   11  C   UNL     1      -7.848  10.533  66.866  1.00  0.00    -0.117 C  
HETATM   12  H   UNL     1      -5.267   9.550  68.569  1.00  0.00     0.000 HD 
HETATM   13  O   UNL     1      -7.014  10.700  65.973  1.00  0.00    -0.127 OA 
HETATM   14  N   UNL     1      -9.579  10.919  66.627  1.00  0.00    -0.182 N  
HETATM   15  C   UNL     1      -6.416   9.193  70.298  1.00  0.00    -0.050 A  
HETATM   16  C   UNL     1     -10.840  10.724  67.852  1.00  0.00    -0.264 C  
HETATM   17 CL   UNL     1      -5.271   8.474  71.339  1.00  0.00    -0.032 Cl 
HETATM   18  N   UNL     1      -7.692   9.354  70.807  1.00  0.00    -0.241 NA 
ENDROOT
BRANCH   4  19
HETATM   19  C   UNL     2      -8.946  11.424  68.435  1.00  0.00    -0.172 C  
BRANCH  19  20
HETATM   20  C   UNL     2      -9.982  12.784  68.813  1.00  0.00    -0.003 C  
BRANCH  20  21
HETATM   21  O   UNL     2      -9.366  14.026  68.441  1.00  0.00    -0.207 OA 
BRANCH  21  22
HETATM   22  C   UNL     2     -10.355  15.094  68.307  1.00  0.00    -0.231 C  
BRANCH  22  23
HETATM   23  C   UNL     2      -9.740  16.454  68.667  1.00  0.00    -0.239 A  
HETATM   24  C   UNL     2      -8.337  16.567  68.767  1.00  0.00    -0.248 A  
HETATM   25  C   UNL     2     -10.487  17.643  68.660  1.00  0.00    -0.317 A  
HETATM   26  C   UNL     2      -7.711  17.820  68.765  1.00  0.00    -0.252 A  
HETATM   27  C   UNL     2      -8.474  18.981  68.699  1.00  0.00    -0.394 A  
HETATM   28  C   UNL     2      -9.861  18.893  68.676  1.00  0.00    -0.463 A  
ENDBRANCH  22  23
BRANCH  22  29
HETATM   29  C   UNL     2     -10.974  14.935  66.927  1.00  0.00    -0.327 A  
HETATM   30  C   UNL     2     -12.284  14.914  64.430  1.00  0.00    -0.399 A  
HETATM   31  C   UNL     2     -12.793  14.170  65.489  1.00  0.00    -0.404 A  
HETATM   32  C   UNL     2     -10.453  15.646  65.832  1.00  0.00    -0.358 A  
HETATM   33  C   UNL     2     -12.153  14.198  66.729  1.00  0.00    -0.474 A  
HETATM   34  C   UNL     2     -11.114  15.648  64.599  1.00  0.00    -0.387 A  
ENDBRANCH  22  29
ENDBRANCH  21  22
ENDBRANCH  20  21
ENDBRANCH  19  20
ENDBRANCH   4  19
TORSDOF 6
ENDMDL
MODEL       62
REMARK 921   NORMALIZED FREE ENERGY PREDICTED BY IDOCK:   -5.38 KCAL/MOL
REMARK 922        TOTAL FREE ENERGY PREDICTED BY IDOCK:   -5.65 KCAL/MOL
REMARK 923 INTER-LIGAND FREE ENERGY PREDICTED BY IDOCK:   -8.08 KCAL/MOL
REMARK 924 INTRA-LIGAND FREE ENERGY PREDICTED BY IDOCK:    2.43 KCAL/MOL
REMARK 927      BINDING AFFINITY PREDICTED BY RF-SCORE:    0.00 PKD
ROOT
HETATM    1  C   UNL     1      -7.091  14.419  69.324  1.00  0.00    -0.124 C  
HETATM    2  N   UNL     1      -8.249  13.808  68.660  1.00  0.00    -0.120 N  
HETATM    3  C   UNL     2      -8.796  15.205  66.973  1.00  0.00    -0.234 C  
HETATM    4  N   UNL     2      -9.605  13.813  67.065  1.00  0.00    -0.243 NA 
HETATM    5  C   UNL     1      -9.952  14.160  69.086  1.00  0.00     0.028 A  
HETATM    6  O   UNL     1      -6.693  12.646  66.776  1.00  0.00     0.034 OA 
HETATM    7  C   UNL     1     -11.217  13.404  68.329  1.00  0.00    -0.279 A  
HETATM    8  C   UNL     2     -10.304  13.994  65.615  1.00  0.00    -0.329 C  
HETATM    9  C   UNL     1      -8.969  10.909  65.461  1.00  0.00    -0.197 C  
HETATM   10  N   UNL     1     -12.372  13.846  68.894  1.00  0.00    -0.454 NA 
HETATM   11  C   UNL     1     -10.958  12.194  66.929  1.00  0.00    -0.270 C  
HETATM   12  H   UNL     1     -13.325  13.546  68.690  1.00  0.00     0.000 HD 
HETATM   13  O   UNL     1     -11.890  11.561  66.428  1.00  0.00    -0.397 OA 
HETATM   14  N   UNL     1      -9.260  11.930  66.430  1.00  0.00    -0.214 N  
HETATM   15  C   UNL     1     -11.973  14.751  69.768  1.00  0.00    -0.321 A  
HETATM   16  C   UNL     1      -7.862  12.780  67.102  1.00  0.00    -0.092 C  
HETATM   17 CL   UNL     1     -13.028  15.730  70.685  1.00  0.00    -0.366 Cl 
HETATM   18  N   UNL     1     -10.620  14.970  69.951  1.00  0.00    -0.220 NA 
ENDROOT
BRANCH   4  19
HETATM   19  C   UNL     2      -9.427  12.211  68.385  1.00  0.00    -0.179 C  
BRANCH  19  20
HETATM   20  C   UNL     2     -10.556  11.062  69.072  1.00  0.00    -0.225 C  
BRANCH  20  21
HETATM   21  O   UNL     2      -9.883   9.877  69.519  1.00  0.00    -0.196 OA 
BRANCH  21  22
HETATM   22  C   UNL     2     -10.185   9.586  70.919  1.00  0.00    -0.286 C  
BRANCH  22  23
HETATM   23  C   UNL     2     -11.630   9.090  71.074  1.00  0.00    -0.360 A  
HETATM   24  C   UNL     2     -11.901   7.713  70.926  1.00  0.00    -0.272 A  
HETATM   25  C   UNL     2     -12.652   9.900  71.595  1.00  0.00    -0.519 A  
HETATM   26  C   UNL     2     -13.110   7.164  71.370  1.00  0.00    -0.408 A  
HETATM   27  C   UNL     2     -14.083   7.982  71.937  1.00  0.00    -0.482 A  
HETATM   28  C   UNL     2     -13.866   9.353  72.021  1.00  0.00    -0.409 A  
ENDBRANCH  22  23
BRANCH  22  29
HETATM   29  C   UNL     2      -9.066   8.688  71.423  1.00  0.00    -0.295 A  
HETATM   30  C   UNL     2      -6.838   7.294  72.444  1.00  0.00    -0.063 A  
HETATM   31  C   UNL     2      -6.919   7.576  71.085  1.00  0.00    -0.054 A  
HETATM   32  C   UNL     2      -8.984   8.357  72.786  1.00  0.00    -0.291 A  
HETATM   33  C   UNL     2      -8.014   8.283  70.585  1.00  0.00    -0.094 A  
HETATM   34  C   UNL     2      -7.870   7.681  73.295  1.00  0.00    -0.149 A  
ENDBRANCH  22  29
ENDBRANCH  21  22
ENDBRANCH  20  21
ENDBRANCH  19  20
ENDBRANCH   4  19
TORSDOF 6
ENDMDL
MODEL       63
REMARK 921   NORMALIZED FREE ENERGY PREDICTED BY IDOCK:   -5.34 KCAL/MOL
REMARK 922        TOTAL FREE ENERGY PREDICTED BY IDOCK:   -5.59 KCAL/MOL
REMARK 923 INTER-LIGAND FREE ENERGY PREDICTED BY IDOCK:   -7.78 KCAL/MOL
REMARK 924 INTRA-LIGAND FREE ENERGY PREDICTED BY IDOCK:    2.19 KCAL/MOL
REMARK 927      BINDING AFFINITY PREDICTED BY RF-SCORE:    0.00 PKD
ROOT
HETATM    1  C   UNL     1     -10.539   9.351  66.620  1.00  0.00    -0.100 C  
HETATM    2  N   UNL     1      -9.548   9.463  67.696  1.00  0.00    -0.132 N  
HETATM    3  C   UNL     2      -8.671   7.396  67.939  1.00  0.00    -0.123 C  
HETATM    4  N   UNL     2      -8.011   8.581  68.811  1.00  0.00    -0.117 NA 
HETATM    5  C   UNL     1      -9.908   9.171  69.427  1.00  0.00    -0.172 A  
HETATM    6  O   UNL     1      -7.514   9.779  65.941  1.00  0.00    -0.097 OA 
HETATM    7  C   UNL     1      -8.756   9.357  70.602  1.00  0.00    -0.211 A  
HETATM    8  C   UNL     2      -6.753   7.679  69.289  1.00  0.00    -0.044 C  
HETATM    9  C   UNL     1      -5.304  10.465  68.080  1.00  0.00    -0.034 C  
HETATM   10  N   UNL     1      -9.338   9.108  71.806  1.00  0.00    -0.327 NA 
HETATM   11  C   UNL     1      -6.987   9.803  70.200  1.00  0.00    -0.118 C  
HETATM   12  H   UNL     1      -8.918   9.178  72.732  1.00  0.00     0.000 HD 
HETATM   13  O   UNL     1      -6.152  10.032  71.078  1.00  0.00    -0.166 OA 
HETATM   14  N   UNL     1      -6.604   9.983  68.461  1.00  0.00    -0.053 N  
HETATM   15  C   UNL     1     -10.571   8.754  71.497  1.00  0.00    -0.309 A  
HETATM   16  C   UNL     1      -7.739   9.690  67.137  1.00  0.00    -0.091 C  
HETATM   17 CL   UNL     1     -11.725   8.206  72.628  1.00  0.00    -0.459 Cl 
HETATM   18  N   UNL     1     -10.977   8.788  70.175  1.00  0.00    -0.238 NA 
ENDROOT
BRANCH   4  19
HETATM   19  C   UNL     2      -8.430  10.619  68.891  1.00  0.00    -0.154 C  
BRANCH  19  20
HETATM   20  C   UNL     2      -8.186  11.962  67.794  1.00  0.00    -0.148 C  
BRANCH  20  21
HETATM   21  O   UNL     2      -9.299  12.866  67.824  1.00  0.00    -0.188 OA 
BRANCH  21  22
HETATM   22  C   UNL     2      -9.429  13.596  66.563  1.00  0.00    -0.259 C  
BRANCH  22  23
HETATM   23  C   UNL     2     -10.335  12.836  65.584  1.00  0.00    -0.296 A  
HETATM   24  C   UNL     2     -11.726  12.809  65.819  1.00  0.00    -0.449 A  
HETATM   25  C   UNL     2      -9.878  12.375  64.339  1.00  0.00    -0.116 A  
HETATM   26  C   UNL     2     -12.620  12.425  64.812  1.00  0.00    -0.419 A  
HETATM   27  C   UNL     2     -12.142  12.028  63.567  1.00  0.00    -0.628 A  
HETATM   28  C   UNL     2     -10.771  11.975  63.341  1.00  0.00    -0.475 A  
ENDBRANCH  22  23
BRANCH  22  29
HETATM   29  C   UNL     2      -9.813  15.021  66.930  1.00  0.00    -0.244 A  
HETATM   30  C   UNL     2     -10.231  17.689  67.742  1.00  0.00    -0.354 A  
HETATM   31  C   UNL     2     -10.684  16.641  68.535  1.00  0.00    -0.351 A  
HETATM   32  C   UNL     2      -9.400  16.095  66.122  1.00  0.00    -0.372 A  
HETATM   33  C   UNL     2     -10.459  15.322  68.141  1.00  0.00    -0.246 A  
HETATM   34  C   UNL     2      -9.593  17.418  66.535  1.00  0.00    -0.292 A  
ENDBRANCH  22  29
ENDBRANCH  21  22
ENDBRANCH  20  21
ENDBRANCH  19  20
ENDBRANCH   4  19
TORSDOF 6
ENDMDL
MODEL       64
REMARK 921   NORMALIZED FREE ENERGY PREDICTED BY IDOCK:   -5.33 KCAL/MOL
REMARK 922        TOTAL FREE ENERGY PREDICTED BY IDOCK:   -5.58 KCAL/MOL
REMARK 923 INTER-LIGAND FREE ENERGY PREDICTED BY IDOCK:   -7.71 KCAL/MOL
REMARK 924 INTRA-LIGAND FREE ENERGY PREDICTED BY IDOCK:    2.12 KCAL/MOL
REMARK 927      BINDING AFFINITY PREDICTED BY RF-SCORE:    0.00 PKD
ROOT
HETATM    1  C   UNL     1      -7.224   9.478  69.184  1.00  0.00    -0.067 C  
HETATM    2  N   UNL     1      -8.324   9.951  68.335  1.00  0.00    -0.106 N  
HETATM    3  C   UNL     2      -8.180  12.204  68.344  1.00  0.00    -0.145 C  
HETATM    4  N   UNL     2      -9.281  11.543  67.368  1.00  0.00    -0.164 NA 
HETATM    5  C   UNL     1      -9.956  10.366  68.944  1.00  0.00    -0.199 A  
HETATM    6  O   UNL     1      -6.709  10.169  66.175  1.00  0.00    -0.093 OA 
HETATM    7  C   UNL     1     -11.171  10.852  67.929  1.00  0.00    -0.321 A  
HETATM    8  C   UNL     2      -9.603  12.934  66.604  1.00  0.00    -0.257 C  
HETATM    9  C   UNL     1      -8.990  10.784  64.090  1.00  0.00    -0.154 C  
HETATM   10  N   UNL     1     -12.290  11.052  68.675  1.00  0.00    -0.737 NA 
HETATM   11  C   UNL     1     -10.902  11.078  66.094  1.00  0.00    -0.146 C  
HETATM   12  H   UNL     1     -13.221  11.311  68.352  1.00  0.00     0.000 HD 
HETATM   13  O   UNL     1     -11.826  11.350  65.324  1.00  0.00     0.003 OA 
HETATM   14  N   UNL     1      -9.240  10.772  65.505  1.00  0.00    -0.194 N  
HETATM   15  C   UNL     1     -11.891  10.832  69.913  1.00  0.00    -0.335 A  
HETATM   16  C   UNL     1      -7.860  10.364  66.532  1.00  0.00    -0.124 C  
HETATM   17 CL   UNL     1     -12.868  11.065  71.293  1.00  0.00    -0.513 Cl 
HETATM   18  N   UNL     1     -10.592  10.417  70.146  1.00  0.00    -0.248 NA 
ENDROOT
BRANCH   4  19
HETATM   19  C   UNL     2      -9.745   9.550  66.981  1.00  0.00    -0.176 C  
BRANCH  19  20
HETATM   20  C   UNL     2      -9.069   8.016  67.487  1.00  0.00    -0.137 C  
BRANCH  20  21
HETATM   21  O   UNL     2     -10.075   7.168  68.060  1.00  0.00    -0.156 OA 
BRANCH  21  22
HETATM   22  C   UNL     2      -9.548   6.400  69.187  1.00  0.00    -0.136 C  
BRANCH  22  23
HETATM   23  C   UNL     2     -10.285   6.761  70.485  1.00  0.00    -0.212 A  
HETATM   24  C   UNL     2      -9.569   7.387  71.527  1.00  0.00    -0.163 A  
HETATM   25  C   UNL     2     -11.684   6.721  70.591  1.00  0.00    -0.440 A  
HETATM   26  C   UNL     2     -10.236   8.026  72.579  1.00  0.00    -0.361 A  
HETATM   27  C   UNL     2     -11.627   8.021  72.629  1.00  0.00    -0.448 A  
HETATM   28  C   UNL     2     -12.349   7.345  71.652  1.00  0.00    -0.373 A  
ENDBRANCH  22  23
BRANCH  22  29
HETATM   29  C   UNL     2      -9.548   4.943  68.749  1.00  0.00    -0.219 A  
HETATM   30  C   UNL     2      -9.224   2.257  67.955  1.00  0.00    -0.240 A  
HETATM   31  C   UNL     2      -9.392   3.250  66.997  1.00  0.00    -0.198 A  
HETATM   32  C   UNL     2      -9.417   3.919  69.703  1.00  0.00    -0.263 A  
HETATM   33  C   UNL     2      -9.533   4.581  67.392  1.00  0.00    -0.189 A  
HETATM   34  C   UNL     2      -9.239   2.588  69.307  1.00  0.00    -0.196 A  
ENDBRANCH  22  29
ENDBRANCH  21  22
ENDBRANCH  20  21
ENDBRANCH  19  20
ENDBRANCH   4  19
TORSDOF 6
ENDMDL
MODEL       65
REMARK 921   NORMALIZED FREE ENERGY PREDICTED BY IDOCK:   -5.32 KCAL/MOL
REMARK 922        TOTAL FREE ENERGY PREDICTED BY IDOCK:   -5.56 KCAL/MOL
REMARK 923 INTER-LIGAND FREE ENERGY PREDICTED BY IDOCK:   -7.45 KCAL/MOL
REMARK 924 INTRA-LIGAND FREE ENERGY PREDICTED BY IDOCK:    1.89 KCAL/MOL
REMARK 927      BINDING AFFINITY PREDICTED BY RF-SCORE:    0.00 PKD
ROOT
HETATM    1  C   UNL     1     -11.535  11.299  67.193  1.00  0.00    -0.137 C  
HETATM    2  N   UNL     1     -10.226  10.649  67.065  1.00  0.00    -0.211 N  
HETATM    3  C   UNL     2      -9.805  10.551  64.849  1.00  0.00    -0.315 C  
HETATM    4  N   UNL     2      -8.628  10.069  65.842  1.00  0.00    -0.136 NA 
HETATM    5  C   UNL     1      -9.994   8.884  66.869  1.00  0.00    -0.247 A  
HETATM    6  O   UNL     1      -8.943  13.025  66.885  1.00  0.00    -0.220 OA 
HETATM    7  C   UNL     1      -8.487   8.205  66.774  1.00  0.00    -0.123 A  
HETATM    8  C   UNL     2      -7.517   9.985  64.665  1.00  0.00    -0.143 C  
HETATM    9  C   UNL     1      -6.019  11.859  67.024  1.00  0.00    -0.153 C  
HETATM   10  N   UNL     1      -8.636   6.858  66.672  1.00  0.00    -0.120 NA 
HETATM   11  C   UNL     1      -6.929   9.237  66.785  1.00  0.00    -0.081 C  
HETATM   12  H   UNL     1      -7.907   6.146  66.640  1.00  0.00     0.000 HD 
HETATM   13  O   UNL     1      -5.806   8.729  66.808  1.00  0.00    -0.050 OA 
HETATM   14  N   UNL     1      -7.167  11.009  66.866  1.00  0.00    -0.125 N  
HETATM   15  C   UNL     1      -9.944   6.685  66.623  1.00  0.00    -0.140 A  
HETATM   16  C   UNL     1      -8.737  11.822  66.853  1.00  0.00    -0.189 C  
HETATM   17 CL   UNL     1     -10.705   5.179  66.367  1.00  0.00    -0.342 Cl 
HETATM   18  N   UNL     1     -10.780   7.780  66.753  1.00  0.00    -0.220 NA 
ENDROOT
BRANCH   4  19
HETATM   19  C   UNL     2      -8.526  10.025  67.921  1.00  0.00    -0.118 C  
BRANCH  19  20
HETATM   20  C   UNL     2      -8.160   8.783  69.101  1.00  0.00    -0.118 C  
BRANCH  20  21
HETATM   21  O   UNL     2      -8.917   8.972  70.305  1.00  0.00    -0.164 OA 
BRANCH  21  22
HETATM   22  C   UNL     2     -10.170   8.217  70.272  1.00  0.00    -0.196 C  
BRANCH  22  23
HETATM   23  C   UNL     2      -9.973   6.809  70.851  1.00  0.00    -0.200 A  
HETATM   24  C   UNL     2     -10.543   5.707  70.179  1.00  0.00    -0.380 A  
HETATM   25  C   UNL     2      -9.052   6.538  71.876  1.00  0.00    -0.148 A  
HETATM   26  C   UNL     2     -10.133   4.398  70.462  1.00  0.00    -0.190 A  
HETATM   27  C   UNL     2      -9.175   4.163  71.444  1.00  0.00    -0.197 A  
HETATM   28  C   UNL     2      -8.658   5.230  72.170  1.00  0.00    -0.126 A  
ENDBRANCH  22  23
BRANCH  22  29
HETATM   29  C   UNL     2     -11.224   9.109  70.910  1.00  0.00    -0.359 A  
HETATM   30  C   UNL     2     -13.381  10.654  71.863  1.00  0.00    -0.454 A  
HETATM   31  C   UNL     2     -12.442  11.222  71.010  1.00  0.00    -0.503 A  
HETATM   32  C   UNL     2     -12.161   8.566  71.805  1.00  0.00    -0.388 A  
HETATM   33  C   UNL     2     -11.386  10.450  70.525  1.00  0.00    -0.424 A  
HETATM   34  C   UNL     2     -13.241   9.329  72.264  1.00  0.00    -0.535 A  
ENDBRANCH  22  29
ENDBRANCH  21  22
ENDBRANCH  20  21
ENDBRANCH  19  20
ENDBRANCH   4  19
TORSDOF 6
ENDMDL
MODEL       66
REMARK 921   NORMALIZED FREE ENERGY PREDICTED BY IDOCK:   -5.30 KCAL/MOL
REMARK 922        TOTAL FREE ENERGY PREDICTED BY IDOCK:   -5.54 KCAL/MOL
REMARK 923 INTER-LIGAND FREE ENERGY PREDICTED BY IDOCK:   -8.37 KCAL/MOL
REMARK 924 INTRA-LIGAND FREE ENERGY PREDICTED BY IDOCK:    2.83 KCAL/MOL
REMARK 927      BINDING AFFINITY PREDICTED BY RF-SCORE:    0.00 PKD
ROOT
HETATM    1  C   UNL     1     -12.030   6.615  70.268  1.00  0.00    -0.240 C  
HETATM    2  N   UNL     1     -10.741   7.245  69.965  1.00  0.00    -0.240 N  
HETATM    3  C   UNL     2      -9.261   5.551  69.767  1.00  0.00    -0.137 C  
HETATM    4  N   UNL     2      -8.730   7.034  69.422  1.00  0.00    -0.133 NA 
HETATM    5  C   UNL     1      -9.543   7.731  71.205  1.00  0.00    -0.158 A  
HETATM    6  O   UNL     1     -11.056   6.864  67.305  1.00  0.00    -0.339 OA 
HETATM    7  C   UNL     1      -8.122   8.480  70.802  1.00  0.00    -0.120 A  
HETATM    8  C   UNL     2      -7.333   6.508  68.792  1.00  0.00    -0.087 C  
HETATM    9  C   UNL     1      -8.548   8.546  66.407  1.00  0.00    -0.125 C  
HETATM   10  N   UNL     1      -7.451   8.758  71.951  1.00  0.00    -0.291 NA 
HETATM   11  C   UNL     1      -7.635   8.799  69.026  1.00  0.00    -0.090 C  
HETATM   12  H   UNL     1      -6.566   9.253  72.057  1.00  0.00     0.000 HD 
HETATM   13  O   UNL     1      -6.623   9.438  68.728  1.00  0.00    -0.051 OA 
HETATM   14  N   UNL     1      -8.781   8.211  67.785  1.00  0.00    -0.130 N  
HETATM   15  C   UNL     1      -8.209   8.237  72.897  1.00  0.00    -0.165 A  
HETATM   16  C   UNL     1     -10.260   7.301  68.120  1.00  0.00    -0.187 C  
HETATM   17 CL   UNL     1      -7.783   8.183  74.548  1.00  0.00    -0.266 Cl 
HETATM   18  N   UNL     1      -9.420   7.660  72.557  1.00  0.00    -0.157 NA 
ENDROOT
BRANCH   4  19
HETATM   19  C   UNL     2      -9.711   8.871  69.406  1.00  0.00    -0.169 C  
BRANCH  19  20
HETATM   20  C   UNL     2      -9.939  10.125  68.204  1.00  0.00    -0.147 C  
BRANCH  20  21
HETATM   21  O   UNL     2     -10.027  11.420  68.816  1.00  0.00    -0.206 OA 
BRANCH  21  22
HETATM   22  C   UNL     2     -11.301  12.070  68.509  1.00  0.00    -0.272 C  
BRANCH  22  23
HETATM   23  C   UNL     2     -11.881  12.749  69.758  1.00  0.00    -0.380 A  
HETATM   24  C   UNL     2     -12.075  14.147  69.750  1.00  0.00    -0.409 A  
HETATM   25  C   UNL     2     -12.455  12.020  70.812  1.00  0.00    -0.372 A  
HETATM   26  C   UNL     2     -12.888  14.768  70.707  1.00  0.00    -0.418 A  
HETATM   27  C   UNL     2     -13.492  14.012  71.707  1.00  0.00    -0.473 A  
HETATM   28  C   UNL     2     -13.252  12.645  71.776  1.00  0.00    -0.457 A  
ENDBRANCH  22  23
BRANCH  22  29
HETATM   29  C   UNL     2     -11.057  12.930  67.279  1.00  0.00    -0.309 A  
HETATM   30  C   UNL     2     -10.698  14.777  65.178  1.00  0.00    -0.433 A  
HETATM   31  C   UNL     2     -11.879  14.049  65.271  1.00  0.00    -0.363 A  
HETATM   32  C   UNL     2      -9.854  13.646  67.144  1.00  0.00    -0.242 A  
HETATM   33  C   UNL     2     -12.061  13.149  66.322  1.00  0.00    -0.460 A  
HETATM   34  C   UNL     2      -9.685  14.575  66.111  1.00  0.00    -0.340 A  
ENDBRANCH  22  29
ENDBRANCH  21  22
ENDBRANCH  20  21
ENDBRANCH  19  20
ENDBRANCH   4  19
TORSDOF 6
ENDMDL
MODEL       67
REMARK 921   NORMALIZED FREE ENERGY PREDICTED BY IDOCK:   -5.29 KCAL/MOL
REMARK 922        TOTAL FREE ENERGY PREDICTED BY IDOCK:   -5.53 KCAL/MOL
REMARK 923 INTER-LIGAND FREE ENERGY PREDICTED BY IDOCK:   -8.10 KCAL/MOL
REMARK 924 INTRA-LIGAND FREE ENERGY PREDICTED BY IDOCK:    2.57 KCAL/MOL
REMARK 927      BINDING AFFINITY PREDICTED BY RF-SCORE:    0.00 PKD
ROOT
HETATM    1  C   UNL     1     -12.085   6.611  71.016  1.00  0.00    -0.327 C  
HETATM    2  N   UNL     1     -10.860   7.215  70.479  1.00  0.00    -0.239 N  
HETATM    3  C   UNL     2      -9.379   5.523  70.279  1.00  0.00    -0.154 C  
HETATM    4  N   UNL     2      -8.931   6.961  69.704  1.00  0.00    -0.144 NA 
HETATM    5  C   UNL     1      -9.524   7.848  71.490  1.00  0.00    -0.147 A  
HETATM    6  O   UNL     1     -11.507   6.532  67.941  1.00  0.00    -0.146 OA 
HETATM    7  C   UNL     1      -8.185   8.559  70.824  1.00  0.00    -0.130 A  
HETATM    8  C   UNL     2      -7.615   6.380  68.960  1.00  0.00    -0.100 C  
HETATM    9  C   UNL     1      -9.175   8.124  66.542  1.00  0.00    -0.188 C  
HETATM   10  N   UNL     1      -7.378   8.971  71.838  1.00  0.00    -0.332 NA 
HETATM   11  C   UNL     1      -7.938   8.680  68.976  1.00  0.00    -0.115 C  
HETATM   12  H   UNL     1      -6.500   9.484  71.771  1.00  0.00     0.000 HD 
HETATM   13  O   UNL     1      -6.989   9.290  68.479  1.00  0.00    -0.065 OA 
HETATM   14  N   UNL     1      -9.221   7.945  67.967  1.00  0.00    -0.132 N  
HETATM   15  C   UNL     1      -7.996   8.554  72.927  1.00  0.00    -0.013 A  
HETATM   16  C   UNL     1     -10.623   7.066  68.592  1.00  0.00    -0.210 C  
HETATM   17 CL   UNL     1      -7.359   8.691  74.504  1.00  0.00    -0.215 Cl 
HETATM   18  N   UNL     1      -9.226   7.931  72.814  1.00  0.00    -0.195 NA 
ENDROOT
BRANCH   4  19
HETATM   19  C   UNL     2      -9.950   8.776  69.613  1.00  0.00    -0.191 C  
BRANCH  19  20
HETATM   20  C   UNL     2      -9.539  10.381  69.046  1.00  0.00    -0.204 C  
BRANCH  20  21
HETATM   21  O   UNL     2     -10.633  10.975  68.332  1.00  0.00    -0.174 OA 
BRANCH  21  22
HETATM   22  C   UNL     2     -10.244  12.245  67.720  1.00  0.00    -0.202 C  
BRANCH  22  23
HETATM   23  C   UNL     2     -10.756  12.333  66.275  1.00  0.00    -0.293 A  
HETATM   24  C   UNL     2     -10.175  11.506  65.290  1.00  0.00    -0.315 A  
HETATM   25  C   UNL     2     -11.936  13.015  65.935  1.00  0.00    -0.491 A  
HETATM   26  C   UNL     2     -10.803  11.303  64.056  1.00  0.00    -0.414 A  
HETATM   27  C   UNL     2     -12.003  11.947  63.768  1.00  0.00    -0.547 A  
HETATM   28  C   UNL     2     -12.552  12.824  64.695  1.00  0.00    -0.491 A  
ENDBRANCH  22  23
BRANCH  22  29
HETATM   29  C   UNL     2     -10.664  13.336  68.693  1.00  0.00    -0.281 A  
HETATM   30  C   UNL     2     -11.650  15.458  70.268  1.00  0.00    -0.346 A  
HETATM   31  C   UNL     2     -10.484  15.623  69.528  1.00  0.00    -0.270 A  
HETATM   32  C   UNL     2     -11.818  13.176  69.479  1.00  0.00    -0.383 A  
HETATM   33  C   UNL     2     -10.009  14.578  68.735  1.00  0.00    -0.232 A  
HETATM   34  C   UNL     2     -12.315  14.235  70.247  1.00  0.00    -0.418 A  
ENDBRANCH  22  29
ENDBRANCH  21  22
ENDBRANCH  20  21
ENDBRANCH  19  20
ENDBRANCH   4  19
TORSDOF 6
ENDMDL
MODEL       68
REMARK 921   NORMALIZED FREE ENERGY PREDICTED BY IDOCK:   -5.29 KCAL/MOL
REMARK 922        TOTAL FREE ENERGY PREDICTED BY IDOCK:   -5.53 KCAL/MOL
REMARK 923 INTER-LIGAND FREE ENERGY PREDICTED BY IDOCK:   -7.46 KCAL/MOL
REMARK 924 INTRA-LIGAND FREE ENERGY PREDICTED BY IDOCK:    1.93 KCAL/MOL
REMARK 927      BINDING AFFINITY PREDICTED BY RF-SCORE:    0.00 PKD
ROOT
HETATM    1  C   UNL     1     -12.112  13.165  69.608  1.00  0.00    -0.255 C  
HETATM    2  N   UNL     1     -11.158  13.866  68.742  1.00  0.00    -0.255 N  
HETATM    3  C   UNL     2     -12.125  15.842  68.237  1.00  0.00     0.304 C  
HETATM    4  N   UNL     2     -10.612  15.615  67.729  1.00  0.00    -0.275 NA 
HETATM    5  C   UNL     1     -11.161  13.765  66.954  1.00  0.00    -0.302 A  
HETATM    6  O   UNL     1     -10.127  15.258  70.821  1.00  0.00     0.109 OA 
HETATM    7  C   UNL     1     -10.028  14.545  66.032  1.00  0.00    -0.322 A  
HETATM    8  C   UNL     2     -10.410  17.160  67.284  1.00  0.00    -0.320 C  
HETATM    9  C   UNL     1      -7.733  16.549  69.229  1.00  0.00    -0.140 C  
HETATM   10  N   UNL     1     -10.266  14.245  64.727  1.00  0.00    -0.576 NA 
HETATM   11  C   UNL     1      -8.720  15.647  66.785  1.00  0.00    -0.271 C  
HETATM   12  H   UNL     1      -9.726  14.527  63.910  1.00  0.00     0.000 HD 
HETATM   13  O   UNL     1      -7.821  16.154  66.110  1.00  0.00    -0.159 OA 
HETATM   14  N   UNL     1      -8.789  15.836  68.563  1.00  0.00    -0.184 N  
HETATM   15  C   UNL     1     -11.358  13.505  64.765  1.00  0.00    -0.347 A  
HETATM   16  C   UNL     1     -10.031  15.136  69.610  1.00  0.00    -0.171 C  
HETATM   17 CL   UNL     1     -12.187  12.946  63.382  1.00  0.00    -0.613 Cl 
HETATM   18  N   UNL     1     -11.910  13.169  65.988  1.00  0.00    -0.386 NA 
ENDROOT
BRANCH   4  19
HETATM   19  C   UNL     2      -9.307  14.012  67.987  1.00  0.00    -0.205 C  
BRANCH  19  20
HETATM   20  C   UNL     2      -8.441  12.952  66.895  1.00  0.00    -0.086 C  
BRANCH  20  21
HETATM   21  O   UNL     2      -8.370  11.617  67.415  1.00  0.00    -0.139 OA 
BRANCH  21  22
HETATM   22  C   UNL     2      -9.450  10.781  66.891  1.00  0.00    -0.168 C  
BRANCH  22  23
HETATM   23  C   UNL     2      -9.063  10.181  65.532  1.00  0.00    -0.216 A  
HETATM   24  C   UNL     2      -9.874  10.450  64.409  1.00  0.00    -0.395 A  
HETATM   25  C   UNL     2      -7.815   9.582  65.302  1.00  0.00    -0.111 A  
HETATM   26  C   UNL     2      -9.409  10.214  63.109  1.00  0.00    -0.333 A  
HETATM   27  C   UNL     2      -8.143   9.673  62.908  1.00  0.00    -0.140 A  
HETATM   28  C   UNL     2      -7.359   9.330  64.004  1.00  0.00    -0.102 A  
ENDBRANCH  22  23
BRANCH  22  29
HETATM   29  C   UNL     2      -9.833   9.824  68.010  1.00  0.00    -0.173 A  
HETATM   30  C   UNL     2     -10.231   7.968  70.095  1.00  0.00    -0.203 A  
HETATM   31  C   UNL     2     -10.464   7.594  68.777  1.00  0.00    -0.208 A  
HETATM   32  C   UNL     2      -9.642  10.194  69.353  1.00  0.00    -0.249 A  
HETATM   33  C   UNL     2     -10.249   8.510  67.745  1.00  0.00    -0.283 A  
HETATM   34  C   UNL     2      -9.823   9.267  70.385  1.00  0.00    -0.290 A  
ENDBRANCH  22  29
ENDBRANCH  21  22
ENDBRANCH  20  21
ENDBRANCH  19  20
ENDBRANCH   4  19
TORSDOF 6
ENDMDL
MODEL       69
REMARK 921   NORMALIZED FREE ENERGY PREDICTED BY IDOCK:   -5.28 KCAL/MOL
REMARK 922        TOTAL FREE ENERGY PREDICTED BY IDOCK:   -5.51 KCAL/MOL
REMARK 923 INTER-LIGAND FREE ENERGY PREDICTED BY IDOCK:   -7.82 KCAL/MOL
REMARK 924 INTRA-LIGAND FREE ENERGY PREDICTED BY IDOCK:    2.31 KCAL/MOL
REMARK 927      BINDING AFFINITY PREDICTED BY RF-SCORE:    0.00 PKD
ROOT
HETATM    1  C   UNL     1     -12.344  12.970  65.710  1.00  0.00    -0.416 C  
HETATM    2  N   UNL     1     -11.136  12.875  66.536  1.00  0.00    -0.279 N  
HETATM    3  C   UNL     2      -9.695  11.588  65.369  1.00  0.00    -0.233 C  
HETATM    4  N   UNL     2      -9.145  12.255  66.730  1.00  0.00    -0.208 NA 
HETATM    5  C   UNL     1     -10.836  11.577  67.733  1.00  0.00    -0.221 A  
HETATM    6  O   UNL     1      -9.929  14.893  65.196  1.00  0.00    -0.345 OA 
HETATM    7  C   UNL     1      -9.470  11.549  68.669  1.00  0.00    -0.141 A  
HETATM    8  C   UNL     2      -7.604  11.851  66.439  1.00  0.00     0.235 C  
HETATM    9  C   UNL     1      -7.436  15.144  67.107  1.00  0.00    -0.141 C  
HETATM   10  N   UNL     1      -9.550  10.476  69.500  1.00  0.00    -0.396 NA 
HETATM   11  C   UNL     1      -8.114  12.821  68.487  1.00  0.00    -0.080 C  
HETATM   12  H   UNL     1      -8.896  10.198  70.231  1.00  0.00     0.000 HD 
HETATM   13  O   UNL     1      -7.141  12.856  69.244  1.00  0.00    -0.027 OA 
HETATM   14  N   UNL     1      -8.363  14.051  67.212  1.00  0.00    -0.200 N  
HETATM   15  C   UNL     1     -10.671   9.878  69.142  1.00  0.00    -0.224 A  
HETATM   16  C   UNL     1      -9.732  14.087  66.092  1.00  0.00    -0.280 C  
HETATM   17 CL   UNL     1     -11.211   8.390  69.778  1.00  0.00    -0.058 Cl 
HETATM   18  N   UNL     1     -11.466  10.452  68.166  1.00  0.00    -0.343 NA 
ENDROOT
BRANCH   4  19
HETATM   19  C   UNL     2     -10.062  13.536  68.093  1.00  0.00    -0.250 C  
BRANCH  19  20
HETATM   20  C   UNL     2      -9.641  14.129  69.686  1.00  0.00     0.732 C  
BRANCH  20  21
HETATM   21  O   UNL     2      -9.651  15.564  69.725  1.00  0.00    -0.279 OA 
BRANCH  21  22
HETATM   22  C   UNL     2     -10.961  16.099  69.357  1.00  0.00    -0.333 C  
BRANCH  22  23
HETATM   23  C   UNL     2     -11.915  16.079  70.559  1.00  0.00    -0.268 A  
HETATM   24  C   UNL     2     -13.224  15.581  70.387  1.00  0.00    -0.051 A  
HETATM   25  C   UNL     2     -11.474  16.302  71.874  1.00  0.00    -0.298 A  
HETATM   26  C   UNL     2     -14.016  15.235  71.489  1.00  0.00    -0.627 A  
HETATM   27  C   UNL     2     -13.531  15.413  72.781  1.00  0.00    -0.637 A  
HETATM   28  C   UNL     2     -12.273  15.973  72.973  1.00  0.00    -0.637 A  
ENDBRANCH  22  23
BRANCH  22  29
HETATM   29  C   UNL     2     -10.702  17.433  68.674  1.00  0.00    -0.249 A  
HETATM   30  C   UNL     2      -9.933  19.788  67.328  1.00  0.00    -0.530 A  
HETATM   31  C   UNL     2      -9.788  19.696  68.707  1.00  0.00    -0.519 A  
HETATM   32  C   UNL     2     -10.879  17.562  67.285  1.00  0.00    -0.132 A  
HETATM   33  C   UNL     2     -10.152  18.522  69.369  1.00  0.00     0.097 A  
HETATM   34  C   UNL     2     -10.480  18.725  66.617  1.00  0.00    -0.483 A  
ENDBRANCH  22  29
ENDBRANCH  21  22
ENDBRANCH  20  21
ENDBRANCH  19  20
ENDBRANCH   4  19
TORSDOF 6
ENDMDL
MODEL       70
REMARK 921   NORMALIZED FREE ENERGY PREDICTED BY IDOCK:   -5.24 KCAL/MOL
REMARK 922        TOTAL FREE ENERGY PREDICTED BY IDOCK:   -5.47 KCAL/MOL
REMARK 923 INTER-LIGAND FREE ENERGY PREDICTED BY IDOCK:   -7.27 KCAL/MOL
REMARK 924 INTRA-LIGAND FREE ENERGY PREDICTED BY IDOCK:    1.81 KCAL/MOL
REMARK 927      BINDING AFFINITY PREDICTED BY RF-SCORE:    0.00 PKD
ROOT
HETATM    1  C   UNL     1      -7.679  11.991  68.677  1.00  0.00    -0.099 C  
HETATM    2  N   UNL     1      -7.917  10.829  67.813  1.00  0.00    -0.109 N  
HETATM    3  C   UNL     2      -6.287  10.883  66.252  1.00  0.00    -0.132 C  
HETATM    4  N   UNL     2      -7.266   9.601  66.247  1.00  0.00    -0.092 NA 
HETATM    5  C   UNL     1      -8.912  10.869  66.325  1.00  0.00    -0.176 A  
HETATM    6  O   UNL     1      -6.132   9.316  69.172  1.00  0.00    -0.041 OA 
HETATM    7  C   UNL     1      -9.179   9.512  65.414  1.00  0.00    -0.247 A  
HETATM    8  C   UNL     2      -6.359   8.772  65.190  1.00  0.00    -0.060 C  
HETATM    9  C   UNL     1      -6.795   6.598  67.722  1.00  0.00    -0.080 C  
HETATM   10  N   UNL     1      -9.998   9.851  64.383  1.00  0.00    -0.429 NA 
HETATM   11  C   UNL     1      -8.400   7.866  65.831  1.00  0.00    -0.132 C  
HETATM   12  H   UNL     1     -10.389   9.240  63.666  1.00  0.00     0.000 HD 
HETATM   13  O   UNL     1      -8.671   6.836  65.209  1.00  0.00    -0.064 OA 
HETATM   14  N   UNL     1      -7.315   7.854  67.254  1.00  0.00    -0.090 N  
HETATM   15  C   UNL     1     -10.167  11.152  64.524  1.00  0.00    -0.324 A  
HETATM   16  C   UNL     1      -6.882   9.277  68.211  1.00  0.00    -0.064 C  
HETATM   17 CL   UNL     1     -11.017  12.135  63.418  1.00  0.00    -0.489 Cl 
HETATM   18  N   UNL     1      -9.605  11.797  65.611  1.00  0.00    -0.232 NA 
ENDROOT
BRANCH   4  19
HETATM   19  C   UNL     2      -8.850   9.084  67.496  1.00  0.00    -0.123 C  
BRANCH  19  20
HETATM   20  C   UNL     2     -10.472   8.481  67.228  1.00  0.00    -0.296 C  
BRANCH  20  21
HETATM   21  O   UNL     2     -10.956   7.766  68.374  1.00  0.00     0.000 OA 
BRANCH  21  22
HETATM   22  C   UNL     2     -10.231   8.144  69.585  1.00  0.00    -0.205 C  
BRANCH  22  23
HETATM   23  C   UNL     2     -11.106   9.019  70.494  1.00  0.00    -0.297 A  
HETATM   24  C   UNL     2     -11.248  10.391  70.194  1.00  0.00    -0.393 A  
HETATM   25  C   UNL     2     -11.965   8.475  71.462  1.00  0.00    -0.354 A  
HETATM   26  C   UNL     2     -12.270  11.154  70.772  1.00  0.00    -0.484 A  
HETATM   27  C   UNL     2     -13.144  10.573  71.686  1.00  0.00    -0.551 A  
HETATM   28  C   UNL     2     -12.973   9.243  72.052  1.00  0.00    -0.504 A  
ENDBRANCH  22  23
BRANCH  22  29
HETATM   29  C   UNL     2      -9.664   6.857  70.166  1.00  0.00    -0.175 A  
HETATM   30  C   UNL     2      -8.834   4.503  71.478  1.00  0.00    -0.147 A  
HETATM   31  C   UNL     2      -8.162   5.700  71.702  1.00  0.00    -0.119 A  
HETATM   32  C   UNL     2     -10.305   5.630  69.921  1.00  0.00    -0.347 A  
HETATM   33  C   UNL     2      -8.587   6.867  71.066  1.00  0.00    -0.135 A  
HETATM   34  C   UNL     2      -9.902   4.466  70.586  1.00  0.00    -0.280 A  
ENDBRANCH  22  29
ENDBRANCH  21  22
ENDBRANCH  20  21
ENDBRANCH  19  20
ENDBRANCH   4  19
TORSDOF 6
ENDMDL
MODEL       71
REMARK 921   NORMALIZED FREE ENERGY PREDICTED BY IDOCK:   -5.22 KCAL/MOL
REMARK 922        TOTAL FREE ENERGY PREDICTED BY IDOCK:   -5.44 KCAL/MOL
REMARK 923 INTER-LIGAND FREE ENERGY PREDICTED BY IDOCK:   -8.27 KCAL/MOL
REMARK 924 INTRA-LIGAND FREE ENERGY PREDICTED BY IDOCK:    2.84 KCAL/MOL
REMARK 927      BINDING AFFINITY PREDICTED BY RF-SCORE:    0.00 PKD
ROOT
HETATM    1  C   UNL     1      -7.364  15.072  69.997  1.00  0.00     0.045 C  
HETATM    2  N   UNL     1      -8.610  15.087  69.223  1.00  0.00    -0.195 N  
HETATM    3  C   UNL     2      -8.961  17.247  68.667  1.00  0.00    -0.265 C  
HETATM    4  N   UNL     2      -9.972  16.156  68.045  1.00  0.00    -0.235 NA 
HETATM    5  C   UNL     1     -10.234  15.334  69.937  1.00  0.00    -0.217 A  
HETATM    6  O   UNL     1      -7.278  15.024  66.869  1.00  0.00    -0.113 OA 
HETATM    7  C   UNL     1     -11.610  15.296  69.016  1.00  0.00    -0.343 A  
HETATM    8  C   UNL     2     -10.656  17.208  67.020  1.00  0.00    -0.227 C  
HETATM    9  C   UNL     1      -9.812  14.622  65.039  1.00  0.00    -0.030 C  
HETATM   10  N   UNL     1     -12.675  15.473  69.842  1.00  0.00    -0.605 NA 
HETATM   11  C   UNL     1     -11.559  15.072  67.162  1.00  0.00    -0.261 C  
HETATM   12  H   UNL     1     -13.666  15.457  69.600  1.00  0.00     0.000 HD 
HETATM   13  O   UNL     1     -12.584  14.951  66.487  1.00  0.00     0.184 OA 
HETATM   14  N   UNL     1      -9.929  14.939  66.436  1.00  0.00    -0.262 N  
HETATM   15  C   UNL     1     -12.131  15.669  71.028  1.00  0.00    -0.400 A  
HETATM   16  C   UNL     1      -8.407  15.086  67.327  1.00  0.00    -0.205 C  
HETATM   17 CL   UNL     1     -13.010  16.072  72.433  1.00  0.00    -0.491 Cl 
HETATM   18  N   UNL     1     -10.757  15.583  71.168  1.00  0.00    -0.110 NA 
ENDROOT
BRANCH   4  19
HETATM   19  C   UNL     2     -10.023  14.081  68.220  1.00  0.00    -0.236 C  
BRANCH  19  20
HETATM   20  C   UNL     2      -9.192  12.765  67.417  1.00  0.00    -0.193 C  
BRANCH  20  21
HETATM   21  O   UNL     2      -9.549  11.499  67.989  1.00  0.00    -0.169 OA 
BRANCH  21  22
HETATM   22  C   UNL     2      -9.584  10.445  66.976  1.00  0.00    -0.166 C  
BRANCH  22  23
HETATM   23  C   UNL     2     -10.183   9.154  67.553  1.00  0.00    -0.304 A  
HETATM   24  C   UNL     2     -10.479   8.087  66.679  1.00  0.00    -0.199 A  
HETATM   25  C   UNL     2     -10.222   8.893  68.932  1.00  0.00    -0.220 A  
HETATM   26  C   UNL     2     -10.710   6.795  67.169  1.00  0.00    -0.441 A  
HETATM   27  C   UNL     2     -10.685   6.554  68.539  1.00  0.00    -0.329 A  
HETATM   28  C   UNL     2     -10.471   7.607  69.420  1.00  0.00    -0.220 A  
ENDBRANCH  22  23
BRANCH  22  29
HETATM   29  C   UNL     2     -10.246  11.052  65.749  1.00  0.00    -0.316 A  
HETATM   30  C   UNL     2     -11.632  11.896  63.442  1.00  0.00    -0.477 A  
HETATM   31  C   UNL     2     -10.341  11.391  63.333  1.00  0.00    -0.458 A  
HETATM   32  C   UNL     2     -11.536  11.604  65.842  1.00  0.00    -0.189 A  
HETATM   33  C   UNL     2      -9.665  10.956  64.475  1.00  0.00    -0.334 A  
HETATM   34  C   UNL     2     -12.228  12.006  64.695  1.00  0.00    -0.289 A  
ENDBRANCH  22  29
ENDBRANCH  21  22
ENDBRANCH  20  21
ENDBRANCH  19  20
ENDBRANCH   4  19
TORSDOF 6
ENDMDL
MODEL       72
REMARK 921   NORMALIZED FREE ENERGY PREDICTED BY IDOCK:   -5.21 KCAL/MOL
REMARK 922        TOTAL FREE ENERGY PREDICTED BY IDOCK:   -5.43 KCAL/MOL
REMARK 923 INTER-LIGAND FREE ENERGY PREDICTED BY IDOCK:   -8.04 KCAL/MOL
REMARK 924 INTRA-LIGAND FREE ENERGY PREDICTED BY IDOCK:    2.62 KCAL/MOL
REMARK 927      BINDING AFFINITY PREDICTED BY RF-SCORE:    0.00 PKD
ROOT
HETATM    1  C   UNL     1      -6.468  14.272  69.204  1.00  0.00    -0.109 C  
HETATM    2  N   UNL     1      -7.243  15.364  68.604  1.00  0.00    -0.116 N  
HETATM    3  C   UNL     2      -6.768  17.199  69.830  1.00  0.00     0.089 C  
HETATM    4  N   UNL     2      -7.683  17.409  68.518  1.00  0.00    -0.257 NA 
HETATM    5  C   UNL     1      -8.893  15.829  69.122  1.00  0.00    -0.250 A  
HETATM    6  O   UNL     1      -5.134  16.192  67.123  1.00  0.00    -0.303 OA 
HETATM    7  C   UNL     1      -9.735  17.043  68.374  1.00  0.00    -0.279 A  
HETATM    8  C   UNL     2      -7.595  19.026  68.578  1.00  0.00    -0.329 C  
HETATM    9  C   UNL     1      -6.716  18.311  65.410  1.00  0.00    -0.088 C  
HETATM   10  N   UNL     1     -10.959  17.130  68.958  1.00  0.00    -0.278 NA 
HETATM   11  C   UNL     1      -8.994  18.063  66.994  1.00  0.00    -0.258 C  
HETATM   12  H   UNL     1     -11.733  17.743  68.705  1.00  0.00     0.000 HD 
HETATM   13  O   UNL     1      -9.650  18.904  66.375  1.00  0.00    -0.336 OA 
HETATM   14  N   UNL     1      -7.304  17.671  66.555  1.00  0.00    -0.235 N  
HETATM   15  C   UNL     1     -10.913  16.238  69.929  1.00  0.00    -0.365 A  
HETATM   16  C   UNL     1      -6.295  16.473  67.376  1.00  0.00    -0.167 C  
HETATM   17 CL   UNL     1     -12.151  16.005  71.080  1.00  0.00    -0.422 Cl 
HETATM   18  N   UNL     1      -9.788  15.445  70.071  1.00  0.00    -0.203 NA 
ENDROOT
BRANCH   4  19
HETATM   19  C   UNL     2      -8.333  16.058  67.072  1.00  0.00    -0.219 C  
BRANCH  19  20
HETATM   20  C   UNL     2      -9.548  14.798  67.036  1.00  0.00    -0.241 C  
BRANCH  20  21
HETATM   21  O   UNL     2      -8.947  13.502  66.900  1.00  0.00    -0.230 OA 
BRANCH  21  22
HETATM   22  C   UNL     2      -9.928  12.435  67.097  1.00  0.00    -0.207 C  
BRANCH  22  23
HETATM   23  C   UNL     2     -10.693  12.152  65.796  1.00  0.00    -0.303 A  
HETATM   24  C   UNL     2     -12.088  12.363  65.761  1.00  0.00    -0.381 A  
HETATM   25  C   UNL     2     -10.040  11.929  64.573  1.00  0.00    -0.302 A  
HETATM   26  C   UNL     2     -12.776  12.440  64.544  1.00  0.00    -0.404 A  
HETATM   27  C   UNL     2     -12.094  12.273  63.344  1.00  0.00    -0.615 A  
HETATM   28  C   UNL     2     -10.733  11.988  63.359  1.00  0.00    -0.475 A  
ENDBRANCH  22  23
BRANCH  22  29
HETATM   29  C   UNL     2      -9.183  11.282  67.751  1.00  0.00    -0.156 A  
HETATM   30  C   UNL     2      -7.807   9.319  69.236  1.00  0.00    -0.085 A  
HETATM   31  C   UNL     2      -7.098  10.228  68.458  1.00  0.00    -0.074 A  
HETATM   32  C   UNL     2      -9.883  10.328  68.510  1.00  0.00    -0.174 A  
HETATM   33  C   UNL     2      -7.781  11.210  67.739  1.00  0.00    -0.112 A  
HETATM   34  C   UNL     2      -9.198   9.366  69.260  1.00  0.00    -0.159 A  
ENDBRANCH  22  29
ENDBRANCH  21  22
ENDBRANCH  20  21
ENDBRANCH  19  20
ENDBRANCH   4  19
TORSDOF 6
ENDMDL
MODEL       73
REMARK 921   NORMALIZED FREE ENERGY PREDICTED BY IDOCK:   -5.20 KCAL/MOL
REMARK 922        TOTAL FREE ENERGY PREDICTED BY IDOCK:   -5.41 KCAL/MOL
REMARK 923 INTER-LIGAND FREE ENERGY PREDICTED BY IDOCK:   -7.95 KCAL/MOL
REMARK 924 INTRA-LIGAND FREE ENERGY PREDICTED BY IDOCK:    2.54 KCAL/MOL
REMARK 927      BINDING AFFINITY PREDICTED BY RF-SCORE:    0.00 PKD
ROOT
HETATM    1  C   UNL     1      -6.968  15.520  67.493  1.00  0.00    -0.194 C  
HETATM    2  N   UNL     1      -7.541  16.864  67.628  1.00  0.00    -0.161 N  
HETATM    3  C   UNL     2      -6.235  18.215  66.376  1.00  0.00    -0.191 C  
HETATM    4  N   UNL     2      -7.555  18.871  67.031  1.00  0.00    -0.226 NA 
HETATM    5  C   UNL     1      -7.037  18.051  68.871  1.00  0.00    -0.263 A  
HETATM    6  O   UNL     1      -8.946  16.615  65.329  1.00  0.00     0.113 OA 
HETATM    7  C   UNL     1      -7.754  19.538  69.001  1.00  0.00    -0.297 A  
HETATM    8  C   UNL     2      -7.430  20.245  66.182  1.00  0.00    -0.225 C  
HETATM    9  C   UNL     1     -10.606  19.275  65.640  1.00  0.00    -0.258 C  
HETATM   10  N   UNL     1      -7.190  20.188  70.054  1.00  0.00     0.098 NA 
HETATM   11  C   UNL     1      -9.078  20.111  67.814  1.00  0.00    -0.298 C  
HETATM   12  H   UNL     1      -7.434  21.103  70.430  1.00  0.00     0.000 HD 
HETATM   13  O   UNL     1      -9.677  21.179  67.964  1.00  0.00     0.065 OA 
HETATM   14  N   UNL     1      -9.499  18.968  66.504  1.00  0.00    -0.334 N  
HETATM   15  C   UNL     1      -6.254  19.358  70.476  1.00  0.00    -0.041 A  
HETATM   16  C   UNL     1      -8.706  17.412  66.221  1.00  0.00    -0.207 C  
HETATM   17 CL   UNL     1      -5.138  19.721  71.715  1.00  0.00    -0.385 Cl 
HETATM   18  N   UNL     1      -6.121  18.120  69.874  1.00  0.00    -0.203 NA 
ENDROOT
BRANCH   4  19
HETATM   19  C   UNL     2      -9.065  18.034  68.197  1.00  0.00    -0.276 C  
BRANCH  19  20
HETATM   20  C   UNL     2      -9.204  16.572  69.151  1.00  0.00    -0.197 C  
BRANCH  20  21
HETATM   21  O   UNL     2     -10.436  15.889  68.877  1.00  0.00    -0.213 OA 
BRANCH  21  22
HETATM   22  C   UNL     2     -10.659  14.791  69.817  1.00  0.00    -0.112 C  
BRANCH  22  23
HETATM   23  C   UNL     2     -11.786  15.136  70.801  1.00  0.00    -0.370 A  
HETATM   24  C   UNL     2     -13.106  14.739  70.498  1.00  0.00    -0.275 A  
HETATM   25  C   UNL     2     -11.532  15.608  72.099  1.00  0.00    -0.479 A  
HETATM   26  C   UNL     2     -14.101  14.730  71.483  1.00  0.00    -0.566 A  
HETATM   27  C   UNL     2     -13.807  15.149  72.777  1.00  0.00    -0.508 A  
HETATM   28  C   UNL     2     -12.532  15.615  73.076  1.00  0.00    -0.566 A  
ENDBRANCH  22  23
BRANCH  22  29
HETATM   29  C   UNL     2     -10.807  13.532  68.977  1.00  0.00    -0.227 A  
HETATM   30  C   UNL     2     -11.399  11.219  67.475  1.00  0.00    -0.360 A  
HETATM   31  C   UNL     2     -10.996  11.104  68.801  1.00  0.00    -0.268 A  
HETATM   32  C   UNL     2     -11.175  13.624  67.623  1.00  0.00    -0.303 A  
HETATM   33  C   UNL     2     -10.722  12.252  69.547  1.00  0.00     0.196 A  
HETATM   34  C   UNL     2     -11.486  12.477  66.885  1.00  0.00    -0.416 A  
ENDBRANCH  22  29
ENDBRANCH  21  22
ENDBRANCH  20  21
ENDBRANCH  19  20
ENDBRANCH   4  19
TORSDOF 6
ENDMDL
MODEL       74
REMARK 921   NORMALIZED FREE ENERGY PREDICTED BY IDOCK:   -5.18 KCAL/MOL
REMARK 922        TOTAL FREE ENERGY PREDICTED BY IDOCK:   -5.38 KCAL/MOL
REMARK 923 INTER-LIGAND FREE ENERGY PREDICTED BY IDOCK:   -8.02 KCAL/MOL
REMARK 924 INTRA-LIGAND FREE ENERGY PREDICTED BY IDOCK:    2.64 KCAL/MOL
REMARK 927      BINDING AFFINITY PREDICTED BY RF-SCORE:    0.00 PKD
ROOT
HETATM    1  C   UNL     1     -12.713  11.879  63.664  1.00  0.00    -0.390 C  
HETATM    2  N   UNL     1     -11.775  12.143  64.761  1.00  0.00    -0.346 N  
HETATM    3  C   UNL     2     -10.553  13.925  64.108  1.00  0.00     0.167 C  
HETATM    4  N   UNL     2     -10.314  13.381  65.607  1.00  0.00    -0.285 NA 
HETATM    5  C   UNL     1     -10.128  11.447  64.864  1.00  0.00    -0.274 A  
HETATM    6  O   UNL     1     -13.387  14.035  65.830  1.00  0.00    -0.543 OA 
HETATM    7  C   UNL     1      -9.131  11.747  66.152  1.00  0.00    -0.185 A  
HETATM    8  C   UNL     2      -9.415  14.655  66.046  1.00  0.00    -0.238 C  
HETATM    9  C   UNL     1     -11.732  14.453  68.479  1.00  0.00    -0.335 C  
HETATM   10  N   UNL     1      -7.978  11.052  65.963  1.00  0.00    -0.282 NA 
HETATM   11  C   UNL     1      -9.623  12.892  67.544  1.00  0.00    -0.200 C  
HETATM   12  H   UNL     1      -7.177  10.984  66.590  1.00  0.00     0.000 HD 
HETATM   13  O   UNL     1      -8.921  13.044  68.547  1.00  0.00    -0.152 OA 
HETATM   14  N   UNL     1     -11.223  13.675  67.383  1.00  0.00    -0.292 N  
HETATM   15  C   UNL     1      -8.135  10.488  64.781  1.00  0.00    -0.078 A  
HETATM   16  C   UNL     1     -12.300  13.503  65.990  1.00  0.00    -0.433 C  
HETATM   17 CL   UNL     1      -6.928   9.588  63.978  1.00  0.00    -0.101 Cl 
HETATM   18  N   UNL     1      -9.333  10.644  64.107  1.00  0.00    -0.236 NA 
ENDROOT
BRANCH   4  19
HETATM   19  C   UNL     2     -11.220  11.829  66.661  1.00  0.00    -0.323 C  
BRANCH  19  20
HETATM   20  C   UNL     2     -10.635  10.369  67.430  1.00  0.00    -0.269 C  
BRANCH  20  21
HETATM   21  O   UNL     2     -10.768  10.445  68.857  1.00  0.00    -0.197 OA 
BRANCH  21  22
HETATM   22  C   UNL     2     -10.796   9.115  69.463  1.00  0.00    -0.180 C  
BRANCH  22  23
HETATM   23  C   UNL     2      -9.378   8.651  69.827  1.00  0.00    -0.165 A  
HETATM   24  C   UNL     2      -8.866   8.954  71.106  1.00  0.00    -0.297 A  
HETATM   25  C   UNL     2      -8.662   7.733  69.041  1.00  0.00    -0.135 A  
HETATM   26  C   UNL     2      -7.738   8.291  71.607  1.00  0.00    -0.122 A  
HETATM   27  C   UNL     2      -7.082   7.343  70.829  1.00  0.00    -0.063 A  
HETATM   28  C   UNL     2      -7.526   7.086  69.537  1.00  0.00    -0.096 A  
ENDBRANCH  22  23
BRANCH  22  29
HETATM   29  C   UNL     2     -11.834   9.171  70.573  1.00  0.00    -0.137 A  
HETATM   30  C   UNL     2     -13.983   9.264  72.397  1.00  0.00    -0.432 A  
HETATM   31  C   UNL     2     -13.362  10.440  71.992  1.00  0.00    -0.440 A  
HETATM   32  C   UNL     2     -12.448   7.991  71.027  1.00  0.00    -0.125 A  
HETATM   33  C   UNL     2     -12.311  10.393  71.074  1.00  0.00    -0.490 A  
HETATM   34  C   UNL     2     -13.525   8.040  71.919  1.00  0.00    -0.342 A  
ENDBRANCH  22  29
ENDBRANCH  21  22
ENDBRANCH  20  21
ENDBRANCH  19  20
ENDBRANCH   4  19
TORSDOF 6
ENDMDL
MODEL       75
REMARK 921   NORMALIZED FREE ENERGY PREDICTED BY IDOCK:   -5.16 KCAL/MOL
REMARK 922        TOTAL FREE ENERGY PREDICTED BY IDOCK:   -5.35 KCAL/MOL
REMARK 923 INTER-LIGAND FREE ENERGY PREDICTED BY IDOCK:   -7.85 KCAL/MOL
REMARK 924 INTRA-LIGAND FREE ENERGY PREDICTED BY IDOCK:    2.49 KCAL/MOL
REMARK 927      BINDING AFFINITY PREDICTED BY RF-SCORE:    0.00 PKD
ROOT
HETATM    1  C   UNL     1      -9.985   7.851  66.664  1.00  0.00    -0.246 C  
HETATM    2  N   UNL     1      -9.445   9.121  67.164  1.00  0.00    -0.148 N  
HETATM    3  C   UNL     2      -7.413   9.342  66.207  1.00  0.00    -0.096 C  
HETATM    4  N   UNL     2      -7.948  10.583  67.086  1.00  0.00    -0.114 NA 
HETATM    5  C   UNL     1      -8.425   9.271  68.628  1.00  0.00    -0.123 A  
HETATM    6  O   UNL     1     -10.278  10.466  64.969  1.00  0.00    -0.324 OA 
HETATM    7  C   UNL     1      -7.882  10.740  69.168  1.00  0.00    -0.142 A  
HETATM    8  C   UNL     2      -6.771  11.582  66.598  1.00  0.00    -0.077 C  
HETATM    9  C   UNL     1      -9.579  13.348  66.035  1.00  0.00    -0.159 C  
HETATM   10  N   UNL     1      -7.175  10.534  70.311  1.00  0.00    -0.447 NA 
HETATM   11  C   UNL     1      -8.227  12.328  68.247  1.00  0.00    -0.167 C  
HETATM   12  H   UNL     1      -6.745  11.231  70.918  1.00  0.00     0.000 HD 
HETATM   13  O   UNL     1      -7.903  13.430  68.695  1.00  0.00    -0.132 OA 
HETATM   14  N   UNL     1      -9.151  12.161  66.723  1.00  0.00    -0.202 N  
HETATM   15  C   UNL     1      -7.175   9.222  70.454  1.00  0.00    -0.097 A  
HETATM   16  C   UNL     1      -9.668  10.625  66.014  1.00  0.00    -0.208 C  
HETATM   17 CL   UNL     1      -6.317   8.389  71.671  1.00  0.00    -0.049 Cl 
HETATM   18  N   UNL     1      -7.880   8.440  69.557  1.00  0.00    -0.100 NA 
ENDROOT
BRANCH   4  19
HETATM   19  C   UNL     2      -9.745  10.867  68.101  1.00  0.00    -0.166 C  
BRANCH  19  20
HETATM   20  C   UNL     2     -11.111   9.838  68.479  1.00  0.00    -0.087 C  
BRANCH  20  21
HETATM   21  O   UNL     2     -12.270  10.616  68.810  1.00  0.00    -0.381 OA 
BRANCH  21  22
HETATM   22  C   UNL     2     -12.674  10.409  70.200  1.00  0.00    -0.083 C  
BRANCH  22  23
HETATM   23  C   UNL     2     -11.873   9.262  70.835  1.00  0.00    -0.346 A  
HETATM   24  C   UNL     2     -10.693   9.563  71.547  1.00  0.00    -0.269 A  
HETATM   25  C   UNL     2     -12.387   7.961  70.950  1.00  0.00    -0.095 A  
HETATM   26  C   UNL     2     -10.111   8.625  72.409  1.00  0.00    -0.321 A  
HETATM   27  C   UNL     2     -10.675   7.361  72.549  1.00  0.00    -0.315 A  
HETATM   28  C   UNL     2     -11.794   7.020  71.798  1.00  0.00    -0.347 A  
ENDBRANCH  22  23
BRANCH  22  29
HETATM   29  C   UNL     2     -12.618  11.773  70.871  1.00  0.00    -0.384 A  
HETATM   30  C   UNL     2     -12.787  14.373  71.951  1.00  0.00    -0.426 A  
HETATM   31  C   UNL     2     -11.979  14.129  70.846  1.00  0.00    -0.371 A  
HETATM   32  C   UNL     2     -13.397  12.032  72.012  1.00  0.00    -0.447 A  
HETATM   33  C   UNL     2     -11.912  12.845  70.302  1.00  0.00    -0.359 A  
HETATM   34  C   UNL     2     -13.493  13.326  72.536  1.00  0.00    -0.620 A  
ENDBRANCH  22  29
ENDBRANCH  21  22
ENDBRANCH  20  21
ENDBRANCH  19  20
ENDBRANCH   4  19
TORSDOF 6
ENDMDL
MODEL       76
REMARK 921   NORMALIZED FREE ENERGY PREDICTED BY IDOCK:   -5.10 KCAL/MOL
REMARK 922        TOTAL FREE ENERGY PREDICTED BY IDOCK:   -5.28 KCAL/MOL
REMARK 923 INTER-LIGAND FREE ENERGY PREDICTED BY IDOCK:   -8.10 KCAL/MOL
REMARK 924 INTRA-LIGAND FREE ENERGY PREDICTED BY IDOCK:    2.82 KCAL/MOL
REMARK 927      BINDING AFFINITY PREDICTED BY RF-SCORE:    0.00 PKD
ROOT
HETATM    1  C   UNL     1      -6.351  11.176  68.625  1.00  0.00    -0.044 C  
HETATM    2  N   UNL     1      -7.483  10.333  68.226  1.00  0.00    -0.085 N  
HETATM    3  C   UNL     2      -7.755  10.679  66.012  1.00  0.00    -0.151 C  
HETATM    4  N   UNL     2      -8.676   9.545  66.696  1.00  0.00    -0.133 NA 
HETATM    5  C   UNL     1      -9.187  10.884  68.203  1.00  0.00    -0.158 A  
HETATM    6  O   UNL     1      -5.850   8.342  67.396  1.00  0.00    -0.041 OA 
HETATM    7  C   UNL     1     -10.428   9.871  67.785  1.00  0.00    -0.242 A  
HETATM    8  C   UNL     2      -9.216   8.971  65.280  1.00  0.00    -0.140 C  
HETATM    9  C   UNL     1      -8.119   6.218  66.874  1.00  0.00    -0.109 C  
HETATM   10  N   UNL     1     -11.594  10.561  67.902  1.00  0.00    -0.701 NA 
HETATM   11  C   UNL     1     -10.132   8.110  67.234  1.00  0.00    -0.241 C  
HETATM   12  H   UNL     1     -12.544  10.217  67.763  1.00  0.00     0.000 HD 
HETATM   13  O   UNL     1     -11.059   7.327  67.012  1.00  0.00    -0.308 OA 
HETATM   14  N   UNL     1      -8.420   7.597  67.149  1.00  0.00    -0.120 N  
HETATM   15  C   UNL     1     -11.212  11.778  68.238  1.00  0.00    -0.255 A  
HETATM   16  C   UNL     1      -7.030   8.645  67.464  1.00  0.00    -0.078 C  
HETATM   17 CL   UNL     1     -12.270  13.108  68.396  1.00  0.00    -0.190 Cl 
HETATM   18  N   UNL     1      -9.869  12.035  68.450  1.00  0.00    -0.211 NA 
ENDROOT
BRANCH   4  19
HETATM   19  C   UNL     2      -8.752   8.842  68.655  1.00  0.00    -0.134 C  
BRANCH  19  20
HETATM   20  C   UNL     2     -10.031   8.245  69.691  1.00  0.00    -0.193 C  
BRANCH  20  21
HETATM   21  O   UNL     2      -9.559   7.193  70.545  1.00  0.00    -0.169 OA 
BRANCH  21  22
HETATM   22  C   UNL     2     -10.332   7.125  71.785  1.00  0.00    -0.196 C  
BRANCH  22  23
HETATM   23  C   UNL     2     -11.724   7.743  71.594  1.00  0.00    -0.316 A  
HETATM   24  C   UNL     2     -12.827   6.892  71.370  1.00  0.00    -0.365 A  
HETATM   25  C   UNL     2     -11.993   9.092  71.875  1.00  0.00    -0.443 A  
HETATM   26  C   UNL     2     -14.139   7.357  71.515  1.00  0.00    -0.541 A  
HETATM   27  C   UNL     2     -14.376   8.686  71.851  1.00  0.00    -0.492 A  
HETATM   28  C   UNL     2     -13.305   9.559  72.002  1.00  0.00    -0.535 A  
ENDBRANCH  22  23
BRANCH  22  29
HETATM   29  C   UNL     2     -10.251   5.683  72.261  1.00  0.00    -0.241 A  
HETATM   30  C   UNL     2     -10.411   2.980  73.050  1.00  0.00    -0.251 A  
HETATM   31  C   UNL     2     -10.606   3.991  73.984  1.00  0.00    -0.298 A  
HETATM   32  C   UNL     2     -10.017   4.647  71.340  1.00  0.00    -0.267 A  
HETATM   33  C   UNL     2     -10.545   5.327  73.587  1.00  0.00    -0.322 A  
HETATM   34  C   UNL     2     -10.114   3.306  71.729  1.00  0.00    -0.125 A  
ENDBRANCH  22  29
ENDBRANCH  21  22
ENDBRANCH  20  21
ENDBRANCH  19  20
ENDBRANCH   4  19
TORSDOF 6
ENDMDL
MODEL       77
REMARK 921   NORMALIZED FREE ENERGY PREDICTED BY IDOCK:   -5.10 KCAL/MOL
REMARK 922        TOTAL FREE ENERGY PREDICTED BY IDOCK:   -5.27 KCAL/MOL
REMARK 923 INTER-LIGAND FREE ENERGY PREDICTED BY IDOCK:   -6.90 KCAL/MOL
REMARK 924 INTRA-LIGAND FREE ENERGY PREDICTED BY IDOCK:    1.64 KCAL/MOL
REMARK 927      BINDING AFFINITY PREDICTED BY RF-SCORE:    0.00 PKD
ROOT
HETATM    1  C   UNL     1     -10.530   5.020  66.066  1.00  0.00    -0.242 C  
HETATM    2  N   UNL     1      -9.516   5.637  66.929  1.00  0.00    -0.130 N  
HETATM    3  C   UNL     2      -7.709   4.288  66.813  1.00  0.00    -0.093 C  
HETATM    4  N   UNL     2      -7.544   5.666  67.634  1.00  0.00    -0.088 NA 
HETATM    5  C   UNL     1      -9.302   5.251  68.665  1.00  0.00    -0.121 A  
HETATM    6  O   UNL     1      -8.332   6.877  64.835  1.00  0.00    -0.112 OA 
HETATM    7  C   UNL     1      -8.167   6.015  69.597  1.00  0.00    -0.115 A  
HETATM    8  C   UNL     2      -5.936   5.522  67.772  1.00  0.00    -0.018 C  
HETATM    9  C   UNL     1      -6.342   8.627  66.540  1.00  0.00    -0.058 C  
HETATM   10  N   UNL     1      -8.276   5.541  70.867  1.00  0.00    -0.116 NA 
HETATM   11  C   UNL     1      -6.980   7.272  68.888  1.00  0.00    -0.078 C  
HETATM   12  H   UNL     1      -7.756   5.835  71.693  1.00  0.00     0.000 HD 
HETATM   13  O   UNL     1      -6.197   7.908  69.598  1.00  0.00    -0.032 OA 
HETATM   14  N   UNL     1      -7.120   7.572  67.130  1.00  0.00    -0.082 N  
HETATM   15  C   UNL     1      -9.211   4.614  70.782  1.00  0.00    -0.140 A  
HETATM   16  C   UNL     1      -8.221   6.719  66.040  1.00  0.00    -0.129 C  
HETATM   17 CL   UNL     1      -9.671   3.594  72.070  1.00  0.00    -0.226 Cl 
HETATM   18  N   UNL     1      -9.856   4.406  69.576  1.00  0.00    -0.212 NA 
ENDROOT
BRANCH   4  19
HETATM   19  C   UNL     2      -8.881   7.227  67.970  1.00  0.00    -0.129 C  
BRANCH  19  20
HETATM   20  C   UNL     2     -10.476   7.339  68.685  1.00  0.00    -0.194 C  
BRANCH  20  21
HETATM   21  O   UNL     2     -10.775   8.685  69.080  1.00  0.00    -0.198 OA 
BRANCH  21  22
HETATM   22  C   UNL     2     -11.590   8.718  70.293  1.00  0.00    -0.016 C  
BRANCH  22  23
HETATM   23  C   UNL     2     -10.857   8.041  71.461  1.00  0.00    -0.278 A  
HETATM   24  C   UNL     2      -9.671   8.625  71.954  1.00  0.00    -0.383 A  
HETATM   25  C   UNL     2     -11.438   7.012  72.219  1.00  0.00    -0.308 A  
HETATM   26  C   UNL     2      -9.148   8.253  73.199  1.00  0.00    -0.305 A  
HETATM   27  C   UNL     2      -9.777   7.270  73.956  1.00  0.00    -0.277 A  
HETATM   28  C   UNL     2     -10.904   6.630  73.453  1.00  0.00    -0.264 A  
ENDBRANCH  22  23
BRANCH  22  29
HETATM   29  C   UNL     2     -12.036  10.161  70.472  1.00  0.00    -0.380 A  
HETATM   30  C   UNL     2     -12.586  12.883  70.964  1.00  0.00    -0.376 A  
HETATM   31  C   UNL     2     -13.116  11.903  71.797  1.00  0.00    -0.465 A  
HETATM   32  C   UNL     2     -11.544  11.163  69.618  1.00  0.00    -0.398 A  
HETATM   33  C   UNL     2     -12.826  10.558  71.562  1.00  0.00    -0.568 A  
HETATM   34  C   UNL     2     -11.804  12.514  69.873  1.00  0.00    -0.373 A  
ENDBRANCH  22  29
ENDBRANCH  21  22
ENDBRANCH  20  21
ENDBRANCH  19  20
ENDBRANCH   4  19
TORSDOF 6
ENDMDL
MODEL       78
REMARK 921   NORMALIZED FREE ENERGY PREDICTED BY IDOCK:   -5.09 KCAL/MOL
REMARK 922        TOTAL FREE ENERGY PREDICTED BY IDOCK:   -5.26 KCAL/MOL
REMARK 923 INTER-LIGAND FREE ENERGY PREDICTED BY IDOCK:   -7.75 KCAL/MOL
REMARK 924 INTRA-LIGAND FREE ENERGY PREDICTED BY IDOCK:    2.49 KCAL/MOL
REMARK 927      BINDING AFFINITY PREDICTED BY RF-SCORE:    0.00 PKD
ROOT
HETATM    1  C   UNL     1      -6.410   9.505  69.619  1.00  0.00    -0.040 C  
HETATM    2  N   UNL     1      -7.576   9.875  68.809  1.00  0.00    -0.079 N  
HETATM    3  C   UNL     2      -8.494   7.928  68.130  1.00  0.00    -0.124 C  
HETATM    4  N   UNL     2      -9.293   9.281  67.768  1.00  0.00    -0.129 NA 
HETATM    5  C   UNL     1      -7.533  10.112  67.035  1.00  0.00    -0.092 A  
HETATM    6  O   UNL     1      -9.262   9.577  70.904  1.00  0.00    -0.217 OA 
HETATM    7  C   UNL     1      -8.875  10.574  66.181  1.00  0.00    -0.159 A  
HETATM    8  C   UNL     2     -10.622   8.498  67.272  1.00  0.00    -0.245 C  
HETATM    9  C   UNL     1     -11.814  10.747  69.473  1.00  0.00    -0.308 C  
HETATM   10  N   UNL     1      -8.520  10.710  64.876  1.00  0.00    -0.283 NA 
HETATM   11  C   UNL     1     -10.541  10.803  66.996  1.00  0.00    -0.260 C  
HETATM   12  H   UNL     1      -9.098  11.025  64.098  1.00  0.00     0.000 HD 
HETATM   13  O   UNL     1     -11.519  11.236  66.381  1.00  0.00    -0.306 OA 
HETATM   14  N   UNL     1     -10.607  10.456  68.750  1.00  0.00    -0.195 N  
HETATM   15  C   UNL     1      -7.253  10.341  64.851  1.00  0.00    -0.100 A  
HETATM   16  C   UNL     1      -9.255   9.847  69.714  1.00  0.00    -0.227 C  
HETATM   17 CL   UNL     1      -6.323  10.196  63.427  1.00  0.00    -0.137 Cl 
HETATM   18  N   UNL     1      -6.617  10.011  66.034  1.00  0.00    -0.088 NA 
ENDROOT
BRANCH   4  19
HETATM   19  C   UNL     2      -8.883  11.274  68.216  1.00  0.00    -0.158 C  
BRANCH  19  20
HETATM   20  C   UNL     2      -9.436  12.809  67.579  1.00  0.00    -0.187 C  
BRANCH  20  21
HETATM   21  O   UNL     2      -9.337  13.846  68.566  1.00  0.00    -0.203 OA 
BRANCH  21  22
HETATM   22  C   UNL     2     -10.474  14.762  68.494  1.00  0.00    -0.249 C  
BRANCH  22  23
HETATM   23  C   UNL     2     -11.236  14.792  69.826  1.00  0.00    -0.306 A  
HETATM   24  C   UNL     2     -10.949  15.813  70.757  1.00  0.00    -0.311 A  
HETATM   25  C   UNL     2     -12.373  14.001  70.060  1.00  0.00    -0.397 A  
HETATM   26  C   UNL     2     -11.818  16.085  71.821  1.00  0.00    -0.599 A  
HETATM   27  C   UNL     2     -12.969  15.322  71.995  1.00  0.00    -0.455 A  
HETATM   28  C   UNL     2     -13.230  14.263  71.133  1.00  0.00    -0.387 A  
ENDBRANCH  22  23
BRANCH  22  29
HETATM   29  C   UNL     2      -9.931  16.077  67.954  1.00  0.00    -0.233 A  
HETATM   30  C   UNL     2      -8.893  18.362  66.668  1.00  0.00    -0.297 A  
HETATM   31  C   UNL     2      -8.052  17.534  67.403  1.00  0.00    -0.213 A  
HETATM   32  C   UNL     2     -10.772  16.949  67.240  1.00  0.00    -0.208 A  
HETATM   33  C   UNL     2      -8.565  16.393  68.022  1.00  0.00    -0.185 A  
HETATM   34  C   UNL     2     -10.253  18.073  66.589  1.00  0.00    -0.375 A  
ENDBRANCH  22  29
ENDBRANCH  21  22
ENDBRANCH  20  21
ENDBRANCH  19  20
ENDBRANCH   4  19
TORSDOF 6
ENDMDL
MODEL       79
REMARK 921   NORMALIZED FREE ENERGY PREDICTED BY IDOCK:   -5.06 KCAL/MOL
REMARK 922        TOTAL FREE ENERGY PREDICTED BY IDOCK:   -5.22 KCAL/MOL
REMARK 923 INTER-LIGAND FREE ENERGY PREDICTED BY IDOCK:   -7.67 KCAL/MOL
REMARK 924 INTRA-LIGAND FREE ENERGY PREDICTED BY IDOCK:    2.45 KCAL/MOL
REMARK 927      BINDING AFFINITY PREDICTED BY RF-SCORE:    0.00 PKD
ROOT
HETATM    1  C   UNL     1      -7.339   9.477  68.238  1.00  0.00    -0.077 C  
HETATM    2  N   UNL     1      -8.515  10.148  67.672  1.00  0.00    -0.118 N  
HETATM    3  C   UNL     2      -8.194  12.354  68.036  1.00  0.00    -0.168 C  
HETATM    4  N   UNL     2      -9.479  11.934  67.155  1.00  0.00    -0.175 NA 
HETATM    5  C   UNL     1      -9.998  10.531  68.600  1.00  0.00    -0.181 A  
HETATM    6  O   UNL     1      -7.234  10.666  65.346  1.00  0.00    -0.110 OA 
HETATM    7  C   UNL     1     -11.310  11.252  67.892  1.00  0.00    -0.299 A  
HETATM    8  C   UNL     2      -9.802  13.454  66.698  1.00  0.00    -0.278 C  
HETATM    9  C   UNL     1      -9.748  11.758  63.793  1.00  0.00    -0.232 C  
HETATM   10  N   UNL     1     -12.284  11.372  68.833  1.00  0.00    -0.464 NA 
HETATM   11  C   UNL     1     -11.306  11.787  66.102  1.00  0.00    -0.280 C  
HETATM   12  H   UNL     1     -13.231  11.732  68.715  1.00  0.00     0.000 HD 
HETATM   13  O   UNL     1     -12.312  12.238  65.550  1.00  0.00    -0.602 OA 
HETATM   14  N   UNL     1      -9.782  11.507  65.207  1.00  0.00    -0.236 N  
HETATM   15  C   UNL     1     -11.721  10.915  69.935  1.00  0.00    -0.339 A  
HETATM   16  C   UNL     1      -8.298  10.852  65.913  1.00  0.00    -0.149 C  
HETATM   17 CL   UNL     1     -12.456  10.947  71.475  1.00  0.00    -0.449 Cl 
HETATM   18  N   UNL     1     -10.438  10.399  69.880  1.00  0.00    -0.246 NA 
ENDROOT
BRANCH   4  19
HETATM   19  C   UNL     2     -10.152  10.068  66.519  1.00  0.00    -0.232 C  
BRANCH  19  20
HETATM   20  C   UNL     2     -10.825   8.670  67.331  1.00  0.00    -0.013 C  
BRANCH  20  21
HETATM   21  O   UNL     2     -10.182   7.461  66.902  1.00  0.00    -0.243 OA 
BRANCH  21  22
HETATM   22  C   UNL     2     -10.661   6.304  67.657  1.00  0.00    -0.313 C  
BRANCH  22  23
HETATM   23  C   UNL     2      -9.925   5.028  67.225  1.00  0.00    -0.220 A  
HETATM   24  C   UNL     2      -9.769   3.979  68.156  1.00  0.00    -0.138 A  
HETATM   25  C   UNL     2      -9.615   4.756  65.883  1.00  0.00    -0.188 A  
HETATM   26  C   UNL     2      -9.409   2.691  67.738  1.00  0.00    -0.229 A  
HETATM   27  C   UNL     2      -9.165   2.436  66.392  1.00  0.00    -0.028 A  
HETATM   28  C   UNL     2      -9.240   3.474  65.470  1.00  0.00    -0.156 A  
ENDBRANCH  22  23
BRANCH  22  29
HETATM   29  C   UNL     2     -10.604   6.698  69.125  1.00  0.00    -0.280 A  
HETATM   30  C   UNL     2     -10.424   7.117  71.908  1.00  0.00    -0.220 A  
HETATM   31  C   UNL     2     -11.662   6.889  71.317  1.00  0.00    -0.371 A  
HETATM   32  C   UNL     2      -9.368   6.971  69.736  1.00  0.00    -0.146 A  
HETATM   33  C   UNL     2     -11.745   6.662  69.942  1.00  0.00    -0.333 A  
HETATM   34  C   UNL     2      -9.278   7.162  71.119  1.00  0.00    -0.157 A  
ENDBRANCH  22  29
ENDBRANCH  21  22
ENDBRANCH  20  21
ENDBRANCH  19  20
ENDBRANCH   4  19
TORSDOF 6
ENDMDL
MODEL       80
REMARK 921   NORMALIZED FREE ENERGY PREDICTED BY IDOCK:   -5.04 KCAL/MOL
REMARK 922        TOTAL FREE ENERGY PREDICTED BY IDOCK:   -5.20 KCAL/MOL
REMARK 923 INTER-LIGAND FREE ENERGY PREDICTED BY IDOCK:   -7.43 KCAL/MOL
REMARK 924 INTRA-LIGAND FREE ENERGY PREDICTED BY IDOCK:    2.23 KCAL/MOL
REMARK 927      BINDING AFFINITY PREDICTED BY RF-SCORE:    0.00 PKD
ROOT
HETATM    1  C   UNL     1     -11.784  11.785  67.427  1.00  0.00    -0.230 C  
HETATM    2  N   UNL     1     -10.452  11.169  67.408  1.00  0.00    -0.209 N  
HETATM    3  C   UNL     2      -9.905  10.962  65.227  1.00  0.00    -0.265 C  
HETATM    4  N   UNL     2      -8.773  10.572  66.308  1.00  0.00    -0.147 NA 
HETATM    5  C   UNL     1     -10.161   9.404  67.325  1.00  0.00    -0.246 A  
HETATM    6  O   UNL     1      -9.227  13.569  67.164  1.00  0.00    -0.218 OA 
HETATM    7  C   UNL     1      -8.633   8.767  67.351  1.00  0.00    -0.126 A  
HETATM    8  C   UNL     2      -7.596  10.456  65.201  1.00  0.00    -0.103 C  
HETATM    9  C   UNL     1      -6.284  12.503  67.528  1.00  0.00    -0.155 C  
HETATM   10  N   UNL     1      -8.740   7.412  67.317  1.00  0.00    -0.120 NA 
HETATM   11  C   UNL     1      -7.107   9.845  67.388  1.00  0.00    -0.085 C  
HETATM   12  H   UNL     1      -7.991   6.722  67.366  1.00  0.00     0.000 HD 
HETATM   13  O   UNL     1      -5.973   9.373  67.500  1.00  0.00    -0.048 OA 
HETATM   14  N   UNL     1      -7.398  11.610  67.356  1.00  0.00    -0.119 N  
HETATM   15  C   UNL     1     -10.037   7.197  67.207  1.00  0.00    -0.215 A  
HETATM   16  C   UNL     1      -8.987  12.374  67.211  1.00  0.00    -0.190 C  
HETATM   17 CL   UNL     1     -10.741   5.657  66.996  1.00  0.00    -0.346 Cl 
HETATM   18  N   UNL     1     -10.908   8.271  67.229  1.00  0.00    -0.151 NA 
ENDROOT
BRANCH   4  19
HETATM   19  C   UNL     2      -8.786  10.645  68.390  1.00  0.00    -0.141 C  
BRANCH  19  20
HETATM   20  C   UNL     2      -8.650   9.442  69.656  1.00  0.00    -0.168 C  
BRANCH  20  21
HETATM   21  O   UNL     2      -9.778   9.491  70.541  1.00  0.00    -0.250 OA 
BRANCH  21  22
HETATM   22  C   UNL     2     -10.202   8.149  70.940  1.00  0.00    -0.189 C  
BRANCH  22  23
HETATM   23  C   UNL     2      -9.311   7.610  72.068  1.00  0.00    -0.182 A  
HETATM   24  C   UNL     2      -8.337   6.635  71.764  1.00  0.00    -0.111 A  
HETATM   25  C   UNL     2      -9.252   8.214  73.334  1.00  0.00    -0.291 A  
HETATM   26  C   UNL     2      -7.297   6.352  72.658  1.00  0.00    -0.087 A  
HETATM   27  C   UNL     2      -7.230   7.008  73.883  1.00  0.00    -0.095 A  
HETATM   28  C   UNL     2      -8.223   7.916  74.233  1.00  0.00    -0.303 A  
ENDBRANCH  22  23
BRANCH  22  29
HETATM   29  C   UNL     2     -11.700   8.230  71.192  1.00  0.00    -0.308 A  
HETATM   30  C   UNL     2     -14.408   8.335  71.971  1.00  0.00    -0.541 A  
HETATM   31  C   UNL     2     -13.864   7.145  71.502  1.00  0.00    -0.421 A  
HETATM   32  C   UNL     2     -12.279   9.434  71.630  1.00  0.00    -0.467 A  
HETATM   33  C   UNL     2     -12.519   7.091  71.135  1.00  0.00    -0.407 A  
HETATM   34  C   UNL     2     -13.618   9.480  72.033  1.00  0.00    -0.492 A  
ENDBRANCH  22  29
ENDBRANCH  21  22
ENDBRANCH  20  21
ENDBRANCH  19  20
ENDBRANCH   4  19
TORSDOF 6
ENDMDL
MODEL       81
REMARK 921   NORMALIZED FREE ENERGY PREDICTED BY IDOCK:   -5.02 KCAL/MOL
REMARK 922        TOTAL FREE ENERGY PREDICTED BY IDOCK:   -5.17 KCAL/MOL
REMARK 923 INTER-LIGAND FREE ENERGY PREDICTED BY IDOCK:   -7.51 KCAL/MOL
REMARK 924 INTRA-LIGAND FREE ENERGY PREDICTED BY IDOCK:    2.35 KCAL/MOL
REMARK 927      BINDING AFFINITY PREDICTED BY RF-SCORE:    0.00 PKD
ROOT
HETATM    1  C   UNL     1     -10.330   9.458  66.107  1.00  0.00    -0.092 C  
HETATM    2  N   UNL     1      -9.493   9.535  67.310  1.00  0.00    -0.134 N  
HETATM    3  C   UNL     2      -9.121   7.398  67.935  1.00  0.00    -0.129 C  
HETATM    4  N   UNL     2      -8.346   8.548  68.757  1.00  0.00    -0.121 NA 
HETATM    5  C   UNL     1     -10.138   9.581  68.981  1.00  0.00    -0.193 A  
HETATM    6  O   UNL     1      -7.220   9.185  65.885  1.00  0.00    -0.090 OA 
HETATM    7  C   UNL     1      -9.143   9.713  70.298  1.00  0.00    -0.225 A  
HETATM    8  C   UNL     2      -7.387   7.501  69.538  1.00  0.00    -0.084 C  
HETATM    9  C   UNL     1      -5.225   9.742  68.260  1.00  0.00    -0.036 C  
HETATM   10  N   UNL     1      -9.922   9.764  71.411  1.00  0.00    -0.123 NA 
HETATM   11  C   UNL     1      -7.281   9.742  70.140  1.00  0.00    -0.145 C  
HETATM   12  H   UNL     1      -9.626   9.889  72.379  1.00  0.00     0.000 HD 
HETATM   13  O   UNL     1      -6.543   9.933  71.109  1.00  0.00    -0.304 OA 
HETATM   14  N   UNL     1      -6.637   9.582  68.478  1.00  0.00    -0.053 N  
HETATM   15  C   UNL     1     -11.149   9.614  70.949  1.00  0.00    -0.352 A  
HETATM   16  C   UNL     1      -7.619   9.321  67.030  1.00  0.00    -0.091 C  
HETATM   17 CL   UNL     1     -12.535   9.475  71.934  1.00  0.00    -0.460 Cl 
HETATM   18  N   UNL     1     -11.355   9.528  69.584  1.00  0.00    -0.107 NA 
ENDROOT
BRANCH   4  19
HETATM   19  C   UNL     2      -8.326  10.618  68.526  1.00  0.00    -0.130 C  
BRANCH  19  20
HETATM   20  C   UNL     2      -9.566  11.853  68.459  1.00  0.00    -0.157 C  
BRANCH  20  21
HETATM   21  O   UNL     2      -9.221  12.885  67.524  1.00  0.00    -0.177 OA 
BRANCH  21  22
HETATM   22  C   UNL     2     -10.354  13.773  67.266  1.00  0.00    -0.253 C  
BRANCH  22  23
HETATM   23  C   UNL     2      -9.947  15.242  67.447  1.00  0.00    -0.223 A  
HETATM   24  C   UNL     2     -10.752  16.082  68.246  1.00  0.00    -0.298 A  
HETATM   25  C   UNL     2      -8.689  15.728  67.058  1.00  0.00    -0.251 A  
HETATM   26  C   UNL     2     -10.271  17.313  68.710  1.00  0.00    -0.353 A  
HETATM   27  C   UNL     2      -8.996  17.743  68.356  1.00  0.00    -0.281 A  
HETATM   28  C   UNL     2      -8.218  16.965  67.507  1.00  0.00    -0.191 A  
ENDBRANCH  22  23
BRANCH  22  29
HETATM   29  C   UNL     2     -10.930  13.352  65.922  1.00  0.00    -0.284 A  
HETATM   30  C   UNL     2     -12.072  12.291  63.573  1.00  0.00    -0.649 A  
HETATM   31  C   UNL     2     -10.697  12.233  63.766  1.00  0.00    -0.494 A  
HETATM   32  C   UNL     2     -12.314  13.438  65.690  1.00  0.00    -0.521 A  
HETATM   33  C   UNL     2     -10.136  12.742  64.938  1.00  0.00    -0.235 A  
HETATM   34  C   UNL     2     -12.881  12.895  64.531  1.00  0.00    -0.273 A  
ENDBRANCH  22  29
ENDBRANCH  21  22
ENDBRANCH  20  21
ENDBRANCH  19  20
ENDBRANCH   4  19
TORSDOF 6
ENDMDL
MODEL       82
REMARK 921   NORMALIZED FREE ENERGY PREDICTED BY IDOCK:   -5.00 KCAL/MOL
REMARK 922        TOTAL FREE ENERGY PREDICTED BY IDOCK:   -5.14 KCAL/MOL
REMARK 923 INTER-LIGAND FREE ENERGY PREDICTED BY IDOCK:   -6.76 KCAL/MOL
REMARK 924 INTRA-LIGAND FREE ENERGY PREDICTED BY IDOCK:    1.62 KCAL/MOL
REMARK 927      BINDING AFFINITY PREDICTED BY RF-SCORE:    0.00 PKD
ROOT
HETATM    1  C   UNL     1      -6.226   9.095  71.083  1.00  0.00    -0.070 C  
HETATM    2  N   UNL     1      -7.454   8.403  70.677  1.00  0.00    -0.061 N  
HETATM    3  C   UNL     2      -7.169   6.245  71.276  1.00  0.00    -0.079 C  
HETATM    4  N   UNL     2      -8.613   6.659  70.690  1.00  0.00    -0.141 NA 
HETATM    5  C   UNL     1      -7.681   7.605  69.089  1.00  0.00    -0.109 A  
HETATM    6  O   UNL     1      -8.526   8.622  73.151  1.00  0.00    -0.398 OA 
HETATM    7  C   UNL     1      -9.108   6.877  68.672  1.00  0.00    -0.131 A  
HETATM    8  C   UNL     2      -9.306   5.251  71.094  1.00  0.00    -0.151 C  
HETATM    9  C   UNL     1     -11.391   7.551  72.392  1.00  0.00    -0.312 C  
HETATM   10  N   UNL     1      -8.986   6.404  67.403  1.00  0.00    -0.110 NA 
HETATM   11  C   UNL     1     -10.552   6.769  69.853  1.00  0.00    -0.222 C  
HETATM   12  H   UNL     1      -9.695   5.944  66.834  1.00  0.00     0.000 HD 
HETATM   13  O   UNL     1     -11.645   6.310  69.513  1.00  0.00    -0.423 OA 
HETATM   14  N   UNL     1     -10.284   7.467  71.479  1.00  0.00    -0.193 N  
HETATM   15  C   UNL     1      -7.736   6.677  67.080  1.00  0.00    -0.100 A  
HETATM   16  C   UNL     1      -8.757   8.157  72.047  1.00  0.00    -0.164 C  
HETATM   17 CL   UNL     1      -6.991   6.188  65.625  1.00  0.00    -0.056 Cl 
HETATM   18  N   UNL     1      -6.941   7.375  67.971  1.00  0.00    -0.073 NA 
ENDROOT
BRANCH   4  19
HETATM   19  C   UNL     2      -9.359   8.499  70.062  1.00  0.00    -0.163 C  
BRANCH  19  20
HETATM   20  C   UNL     2     -10.382   9.017  68.738  1.00  0.00    -0.215 C  
BRANCH  20  21
HETATM   21  O   UNL     2      -9.982  10.303  68.245  1.00  0.00    -0.143 OA 
BRANCH  21  22
HETATM   22  C   UNL     2     -10.178  10.406  66.800  1.00  0.00    -0.226 C  
BRANCH  22  23
HETATM   23  C   UNL     2     -10.886  11.719  66.437  1.00  0.00    -0.325 A  
HETATM   24  C   UNL     2     -11.491  11.844  65.169  1.00  0.00    -0.304 A  
HETATM   25  C   UNL     2     -11.171  12.708  67.393  1.00  0.00    -0.337 A  
HETATM   26  C   UNL     2     -12.414  12.864  64.907  1.00  0.00    -0.540 A  
HETATM   27  C   UNL     2     -12.722  13.797  65.892  1.00  0.00    -0.452 A  
HETATM   28  C   UNL     2     -12.080  13.736  67.123  1.00  0.00    -0.416 A  
ENDBRANCH  22  23
BRANCH  22  29
HETATM   29  C   UNL     2      -8.826  10.125  66.162  1.00  0.00    -0.162 A  
HETATM   30  C   UNL     2      -6.340   9.901  64.850  1.00  0.00    -0.110 A  
HETATM   31  C   UNL     2      -7.485   9.367  64.268  1.00  0.00    -0.110 A  
HETATM   32  C   UNL     2      -7.650  10.621  66.752  1.00  0.00    -0.120 A  
HETATM   33  C   UNL     2      -8.717   9.497  64.912  1.00  0.00    -0.218 A  
HETATM   34  C   UNL     2      -6.420  10.524  66.091  1.00  0.00    -0.122 A  
ENDBRANCH  22  29
ENDBRANCH  21  22
ENDBRANCH  20  21
ENDBRANCH  19  20
ENDBRANCH   4  19
TORSDOF 6
ENDMDL
MODEL       83
REMARK 921   NORMALIZED FREE ENERGY PREDICTED BY IDOCK:   -4.99 KCAL/MOL
REMARK 922        TOTAL FREE ENERGY PREDICTED BY IDOCK:   -5.12 KCAL/MOL
REMARK 923 INTER-LIGAND FREE ENERGY PREDICTED BY IDOCK:   -7.78 KCAL/MOL
REMARK 924 INTRA-LIGAND FREE ENERGY PREDICTED BY IDOCK:    2.66 KCAL/MOL
REMARK 927      BINDING AFFINITY PREDICTED BY RF-SCORE:    0.00 PKD
ROOT
HETATM    1  C   UNL     1     -12.029  12.276  66.169  1.00  0.00    -0.249 C  
HETATM    2  N   UNL     1     -10.831  11.986  66.964  1.00  0.00    -0.241 N  
HETATM    3  C   UNL     2      -9.680  10.435  65.794  1.00  0.00    -0.228 C  
HETATM    4  N   UNL     2      -8.977  11.025  67.119  1.00  0.00    -0.142 NA 
HETATM    5  C   UNL     1     -10.727  10.683  68.189  1.00  0.00    -0.225 A  
HETATM    6  O   UNL     1      -9.329  13.724  65.534  1.00  0.00     0.076 OA 
HETATM    7  C   UNL     1      -9.359  10.433  69.086  1.00  0.00    -0.199 A  
HETATM    8  C   UNL     2      -7.542  10.345  66.796  1.00  0.00    -0.110 C  
HETATM    9  C   UNL     1      -6.770  13.570  67.366  1.00  0.00    -0.027 C  
HETATM   10  N   UNL     1      -9.601   9.411  69.950  1.00  0.00    -0.196 NA 
HETATM   11  C   UNL     1      -7.804  11.437  68.829  1.00  0.00    -0.128 C  
HETATM   12  H   UNL     1      -8.983   9.038  70.669  1.00  0.00     0.000 HD 
HETATM   13  O   UNL     1      -6.816  11.315  69.558  1.00  0.00    -0.118 OA 
HETATM   14  N   UNL     1      -7.873  12.663  67.527  1.00  0.00    -0.163 N  
HETATM   15  C   UNL     1     -10.821   9.015  69.640  1.00  0.00    -0.186 A  
HETATM   16  C   UNL     1      -9.249  12.917  66.446  1.00  0.00    -0.137 C  
HETATM   17 CL   UNL     1     -11.596   7.662  70.333  1.00  0.00    -0.198 Cl 
HETATM   18  N   UNL     1     -11.533   9.699  68.671  1.00  0.00     0.164 NA 
ENDROOT
BRANCH   4  19
HETATM   19  C   UNL     2      -9.606  12.479  68.471  1.00  0.00    -0.110 C  
BRANCH  19  20
HETATM   20  C   UNL     2      -9.557  14.230  68.493  1.00  0.00    -0.220 C  
BRANCH  20  21
HETATM   21  O   UNL     2     -10.845  14.781  68.804  1.00  0.00    -0.238 OA 
BRANCH  21  22
HETATM   22  C   UNL     2     -10.731  15.943  69.684  1.00  0.00    -0.304 C  
BRANCH  22  23
HETATM   23  C   UNL     2     -10.636  17.239  68.865  1.00  0.00    -0.276 A  
HETATM   24  C   UNL     2      -9.996  18.362  69.432  1.00  0.00     0.065 A  
HETATM   25  C   UNL     2     -10.938  17.287  67.495  1.00  0.00    -0.102 A  
HETATM   26  C   UNL     2      -9.593  19.441  68.635  1.00  0.00    -0.490 A  
HETATM   27  C   UNL     2      -9.853  19.435  67.268  1.00  0.00    -0.445 A  
HETATM   28  C   UNL     2     -10.550  18.373  66.704  1.00  0.00    -0.359 A  
ENDBRANCH  22  23
BRANCH  22  29
HETATM   29  C   UNL     2     -11.855  15.823  70.702  1.00  0.00    -0.415 A  
HETATM   30  C   UNL     2     -13.785  15.338  72.699  1.00  0.00    -0.608 A  
HETATM   31  C   UNL     2     -13.997  14.886  71.402  1.00  0.00    -0.544 A  
HETATM   32  C   UNL     2     -11.678  16.308  72.010  1.00  0.00    -0.528 A  
HETATM   33  C   UNL     2     -13.031  15.111  70.420  1.00  0.00    -0.296 A  
HETATM   34  C   UNL     2     -12.629  16.051  73.004  1.00  0.00    -0.605 A  
ENDBRANCH  22  29
ENDBRANCH  21  22
ENDBRANCH  20  21
ENDBRANCH  19  20
ENDBRANCH   4  19
TORSDOF 6
ENDMDL
MODEL       84
REMARK 921   NORMALIZED FREE ENERGY PREDICTED BY IDOCK:   -4.98 KCAL/MOL
REMARK 922        TOTAL FREE ENERGY PREDICTED BY IDOCK:   -5.11 KCAL/MOL
REMARK 923 INTER-LIGAND FREE ENERGY PREDICTED BY IDOCK:   -7.29 KCAL/MOL
REMARK 924 INTRA-LIGAND FREE ENERGY PREDICTED BY IDOCK:    2.18 KCAL/MOL
REMARK 927      BINDING AFFINITY PREDICTED BY RF-SCORE:    0.00 PKD
ROOT
HETATM    1  C   UNL     1      -9.628   4.443  67.865  1.00  0.00    -0.152 C  
HETATM    2  N   UNL     1      -9.336   5.668  68.620  1.00  0.00    -0.121 N  
HETATM    3  C   UNL     2      -8.575   4.982  70.631  1.00  0.00    -0.114 C  
HETATM    4  N   UNL     2      -8.531   6.566  70.331  1.00  0.00    -0.130 NA 
HETATM    5  C   UNL     1     -10.510   6.490  69.694  1.00  0.00    -0.216 A  
HETATM    6  O   UNL     1      -6.716   5.586  67.951  1.00  0.00    -0.051 OA 
HETATM    7  C   UNL     1     -10.135   7.896  70.485  1.00  0.00    -0.192 A  
HETATM    8  C   UNL     2      -7.639   6.903  71.641  1.00  0.00    -0.090 C  
HETATM    9  C   UNL     1      -5.959   8.404  69.142  1.00  0.00    -0.042 C  
HETATM   10  N   UNL     1     -11.233   8.293  71.183  1.00  0.00    -0.252 NA 
HETATM   11  C   UNL     1      -8.442   8.678  70.375  1.00  0.00    -0.140 C  
HETATM   12  H   UNL     1     -11.351   9.139  71.738  1.00  0.00     0.000 HD 
HETATM   13  O   UNL     1      -8.189   9.771  70.887  1.00  0.00    -0.234 OA 
HETATM   14  N   UNL     1      -7.236   7.794  69.392  1.00  0.00    -0.078 N  
HETATM   15  C   UNL     1     -12.109   7.329  70.973  1.00  0.00    -0.324 A  
HETATM   16  C   UNL     1      -7.515   6.231  68.610  1.00  0.00    -0.088 C  
HETATM   17 CL   UNL     1     -13.641   7.245  71.721  1.00  0.00    -0.414 Cl 
HETATM   18  N   UNL     1     -11.784   6.286  70.124  1.00  0.00    -0.335 NA 
ENDROOT
BRANCH   4  19
HETATM   19  C   UNL     2      -9.063   7.653  68.636  1.00  0.00    -0.135 C  
BRANCH  19  20
HETATM   20  C   UNL     2     -10.158   8.986  68.332  1.00  0.00    -0.191 C  
BRANCH  20  21
HETATM   21  O   UNL     2      -9.672   9.826  67.276  1.00  0.00    -0.158 OA 
BRANCH  21  22
HETATM   22  C   UNL     2     -10.186  11.189  67.398  1.00  0.00    -0.190 C  
BRANCH  22  23
HETATM   23  C   UNL     2      -9.107  12.131  67.951  1.00  0.00    -0.185 A  
HETATM   24  C   UNL     2      -7.757  11.722  67.917  1.00  0.00    -0.125 A  
HETATM   25  C   UNL     2      -9.369  13.475  68.262  1.00  0.00    -0.205 A  
HETATM   26  C   UNL     2      -6.718  12.644  68.095  1.00  0.00    -0.082 A  
HETATM   27  C   UNL     2      -7.007  13.982  68.345  1.00  0.00    -0.100 A  
HETATM   28  C   UNL     2      -8.330  14.391  68.457  1.00  0.00    -0.157 A  
ENDBRANCH  22  23
BRANCH  22  29
HETATM   29  C   UNL     2     -10.812  11.533  66.055  1.00  0.00    -0.330 A  
HETATM   30  C   UNL     2     -11.755  12.409  63.546  1.00  0.00    -0.592 A  
HETATM   31  C   UNL     2     -12.377  12.840  64.713  1.00  0.00    -0.540 A  
HETATM   32  C   UNL     2     -10.224  11.077  64.863  1.00  0.00    -0.373 A  
HETATM   33  C   UNL     2     -11.896  12.420  65.954  1.00  0.00    -0.467 A  
HETATM   34  C   UNL     2     -10.682  11.526  63.620  1.00  0.00    -0.491 A  
ENDBRANCH  22  29
ENDBRANCH  21  22
ENDBRANCH  20  21
ENDBRANCH  19  20
ENDBRANCH   4  19
TORSDOF 6
ENDMDL
MODEL       85
REMARK 921   NORMALIZED FREE ENERGY PREDICTED BY IDOCK:   -4.98 KCAL/MOL
REMARK 922        TOTAL FREE ENERGY PREDICTED BY IDOCK:   -5.11 KCAL/MOL
REMARK 923 INTER-LIGAND FREE ENERGY PREDICTED BY IDOCK:   -7.09 KCAL/MOL
REMARK 924 INTRA-LIGAND FREE ENERGY PREDICTED BY IDOCK:    1.98 KCAL/MOL
REMARK 927      BINDING AFFINITY PREDICTED BY RF-SCORE:    0.00 PKD
ROOT
HETATM    1  C   UNL     1      -6.292   9.136  68.441  1.00  0.00    -0.054 C  
HETATM    2  N   UNL     1      -7.563   8.486  68.780  1.00  0.00    -0.095 N  
HETATM    3  C   UNL     2      -7.010   6.598  69.887  1.00  0.00    -0.063 C  
HETATM    4  N   UNL     2      -8.578   6.961  69.794  1.00  0.00    -0.140 NA 
HETATM    5  C   UNL     1      -8.375   7.268  67.747  1.00  0.00    -0.118 A  
HETATM    6  O   UNL     1      -7.580   9.564  71.262  1.00  0.00    -0.327 OA 
HETATM    7  C   UNL     1      -9.833   6.602  68.163  1.00  0.00    -0.132 A  
HETATM    8  C   UNL     2      -9.020   5.826  70.863  1.00  0.00    -0.145 C  
HETATM    9  C   UNL     1     -10.484   8.618  72.038  1.00  0.00    -0.352 C  
HETATM   10  N   UNL     1     -10.208   5.752  67.170  1.00  0.00    -0.182 NA 
HETATM   11  C   UNL     1     -10.692   7.012  69.771  1.00  0.00    -0.241 C  
HETATM   12  H   UNL     1     -11.072   5.218  67.094  1.00  0.00     0.000 HD 
HETATM   13  O   UNL     1     -11.819   6.589  70.040  1.00  0.00    -0.404 OA 
HETATM   14  N   UNL     1      -9.824   8.143  70.853  1.00  0.00    -0.175 N  
HETATM   15  C   UNL     1      -9.193   5.781  66.327  1.00  0.00    -0.158 A  
HETATM   16  C   UNL     1      -8.215   8.809  70.542  1.00  0.00    -0.131 C  
HETATM   17 CL   UNL     1      -9.068   4.794  64.940  1.00  0.00    -0.155 Cl 
HETATM   18  N   UNL     1      -8.129   6.631  66.571  1.00  0.00    -0.109 NA 
ENDROOT
BRANCH   4  19
HETATM   19  C   UNL     2      -9.558   8.589  68.940  1.00  0.00    -0.160 C  
BRANCH  19  20
HETATM   20  C   UNL     2     -10.908   8.762  67.838  1.00  0.00    -0.011 C  
BRANCH  20  21
HETATM   21  O   UNL     2     -11.319  10.133  67.732  1.00  0.00    -0.274 OA 
BRANCH  21  22
HETATM   22  C   UNL     2     -10.176  11.017  67.508  1.00  0.00    -0.188 C  
BRANCH  22  23
HETATM   23  C   UNL     2      -9.738  10.980  66.037  1.00  0.00    -0.265 A  
HETATM   24  C   UNL     2      -8.592  10.236  65.682  1.00  0.00    -0.170 A  
HETATM   25  C   UNL     2     -10.557  11.447  64.997  1.00  0.00    -0.359 A  
HETATM   26  C   UNL     2      -8.337   9.898  64.347  1.00  0.00    -0.169 A  
HETATM   27  C   UNL     2      -9.198  10.325  63.341  1.00  0.00    -0.321 A  
HETATM   28  C   UNL     2     -10.290  11.123  63.663  1.00  0.00    -0.449 A  
ENDBRANCH  22  23
BRANCH  22  29
HETATM   29  C   UNL     2     -10.552  12.364  68.107  1.00  0.00    -0.232 A  
HETATM   30  C   UNL     2     -11.073  14.775  69.473  1.00  0.00    -0.302 A  
HETATM   31  C   UNL     2     -11.989  13.731  69.530  1.00  0.00    -0.399 A  
HETATM   32  C   UNL     2      -9.658  13.447  68.028  1.00  0.00    -0.219 A  
HETATM   33  C   UNL     2     -11.719  12.532  68.868  1.00  0.00    -0.367 A  
HETATM   34  C   UNL     2      -9.910  14.636  68.720  1.00  0.00    -0.227 A  
ENDBRANCH  22  29
ENDBRANCH  21  22
ENDBRANCH  20  21
ENDBRANCH  19  20
ENDBRANCH   4  19
TORSDOF 6
ENDMDL
MODEL       86
REMARK 921   NORMALIZED FREE ENERGY PREDICTED BY IDOCK:   -4.96 KCAL/MOL
REMARK 922        TOTAL FREE ENERGY PREDICTED BY IDOCK:   -5.08 KCAL/MOL
REMARK 923 INTER-LIGAND FREE ENERGY PREDICTED BY IDOCK:   -7.37 KCAL/MOL
REMARK 924 INTRA-LIGAND FREE ENERGY PREDICTED BY IDOCK:    2.29 KCAL/MOL
REMARK 927      BINDING AFFINITY PREDICTED BY RF-SCORE:    0.00 PKD
ROOT
HETATM    1  C   UNL     1     -10.647   5.010  66.054  1.00  0.00    -0.232 C  
HETATM    2  N   UNL     1      -9.582   5.752  66.738  1.00  0.00    -0.140 N  
HETATM    3  C   UNL     2      -7.954   4.245  67.153  1.00  0.00    -0.097 C  
HETATM    4  N   UNL     2      -7.637   5.785  67.511  1.00  0.00    -0.091 NA 
HETATM    5  C   UNL     1      -9.453   5.915  68.516  1.00  0.00    -0.121 A  
HETATM    6  O   UNL     1      -8.214   6.127  64.434  1.00  0.00    -0.126 OA 
HETATM    7  C   UNL     1      -8.251   6.804  69.228  1.00  0.00    -0.124 A  
HETATM    8  C   UNL     2      -6.062   5.515  67.780  1.00  0.00    -0.026 C  
HETATM    9  C   UNL     1      -6.057   8.094  65.619  1.00  0.00    -0.041 C  
HETATM   10  N   UNL     1      -8.442   6.772  70.574  1.00  0.00    -0.136 NA 
HETATM   11  C   UNL     1      -6.904   7.632  68.233  1.00  0.00    -0.067 C  
HETATM   12  H   UNL     1      -7.907   7.253  71.296  1.00  0.00     0.000 HD 
HETATM   13  O   UNL     1      -6.063   8.369  68.752  1.00  0.00    -0.043 OA 
HETATM   14  N   UNL     1      -6.970   7.374  66.463  1.00  0.00    -0.068 N  
HETATM   15  C   UNL     1      -9.482   5.975  70.729  1.00  0.00    -0.168 A  
HETATM   16  C   UNL     1      -8.147   6.347  65.632  1.00  0.00    -0.131 C  
HETATM   17 CL   UNL     1     -10.091   5.473  72.242  1.00  0.00    -0.214 Cl 
HETATM   18  N   UNL     1     -10.124   5.469  69.612  1.00  0.00    -0.215 NA 
ENDROOT
BRANCH   4  19
HETATM   19  C   UNL     2      -8.777   7.510  67.266  1.00  0.00    -0.121 C  
BRANCH  19  20
HETATM   20  C   UNL     2      -8.893   9.032  68.125  1.00  0.00    -0.133 C  
BRANCH  20  21
HETATM   21  O   UNL     2     -10.262   9.416  68.317  1.00  0.00    -0.180 OA 
BRANCH  21  22
HETATM   22  C   UNL     2     -10.368  10.634  69.120  1.00  0.00    -0.221 C  
BRANCH  22  23
HETATM   23  C   UNL     2     -10.751  11.834  68.242  1.00  0.00    -0.246 A  
HETATM   24  C   UNL     2     -11.342  11.600  66.982  1.00  0.00    -0.373 A  
HETATM   25  C   UNL     2     -10.770  13.149  68.733  1.00  0.00    -0.253 A  
HETATM   26  C   UNL     2     -12.002  12.624  66.293  1.00  0.00    -0.439 A  
HETATM   27  C   UNL     2     -12.055  13.907  66.831  1.00  0.00    -0.467 A  
HETATM   28  C   UNL     2     -11.414  14.175  68.035  1.00  0.00    -0.342 A  
ENDBRANCH  22  23
BRANCH  22  29
HETATM   29  C   UNL     2     -11.269  10.295  70.297  1.00  0.00    -0.395 A  
HETATM   30  C   UNL     2     -13.075   9.443  72.288  1.00  0.00    -0.509 A  
HETATM   31  C   UNL     2     -13.372  10.556  71.509  1.00  0.00    -0.387 A  
HETATM   32  C   UNL     2     -10.969   9.197  71.124  1.00  0.00    -0.390 A  
HETATM   33  C   UNL     2     -12.484  10.963  70.511  1.00  0.00    -0.438 A  
HETATM   34  C   UNL     2     -11.874   8.766  72.099  1.00  0.00    -0.436 A  
ENDBRANCH  22  29
ENDBRANCH  21  22
ENDBRANCH  20  21
ENDBRANCH  19  20
ENDBRANCH   4  19
TORSDOF 6
ENDMDL
MODEL       87
REMARK 921   NORMALIZED FREE ENERGY PREDICTED BY IDOCK:   -4.94 KCAL/MOL
REMARK 922        TOTAL FREE ENERGY PREDICTED BY IDOCK:   -5.06 KCAL/MOL
REMARK 923 INTER-LIGAND FREE ENERGY PREDICTED BY IDOCK:   -7.69 KCAL/MOL
REMARK 924 INTRA-LIGAND FREE ENERGY PREDICTED BY IDOCK:    2.64 KCAL/MOL
REMARK 927      BINDING AFFINITY PREDICTED BY RF-SCORE:    0.00 PKD
ROOT
HETATM    1  C   UNL     1     -11.183   9.726  70.432  1.00  0.00    -0.300 C  
HETATM    2  N   UNL     1     -10.079  10.037  69.517  1.00  0.00    -0.214 N  
HETATM    3  C   UNL     2      -9.570   8.093  68.487  1.00  0.00    -0.148 C  
HETATM    4  N   UNL     2      -8.803   9.417  67.977  1.00  0.00    -0.124 NA 
HETATM    5  C   UNL     1      -8.346   9.900  69.947  1.00  0.00    -0.183 A  
HETATM    6  O   UNL     1     -11.761  10.344  67.420  1.00  0.00    -0.177 OA 
HETATM    7  C   UNL     1      -7.145  10.309  68.883  1.00  0.00    -0.075 A  
HETATM    8  C   UNL     2      -8.170   8.685  66.677  1.00  0.00    -0.107 C  
HETATM    9  C   UNL     1      -9.609  11.445  65.398  1.00  0.00    -0.228 C  
HETATM   10  N   UNL     1      -5.950  10.138  69.509  1.00  0.00    -0.041 NA 
HETATM   11  C   UNL     1      -7.511  10.865  67.137  1.00  0.00    -0.109 C  
HETATM   12  H   UNL     1      -5.019  10.343  69.149  1.00  0.00     0.000 HD 
HETATM   13  O   UNL     1      -6.625  11.258  66.374  1.00  0.00    -0.128 OA 
HETATM   14  N   UNL     1      -9.239  10.893  66.673  1.00  0.00    -0.165 N  
HETATM   15  C   UNL     1      -6.276   9.647  70.689  1.00  0.00    -0.084 A  
HETATM   16  C   UNL     1     -10.575  10.363  67.704  1.00  0.00    -0.257 C  
HETATM   17 CL   UNL     1      -5.147   9.121  71.855  1.00  0.00    -0.045 Cl 
HETATM   18  N   UNL     1      -7.612   9.505  71.022  1.00  0.00    -0.325 NA 
ENDROOT
BRANCH   4  19
HETATM   19  C   UNL     2      -8.968  11.408  68.567  1.00  0.00    -0.158 C  
BRANCH  19  20
HETATM   20  C   UNL     2     -10.161  12.664  68.313  1.00  0.00    -0.239 C  
BRANCH  20  21
HETATM   21  O   UNL     2      -9.812  13.863  69.019  1.00  0.00    -0.099 OA 
BRANCH  21  22
HETATM   22  C   UNL     2     -10.884  14.854  68.952  1.00  0.00    -0.250 C  
BRANCH  22  23
HETATM   23  C   UNL     2     -11.678  14.888  70.265  1.00  0.00    -0.352 A  
HETATM   24  C   UNL     2     -12.744  13.980  70.445  1.00  0.00    -0.316 A  
HETATM   25  C   UNL     2     -11.243  15.608  71.389  1.00  0.00    -0.392 A  
HETATM   26  C   UNL     2     -13.281  13.741  71.716  1.00  0.00    -0.467 A  
HETATM   27  C   UNL     2     -12.790  14.427  72.823  1.00  0.00    -0.496 A  
HETATM   28  C   UNL     2     -11.792  15.380  72.655  1.00  0.00    -0.567 A  
ENDBRANCH  22  23
BRANCH  22  29
HETATM   29  C   UNL     2     -10.243  16.148  68.473  1.00  0.00    -0.241 A  
HETATM   30  C   UNL     2      -9.183  18.685  67.848  1.00  0.00    -0.316 A  
HETATM   31  C   UNL     2     -10.376  18.266  67.268  1.00  0.00    -0.407 A  
HETATM   32  C   UNL     2      -9.018  16.573  69.016  1.00  0.00    -0.225 A  
HETATM   33  C   UNL     2     -10.908  17.018  67.594  1.00  0.00    -0.244 A  
HETATM   34  C   UNL     2      -8.503  17.839  68.718  1.00  0.00    -0.214 A  
ENDBRANCH  22  29
ENDBRANCH  21  22
ENDBRANCH  20  21
ENDBRANCH  19  20
ENDBRANCH   4  19
TORSDOF 6
ENDMDL
MODEL       88
REMARK 921   NORMALIZED FREE ENERGY PREDICTED BY IDOCK:   -4.88 KCAL/MOL
REMARK 922        TOTAL FREE ENERGY PREDICTED BY IDOCK:   -4.98 KCAL/MOL
REMARK 923 INTER-LIGAND FREE ENERGY PREDICTED BY IDOCK:   -7.46 KCAL/MOL
REMARK 924 INTRA-LIGAND FREE ENERGY PREDICTED BY IDOCK:    2.48 KCAL/MOL
REMARK 927      BINDING AFFINITY PREDICTED BY RF-SCORE:    0.00 PKD
ROOT
HETATM    1  C   UNL     1     -12.109  11.291  69.421  1.00  0.00    -0.315 C  
HETATM    2  N   UNL     1     -11.103  10.988  68.397  1.00  0.00    -0.228 N  
HETATM    3  C   UNL     2      -9.666  12.730  68.415  1.00  0.00    -0.186 C  
HETATM    4  N   UNL     2      -9.293  11.480  67.466  1.00  0.00    -0.164 NA 
HETATM    5  C   UNL     1     -11.221  11.508  66.687  1.00  0.00    -0.271 A  
HETATM    6  O   UNL     1      -9.392   9.963  70.225  1.00  0.00    -0.225 OA 
HETATM    7  C   UNL     1     -10.073  11.096  65.567  1.00  0.00    -0.257 A  
HETATM    8  C   UNL     2      -7.797  12.019  67.154  1.00  0.00    -0.168 C  
HETATM    9  C   UNL     1      -7.292   8.847  68.158  1.00  0.00    -0.084 C  
HETATM   10  N   UNL     1     -10.459  11.596  64.363  1.00  0.00    -0.298 NA 
HETATM   11  C   UNL     1      -8.539  10.131  66.023  1.00  0.00    -0.141 C  
HETATM   12  H   UNL     1     -10.000  11.483  63.460  1.00  0.00     0.000 HD 
HETATM   13  O   UNL     1      -7.731   9.744  65.176  1.00  0.00    -0.113 OA 
HETATM   14  N   UNL     1      -8.368   9.710  67.754  1.00  0.00    -0.120 N  
HETATM   15  C   UNL     1     -11.566  12.262  64.635  1.00  0.00    -0.344 A  
HETATM   16  C   UNL     1      -9.483  10.209  69.034  1.00  0.00    -0.190 C  
HETATM   17 CL   UNL     1     -12.421  13.206  63.500  1.00  0.00    -0.439 Cl 
HETATM   18  N   UNL     1     -12.074  12.240  65.921  1.00  0.00    -0.620 NA 
ENDROOT
BRANCH   4  19
HETATM   19  C   UNL     2     -10.257   9.660  67.158  1.00  0.00    -0.243 C  
BRANCH  19  20
HETATM   20  C   UNL     2      -9.885   8.220  66.232  1.00  0.00    -0.157 C  
BRANCH  20  21
HETATM   21  O   UNL     2     -10.559   7.071  66.766  1.00  0.00    -0.281 OA 
BRANCH  21  22
HETATM   22  C   UNL     2      -9.617   6.139  67.383  1.00  0.00    -0.115 C  
BRANCH  22  23
HETATM   23  C   UNL     2     -10.088   5.739  68.789  1.00  0.00    -0.231 A  
HETATM   24  C   UNL     2      -9.397   4.721  69.479  1.00  0.00    -0.198 A  
HETATM   25  C   UNL     2     -11.016   6.502  69.517  1.00  0.00    -0.398 A  
HETATM   26  C   UNL     2      -9.563   4.543  70.858  1.00  0.00    -0.250 A  
HETATM   27  C   UNL     2     -10.446   5.353  71.566  1.00  0.00    -0.289 A  
HETATM   28  C   UNL     2     -11.193   6.311  70.891  1.00  0.00    -0.386 A  
ENDBRANCH  22  23
BRANCH  22  29
HETATM   29  C   UNL     2      -9.383   5.031  66.368  1.00  0.00    -0.145 A  
HETATM   30  C   UNL     2      -8.910   3.211  64.267  1.00  0.00    -0.099 A  
HETATM   31  C   UNL     2     -10.213   3.528  64.633  1.00  0.00    -0.092 A  
HETATM   32  C   UNL     2      -8.074   4.665  66.011  1.00  0.00    -0.103 A  
HETATM   33  C   UNL     2     -10.444   4.444  65.660  1.00  0.00    -0.224 A  
HETATM   34  C   UNL     2      -7.840   3.775  64.957  1.00  0.00    -0.086 A  
ENDBRANCH  22  29
ENDBRANCH  21  22
ENDBRANCH  20  21
ENDBRANCH  19  20
ENDBRANCH   4  19
TORSDOF 6
ENDMDL
MODEL       89
REMARK 921   NORMALIZED FREE ENERGY PREDICTED BY IDOCK:   -4.87 KCAL/MOL
REMARK 922        TOTAL FREE ENERGY PREDICTED BY IDOCK:   -4.97 KCAL/MOL
REMARK 923 INTER-LIGAND FREE ENERGY PREDICTED BY IDOCK:   -7.29 KCAL/MOL
REMARK 924 INTRA-LIGAND FREE ENERGY PREDICTED BY IDOCK:    2.32 KCAL/MOL
REMARK 927      BINDING AFFINITY PREDICTED BY RF-SCORE:    0.00 PKD
ROOT
HETATM    1  C   UNL     1     -10.658   8.185  69.872  1.00  0.00    -0.239 C  
HETATM    2  N   UNL     1      -9.762   9.110  69.169  1.00  0.00    -0.160 N  
HETATM    3  C   UNL     2      -8.296   7.809  68.048  1.00  0.00    -0.124 C  
HETATM    4  N   UNL     2      -8.213   9.399  67.789  1.00  0.00    -0.114 NA 
HETATM    5  C   UNL     1      -8.220   9.724  69.843  1.00  0.00    -0.183 A  
HETATM    6  O   UNL     1     -11.192   8.928  66.879  1.00  0.00     0.336 OA 
HETATM    7  C   UNL     1      -7.273  10.802  69.018  1.00  0.00    -0.096 A  
HETATM    8  C   UNL     2      -7.195   9.256  66.537  1.00  0.00    -0.086 C  
HETATM    9  C   UNL     1      -9.659  11.199  65.323  1.00  0.00    -0.230 C  
HETATM   10  N   UNL     1      -6.202  11.108  69.799  1.00  0.00    -0.103 NA 
HETATM   11  C   UNL     1      -7.703  11.391  67.297  1.00  0.00    -0.145 C  
HETATM   12  H   UNL     1      -5.455  11.773  69.606  1.00  0.00     0.000 HD 
HETATM   13  O   UNL     1      -7.049  12.262  66.719  1.00  0.00    -0.015 OA 
HETATM   14  N   UNL     1      -9.185  10.689  66.580  1.00  0.00    -0.162 N  
HETATM   15  C   UNL     1      -6.357  10.344  70.864  1.00  0.00     0.084 A  
HETATM   16  C   UNL     1     -10.190   9.448  67.341  1.00  0.00    -0.239 C  
HETATM   17 CL   UNL     1      -5.222  10.225  72.133  1.00  0.00    -0.002 Cl 
HETATM   18  N   UNL     1      -7.485   9.551  70.974  1.00  0.00    -0.327 NA 
ENDROOT
BRANCH   4  19
HETATM   19  C   UNL     2      -9.362  10.968  68.534  1.00  0.00    -0.188 C  
BRANCH  19  20
HETATM   20  C   UNL     2     -10.919  11.074  69.330  1.00  0.00    -0.252 C  
BRANCH  20  21
HETATM   21  O   UNL     2     -11.778  12.012  68.667  1.00  0.00    -0.288 OA 
BRANCH  21  22
HETATM   22  C   UNL     2     -11.176  13.344  68.616  1.00  0.00    -0.269 C  
BRANCH  22  23
HETATM   23  C   UNL     2     -11.439  14.011  67.258  1.00  0.00    -0.372 A  
HETATM   24  C   UNL     2     -10.416  14.778  66.662  1.00  0.00    -0.286 A  
HETATM   25  C   UNL     2     -12.556  13.694  66.469  1.00  0.00    -0.225 A  
HETATM   26  C   UNL     2     -10.472  15.128  65.307  1.00  0.00    -0.434 A  
HETATM   27  C   UNL     2     -11.565  14.750  64.533  1.00  0.00    -0.366 A  
HETATM   28  C   UNL     2     -12.619  14.060  65.121  1.00  0.00    -0.453 A  
ENDBRANCH  22  23
BRANCH  22  29
HETATM   29  C   UNL     2     -11.639  14.072  69.869  1.00  0.00    -0.320 A  
HETATM   30  C   UNL     2     -12.713  15.572  72.002  1.00  0.00    -0.490 A  
HETATM   31  C   UNL     2     -11.564  16.009  71.352  1.00  0.00    -0.520 A  
HETATM   32  C   UNL     2     -12.776  13.625  70.566  1.00  0.00    -0.260 A  
HETATM   33  C   UNL     2     -11.046  15.275  70.284  1.00  0.00    -0.316 A  
HETATM   34  C   UNL     2     -13.317  14.380  71.613  1.00  0.00    -0.442 A  
ENDBRANCH  22  29
ENDBRANCH  21  22
ENDBRANCH  20  21
ENDBRANCH  19  20
ENDBRANCH   4  19
TORSDOF 6
ENDMDL
MODEL       90
REMARK 921   NORMALIZED FREE ENERGY PREDICTED BY IDOCK:   -4.85 KCAL/MOL
REMARK 922        TOTAL FREE ENERGY PREDICTED BY IDOCK:   -4.94 KCAL/MOL
REMARK 923 INTER-LIGAND FREE ENERGY PREDICTED BY IDOCK:   -6.89 KCAL/MOL
REMARK 924 INTRA-LIGAND FREE ENERGY PREDICTED BY IDOCK:    1.95 KCAL/MOL
REMARK 927      BINDING AFFINITY PREDICTED BY RF-SCORE:    0.00 PKD
ROOT
HETATM    1  C   UNL     1      -8.347  16.190  69.267  1.00  0.00    -0.178 C  
HETATM    2  N   UNL     1      -9.285  15.181  68.764  1.00  0.00    -0.192 N  
HETATM    3  C   UNL     2     -10.973  16.336  67.808  1.00  0.00    -0.281 C  
HETATM    4  N   UNL     2     -11.005  14.731  67.657  1.00  0.00    -0.282 NA 
HETATM    5  C   UNL     1     -10.671  14.542  69.701  1.00  0.00    -0.103 A  
HETATM    6  O   UNL     1      -8.228  15.279  66.275  1.00  0.00    -0.019 OA 
HETATM    7  C   UNL     1     -11.671  13.369  69.094  1.00  0.00    -0.326 A  
HETATM    8  C   UNL     2     -12.206  14.745  66.570  1.00  0.00    -0.006 C  
HETATM    9  C   UNL     1      -9.848  12.843  65.106  1.00  0.00    -0.068 C  
HETATM   10  N   UNL     1     -12.593  13.066  70.047  1.00  0.00    -0.006 NA 
HETATM   11  C   UNL     1     -11.472  12.690  67.365  1.00  0.00    -0.337 C  
HETATM   12  H   UNL     1     -13.323  12.356  70.010  1.00  0.00     0.000 HD 
HETATM   13  O   UNL     1     -12.155  11.753  66.945  1.00  0.00    -0.566 OA 
HETATM   14  N   UNL     1     -10.156  13.411  66.390  1.00  0.00    -0.285 N  
HETATM   15  C   UNL     1     -12.323  13.904  71.030  1.00  0.00    -0.376 A  
HETATM   16  C   UNL     1      -9.119  14.744  66.915  1.00  0.00    -0.248 C  
HETATM   17 CL   UNL     1     -13.259  14.053  72.449  1.00  0.00    -0.542 Cl 
HETATM   18  N   UNL     1     -11.237  14.754  70.920  1.00  0.00    -0.159 NA 
ENDROOT
BRANCH   4  19
HETATM   19  C   UNL     2      -9.672  13.269  68.306  1.00  0.00    -0.225 C  
BRANCH  19  20
HETATM   20  C   UNL     2      -7.929  13.185  68.462  1.00  0.00    -0.094 C  
BRANCH  20  21
HETATM   21  O   UNL     2      -7.501  11.857  68.796  1.00  0.00    -0.117 OA 
BRANCH  21  22
HETATM   22  C   UNL     2      -8.474  10.856  68.357  1.00  0.00    -0.141 C  
BRANCH  22  23
HETATM   23  C   UNL     2      -8.017  10.187  67.053  1.00  0.00    -0.110 A  
HETATM   24  C   UNL     2      -8.844   9.209  66.459  1.00  0.00    -0.156 A  
HETATM   25  C   UNL     2      -6.940  10.673  66.295  1.00  0.00    -0.133 A  
HETATM   26  C   UNL     2      -8.650   8.811  65.131  1.00  0.00    -0.209 A  
HETATM   27  C   UNL     2      -7.609   9.353  64.384  1.00  0.00    -0.114 A  
HETATM   28  C   UNL     2      -6.737  10.260  64.975  1.00  0.00    -0.108 A  
ENDBRANCH  22  23
BRANCH  22  29
HETATM   29  C   UNL     2      -8.743   9.965  69.560  1.00  0.00    -0.200 A  
HETATM   30  C   UNL     2      -9.264   8.584  71.963  1.00  0.00    -0.326 A  
HETATM   31  C   UNL     2      -7.955   8.757  71.530  1.00  0.00    -0.160 A  
HETATM   32  C   UNL     2     -10.062   9.743  69.994  1.00  0.00    -0.301 A  
HETATM   33  C   UNL     2      -7.699   9.458  70.350  1.00  0.00    -0.163 A  
HETATM   34  C   UNL     2     -10.318   9.073  71.195  1.00  0.00    -0.362 A  
ENDBRANCH  22  29
ENDBRANCH  21  22
ENDBRANCH  20  21
ENDBRANCH  19  20
ENDBRANCH   4  19
TORSDOF 6
ENDMDL
MODEL       91
REMARK 921   NORMALIZED FREE ENERGY PREDICTED BY IDOCK:   -4.85 KCAL/MOL
REMARK 922        TOTAL FREE ENERGY PREDICTED BY IDOCK:   -4.93 KCAL/MOL
REMARK 923 INTER-LIGAND FREE ENERGY PREDICTED BY IDOCK:   -7.26 KCAL/MOL
REMARK 924 INTRA-LIGAND FREE ENERGY PREDICTED BY IDOCK:    2.33 KCAL/MOL
REMARK 927      BINDING AFFINITY PREDICTED BY RF-SCORE:    0.00 PKD
ROOT
HETATM    1  C   UNL     1     -10.521  10.931  65.622  1.00  0.00    -0.208 C  
HETATM    2  N   UNL     1      -9.693  10.519  66.761  1.00  0.00    -0.174 N  
HETATM    3  C   UNL     2      -9.724   8.262  66.758  1.00  0.00    -0.239 C  
HETATM    4  N   UNL     2      -8.756   8.980  67.829  1.00  0.00    -0.125 NA 
HETATM    5  C   UNL     1     -10.328  10.213  68.407  1.00  0.00    -0.183 A  
HETATM    6  O   UNL     1      -7.513  10.179  65.194  1.00  0.00    -0.134 OA 
HETATM    7  C   UNL     1      -9.335   9.793  69.664  1.00  0.00    -0.219 A  
HETATM    8  C   UNL     2      -8.012   7.604  68.248  1.00  0.00    -0.123 C  
HETATM    9  C   UNL     1      -5.466   9.686  67.538  1.00  0.00    -0.036 C  
HETATM   10  N   UNL     1     -10.099   9.671  70.783  1.00  0.00    -0.300 NA 
HETATM   11  C   UNL     1      -7.499   9.533  69.436  1.00  0.00    -0.088 C  
HETATM   12  H   UNL     1      -9.791   9.467  71.733  1.00  0.00     0.000 HD 
HETATM   13  O   UNL     1      -6.745   9.311  70.387  1.00  0.00    -0.055 OA 
HETATM   14  N   UNL     1      -6.884   9.728  67.768  1.00  0.00    -0.080 N  
HETATM   15  C   UNL     1     -11.329   9.878  70.353  1.00  0.00    -0.307 A  
HETATM   16  C   UNL     1      -7.888  10.060  66.350  1.00  0.00    -0.113 C  
HETATM   17 CL   UNL     1     -12.724   9.721  71.323  1.00  0.00    -0.433 Cl 
HETATM   18  N   UNL     1     -11.539  10.214  69.027  1.00  0.00    -0.084 NA 
ENDROOT
BRANCH   4  19
HETATM   19  C   UNL     2      -8.353  10.995  68.174  1.00  0.00    -0.130 C  
BRANCH  19  20
HETATM   20  C   UNL     2      -9.124  12.494  67.701  1.00  0.00    -0.187 C  
BRANCH  20  21
HETATM   21  O   UNL     2      -9.288  13.371  68.825  1.00  0.00    -0.065 OA 
BRANCH  21  22
HETATM   22  C   UNL     2     -10.083  14.547  68.474  1.00  0.00    -0.242 C  
BRANCH  22  23
HETATM   23  C   UNL     2     -11.181  14.795  69.519  1.00  0.00    -0.305 A  
HETATM   24  C   UNL     2     -12.055  13.740  69.858  1.00  0.00    -0.412 A  
HETATM   25  C   UNL     2     -11.202  15.941  70.329  1.00  0.00    -0.388 A  
HETATM   26  C   UNL     2     -12.843  13.800  71.013  1.00  0.00    -0.376 A  
HETATM   27  C   UNL     2     -12.801  14.925  71.831  1.00  0.00    -0.402 A  
HETATM   28  C   UNL     2     -12.004  16.006  71.473  1.00  0.00    -0.539 A  
ENDBRANCH  22  23
BRANCH  22  29
HETATM   29  C   UNL     2      -9.093  15.668  68.200  1.00  0.00    -0.181 A  
HETATM   30  C   UNL     2      -7.410  17.914  67.924  1.00  0.00    -0.222 A  
HETATM   31  C   UNL     2      -8.498  17.751  67.074  1.00  0.00    -0.245 A  
HETATM   32  C   UNL     2      -7.964  15.830  69.022  1.00  0.00    -0.214 A  
HETATM   33  C   UNL     2      -9.340  16.648  67.225  1.00  0.00    -0.234 A  
HETATM   34  C   UNL     2      -7.140  16.954  68.895  1.00  0.00    -0.220 A  
ENDBRANCH  22  29
ENDBRANCH  21  22
ENDBRANCH  20  21
ENDBRANCH  19  20
ENDBRANCH   4  19
TORSDOF 6
ENDMDL
MODEL       92
REMARK 921   NORMALIZED FREE ENERGY PREDICTED BY IDOCK:   -4.82 KCAL/MOL
REMARK 922        TOTAL FREE ENERGY PREDICTED BY IDOCK:   -4.90 KCAL/MOL
REMARK 923 INTER-LIGAND FREE ENERGY PREDICTED BY IDOCK:   -7.58 KCAL/MOL
REMARK 924 INTRA-LIGAND FREE ENERGY PREDICTED BY IDOCK:    2.68 KCAL/MOL
REMARK 927      BINDING AFFINITY PREDICTED BY RF-SCORE:    0.00 PKD
ROOT
HETATM    1  C   UNL     1     -10.313  16.041  69.914  1.00  0.00    -0.249 C  
HETATM    2  N   UNL     1      -9.301  16.403  68.915  1.00  0.00    -0.241 N  
HETATM    3  C   UNL     2      -8.199  18.177  69.774  1.00  0.00     1.203 C  
HETATM    4  N   UNL     2      -7.637  17.562  68.392  1.00  0.00    -0.244 NA 
HETATM    5  C   UNL     1      -9.562  17.596  67.606  1.00  0.00    -0.268 A  
HETATM    6  O   UNL     1      -7.378  14.989  70.191  1.00  0.00    -0.080 OA 
HETATM    7  C   UNL     1      -8.394  17.930  66.480  1.00  0.00    -0.262 A  
HETATM    8  C   UNL     2      -6.273  18.435  68.429  1.00  0.00    -0.199 C  
HETATM    9  C   UNL     1      -5.177  15.289  67.957  1.00  0.00    -0.123 C  
HETATM   10  N   UNL     1      -8.901  18.836  65.602  1.00  0.00    -0.099 NA 
HETATM   11  C   UNL     1      -6.699  17.146  66.544  1.00  0.00    -0.255 C  
HETATM   12  H   UNL     1      -8.457  19.216  64.767  1.00  0.00     0.000 HD 
HETATM   13  O   UNL     1      -5.861  17.322  65.656  1.00  0.00    -0.066 OA 
HETATM   14  N   UNL     1      -6.402  16.040  67.919  1.00  0.00    -0.126 N  
HETATM   15  C   UNL     1     -10.100  19.108  66.081  1.00  0.00    -0.426 A  
HETATM   16  C   UNL     1      -7.548  15.717  69.227  1.00  0.00    -0.224 C  
HETATM   17 CL   UNL     1     -11.145  20.293  65.436  1.00  0.00     0.031 Cl 
HETATM   18  N   UNL     1     -10.556  18.431  67.198  1.00  0.00    -0.402 NA 
ENDROOT
BRANCH   4  19
HETATM   19  C   UNL     2      -8.269  15.930  67.263  1.00  0.00    -0.185 C  
BRANCH  19  20
HETATM   20  C   UNL     2      -9.829  15.212  66.919  1.00  0.00    -0.237 C  
BRANCH  20  21
HETATM   21  O   UNL     2      -9.838  13.813  67.236  1.00  0.00    -0.233 OA 
BRANCH  21  22
HETATM   22  C   UNL     2     -11.178  13.244  67.105  1.00  0.00    -0.299 C  
BRANCH  22  23
HETATM   23  C   UNL     2     -11.310  12.457  65.793  1.00  0.00    -0.393 A  
HETATM   24  C   UNL     2     -12.454  12.652  64.989  1.00  0.00    -0.556 A  
HETATM   25  C   UNL     2     -10.240  11.739  65.235  1.00  0.00    -0.307 A  
HETATM   26  C   UNL     2     -12.479  12.226  63.655  1.00  0.00    -0.647 A  
HETATM   27  C   UNL     2     -11.380  11.569  63.111  1.00  0.00    -0.068 A  
HETATM   28  C   UNL     2     -10.274  11.299  63.909  1.00  0.00    -0.420 A  
ENDBRANCH  22  23
BRANCH  22  29
HETATM   29  C   UNL     2     -11.463  12.511  68.407  1.00  0.00    -0.355 A  
HETATM   30  C   UNL     2     -12.285  11.092  70.701  1.00  0.00    -0.492 A  
HETATM   31  C   UNL     2     -12.370  12.480  70.673  1.00  0.00    -0.369 A  
HETATM   32  C   UNL     2     -11.346  11.112  68.471  1.00  0.00    -0.348 A  
HETATM   33  C   UNL     2     -11.981  13.178  69.529  1.00  0.00    -0.354 A  
HETATM   34  C   UNL     2     -11.770  10.408  69.603  1.00  0.00    -0.283 A  
ENDBRANCH  22  29
ENDBRANCH  21  22
ENDBRANCH  20  21
ENDBRANCH  19  20
ENDBRANCH   4  19
TORSDOF 6
ENDMDL
MODEL       93
REMARK 921   NORMALIZED FREE ENERGY PREDICTED BY IDOCK:   -4.80 KCAL/MOL
REMARK 922        TOTAL FREE ENERGY PREDICTED BY IDOCK:   -4.87 KCAL/MOL
REMARK 923 INTER-LIGAND FREE ENERGY PREDICTED BY IDOCK:   -7.33 KCAL/MOL
REMARK 924 INTRA-LIGAND FREE ENERGY PREDICTED BY IDOCK:    2.46 KCAL/MOL
REMARK 927      BINDING AFFINITY PREDICTED BY RF-SCORE:    0.00 PKD
ROOT
HETATM    1  C   UNL     1     -11.779  11.827  68.977  1.00  0.00    -0.328 C  
HETATM    2  N   UNL     1     -10.685  11.537  68.044  1.00  0.00    -0.192 N  
HETATM    3  C   UNL     2     -11.012   9.411  67.358  1.00  0.00     0.009 C  
HETATM    4  N   UNL     2      -9.819  10.235  66.651  1.00  0.00    -0.196 NA 
HETATM    5  C   UNL     1      -9.120  10.810  68.524  1.00  0.00    -0.170 A  
HETATM    6  O   UNL     1     -12.216  12.133  65.893  1.00  0.00    -0.604 OA 
HETATM    7  C   UNL     1      -7.906  10.548  67.429  1.00  0.00    -0.106 A  
HETATM    8  C   UNL     2      -9.578   9.118  65.502  1.00  0.00    -0.169 C  
HETATM    9  C   UNL     1      -9.903  11.978  63.759  1.00  0.00    -0.269 C  
HETATM   10  N   UNL     1      -6.841  10.030  68.097  1.00  0.00    -0.063 NA 
HETATM   11  C   UNL     1      -8.111  10.916  65.609  1.00  0.00    -0.060 C  
HETATM   12  H   UNL     1      -5.920   9.798  67.726  1.00  0.00     0.000 HD 
HETATM   13  O   UNL     1      -7.179  10.809  64.809  1.00  0.00     0.084 OA 
HETATM   14  N   UNL     1      -9.715  11.536  65.114  1.00  0.00    -0.239 N  
HETATM   15  C   UNL     1      -7.275   9.898  69.336  1.00  0.00    -0.083 A  
HETATM   16  C   UNL     1     -11.102  11.736  66.193  1.00  0.00    -0.307 C  
HETATM   17 CL   UNL     1      -6.381   9.169  70.594  1.00  0.00    -0.051 Cl 
HETATM   18  N   UNL     1      -8.545  10.339  69.662  1.00  0.00    -0.149 NA 
ENDROOT
BRANCH   4  19
HETATM   19  C   UNL     2      -9.178  12.201  66.902  1.00  0.00    -0.203 C  
BRANCH  19  20
HETATM   20  C   UNL     2      -9.320  13.378  68.191  1.00  0.00    -0.217 C  
BRANCH  20  21
HETATM   21  O   UNL     2      -9.995  14.561  67.741  1.00  0.00    -0.222 OA 
BRANCH  21  22
HETATM   22  C   UNL     2      -9.853  15.655  68.701  1.00  0.00    -0.210 C  
BRANCH  22  23
HETATM   23  C   UNL     2      -9.889  17.014  67.987  1.00  0.00    -0.275 A  
HETATM   24  C   UNL     2      -9.821  17.051  66.578  1.00  0.00    -0.305 A  
HETATM   25  C   UNL     2     -10.232  18.203  68.651  1.00  0.00    -0.382 A  
HETATM   26  C   UNL     2     -10.174  18.205  65.868  1.00  0.00    -0.239 A  
HETATM   27  C   UNL     2     -10.567  19.352  66.550  1.00  0.00    -0.554 A  
HETATM   28  C   UNL     2     -10.567  19.360  67.941  1.00  0.00    -0.501 A  
ENDBRANCH  22  23
BRANCH  22  29
HETATM   29  C   UNL     2     -10.875  15.398  69.798  1.00  0.00    -0.297 A  
HETATM   30  C   UNL     2     -12.802  15.244  71.850  1.00  0.00    -0.447 A  
HETATM   31  C   UNL     2     -11.448  15.188  72.161  1.00  0.00    -0.430 A  
HETATM   32  C   UNL     2     -12.249  15.411  69.500  1.00  0.00    -0.277 A  
HETATM   33  C   UNL     2     -10.496  15.284  71.145  1.00  0.00     0.372 A  
HETATM   34  C   UNL     2     -13.204  15.352  70.522  1.00  0.00    -0.254 A  
ENDBRANCH  22  29
ENDBRANCH  21  22
ENDBRANCH  20  21
ENDBRANCH  19  20
ENDBRANCH   4  19
TORSDOF 6
ENDMDL
MODEL       94
REMARK 921   NORMALIZED FREE ENERGY PREDICTED BY IDOCK:   -4.78 KCAL/MOL
REMARK 922        TOTAL FREE ENERGY PREDICTED BY IDOCK:   -4.84 KCAL/MOL
REMARK 923 INTER-LIGAND FREE ENERGY PREDICTED BY IDOCK:   -7.28 KCAL/MOL
REMARK 924 INTRA-LIGAND FREE ENERGY PREDICTED BY IDOCK:    2.44 KCAL/MOL
REMARK 927      BINDING AFFINITY PREDICTED BY RF-SCORE:    0.00 PKD
ROOT
HETATM    1  C   UNL     1     -10.294  16.153  69.777  1.00  0.00    -0.244 C  
HETATM    2  N   UNL     1      -9.267  16.517  68.794  1.00  0.00    -0.244 N  
HETATM    3  C   UNL     2      -8.161  18.273  69.684  1.00  0.00     0.864 C  
HETATM    4  N   UNL     2      -7.588  17.669  68.303  1.00  0.00    -0.247 NA 
HETATM    5  C   UNL     1      -9.503  17.727  67.495  1.00  0.00    -0.257 A  
HETATM    6  O   UNL     1      -7.371  15.075  70.077  1.00  0.00    -0.146 OA 
HETATM    7  C   UNL     1      -8.319  18.063  66.387  1.00  0.00    -0.246 A  
HETATM    8  C   UNL     2      -6.217  18.530  68.365  1.00  0.00    -0.206 C  
HETATM    9  C   UNL     1      -5.141  15.381  67.872  1.00  0.00    -0.109 C  
HETATM   10  N   UNL     1      -8.808  18.983  65.513  1.00  0.00     0.108 NA 
HETATM   11  C   UNL     1      -6.632  17.265  66.462  1.00  0.00    -0.248 C  
HETATM   12  H   UNL     1      -8.351  19.369  64.687  1.00  0.00     0.000 HD 
HETATM   13  O   UNL     1      -5.782  17.443  65.586  1.00  0.00    -0.150 OA 
HETATM   14  N   UNL     1      -6.360  16.142  67.828  1.00  0.00    -0.136 N  
HETATM   15  C   UNL     1     -10.011  19.260  65.981  1.00  0.00    -0.337 A  
HETATM   16  C   UNL     1      -7.524  15.814  69.118  1.00  0.00    -0.207 C  
HETATM   17 CL   UNL     1     -11.039  20.459  65.336  1.00  0.00     0.172 Cl 
HETATM   18  N   UNL     1     -10.485  18.574  67.084  1.00  0.00    -0.398 NA 
ENDROOT
BRANCH   4  19
HETATM   19  C   UNL     2      -8.220  16.054  67.149  1.00  0.00    -0.195 C  
BRANCH  19  20
HETATM   20  C   UNL     2      -8.456  14.347  67.461  1.00  0.00    -0.192 C  
BRANCH  20  21
HETATM   21  O   UNL     2      -9.796  13.942  67.145  1.00  0.00    -0.232 OA 
BRANCH  21  22
HETATM   22  C   UNL     2      -9.915  12.486  67.092  1.00  0.00    -0.216 C  
BRANCH  22  23
HETATM   23  C   UNL     2     -10.480  11.936  68.410  1.00  0.00    -0.231 A  
HETATM   24  C   UNL     2     -11.367  12.736  69.161  1.00  0.00    -0.337 A  
HETATM   25  C   UNL     2     -10.350  10.588  68.779  1.00  0.00    -0.208 A  
HETATM   26  C   UNL     2     -12.156  12.180  70.175  1.00  0.00    -0.368 A  
HETATM   27  C   UNL     2     -12.049  10.827  70.482  1.00  0.00    -0.459 A  
HETATM   28  C   UNL     2     -11.126  10.039  69.804  1.00  0.00    -0.319 A  
ENDBRANCH  22  23
BRANCH  22  29
HETATM   29  C   UNL     2     -10.663  12.164  65.807  1.00  0.00    -0.303 A  
HETATM   30  C   UNL     2     -11.931  11.846  63.308  1.00  0.00    -0.441 A  
HETATM   31  C   UNL     2     -12.630  12.391  64.379  1.00  0.00    -0.489 A  
HETATM   32  C   UNL     2      -9.987  11.578  64.723  1.00  0.00    -0.304 A  
HETATM   33  C   UNL     2     -11.995  12.565  65.609  1.00  0.00    -0.492 A  
HETATM   34  C   UNL     2     -10.612  11.436  63.479  1.00  0.00    -0.468 A  
ENDBRANCH  22  29
ENDBRANCH  21  22
ENDBRANCH  20  21
ENDBRANCH  19  20
ENDBRANCH   4  19
TORSDOF 6
ENDMDL
MODEL       95
REMARK 921   NORMALIZED FREE ENERGY PREDICTED BY IDOCK:   -4.76 KCAL/MOL
REMARK 922        TOTAL FREE ENERGY PREDICTED BY IDOCK:   -4.82 KCAL/MOL
REMARK 923 INTER-LIGAND FREE ENERGY PREDICTED BY IDOCK:   -7.33 KCAL/MOL
REMARK 924 INTRA-LIGAND FREE ENERGY PREDICTED BY IDOCK:    2.52 KCAL/MOL
REMARK 927      BINDING AFFINITY PREDICTED BY RF-SCORE:    0.00 PKD
ROOT
HETATM    1  C   UNL     1     -11.902   7.486  70.425  1.00  0.00    -0.036 C  
HETATM    2  N   UNL     1     -10.567   7.951  70.034  1.00  0.00    -0.239 N  
HETATM    3  C   UNL     2      -9.318   6.087  69.784  1.00  0.00    -0.149 C  
HETATM    4  N   UNL     2      -8.632   7.490  69.378  1.00  0.00    -0.133 NA 
HETATM    5  C   UNL     1      -9.246   8.302  71.192  1.00  0.00    -0.162 A  
HETATM    6  O   UNL     1     -11.086   7.577  67.405  1.00  0.00    -0.159 OA 
HETATM    7  C   UNL     1      -7.772   8.868  70.691  1.00  0.00    -0.107 A  
HETATM    8  C   UNL     2      -7.350   6.789  68.678  1.00  0.00    -0.090 C  
HETATM    9  C   UNL     1      -8.452   8.930  66.328  1.00  0.00    -0.123 C  
HETATM   10  N   UNL     1      -7.004   9.076  71.793  1.00  0.00    -0.291 NA 
HETATM   11  C   UNL     1      -7.358   9.103  68.884  1.00  0.00    -0.074 C  
HETATM   12  H   UNL     1      -6.061   9.462  71.838  1.00  0.00     0.000 HD 
HETATM   13  O   UNL     1      -6.297   9.610  68.515  1.00  0.00    -0.047 OA 
HETATM   14  N   UNL     1      -8.641   8.644  67.724  1.00  0.00    -0.136 N  
HETATM   15  C   UNL     1      -7.761   8.663  72.792  1.00  0.00     0.091 A  
HETATM   16  C   UNL     1     -10.196   7.925  68.164  1.00  0.00    -0.205 C  
HETATM   17 CL   UNL     1      -7.245   8.579  74.417  1.00  0.00    -0.220 Cl 
HETATM   18  N   UNL     1      -9.050   8.234  72.536  1.00  0.00    -0.230 NA 
ENDROOT
BRANCH   4  19
HETATM   19  C   UNL     2      -9.384   9.432  69.383  1.00  0.00    -0.169 C  
BRANCH  19  20
HETATM   20  C   UNL     2     -10.698  10.237  68.551  1.00  0.00    -0.227 C  
BRANCH  20  21
HETATM   21  O   UNL     2     -10.292  11.522  68.060  1.00  0.00    -0.180 OA 
BRANCH  21  22
HETATM   22  C   UNL     2     -11.430  12.280  67.542  1.00  0.00    -0.347 C  
BRANCH  22  23
HETATM   23  C   UNL     2     -11.604  13.597  68.312  1.00  0.00    -0.374 A  
HETATM   24  C   UNL     2     -11.318  13.625  69.694  1.00  0.00    -0.226 A  
HETATM   25  C   UNL     2     -11.798  14.828  67.665  1.00  0.00    -0.319 A  
HETATM   26  C   UNL     2     -11.142  14.839  70.370  1.00  0.00    -0.159 A  
HETATM   27  C   UNL     2     -11.282  16.044  69.689  1.00  0.00    -0.336 A  
HETATM   28  C   UNL     2     -11.639  16.039  68.346  1.00  0.00    -0.279 A  
ENDBRANCH  22  23
BRANCH  22  29
HETATM   29  C   UNL     2     -11.243  12.356  66.034  1.00  0.00    -0.374 A  
HETATM   30  C   UNL     2     -10.989  12.186  63.231  1.00  0.00    -0.398 A  
HETATM   31  C   UNL     2      -9.873  12.020  64.042  1.00  0.00    -0.237 A  
HETATM   32  C   UNL     2     -12.352  12.563  65.195  1.00  0.00    -0.496 A  
HETATM   33  C   UNL     2     -10.005  12.085  65.430  1.00  0.00    -0.279 A  
HETATM   34  C   UNL     2     -12.227  12.461  63.805  1.00  0.00    -0.626 A  
ENDBRANCH  22  29
ENDBRANCH  21  22
ENDBRANCH  20  21
ENDBRANCH  19  20
ENDBRANCH   4  19
TORSDOF 6
ENDMDL
MODEL       96
REMARK 921   NORMALIZED FREE ENERGY PREDICTED BY IDOCK:   -4.74 KCAL/MOL
REMARK 922        TOTAL FREE ENERGY PREDICTED BY IDOCK:   -4.79 KCAL/MOL
REMARK 923 INTER-LIGAND FREE ENERGY PREDICTED BY IDOCK:   -7.07 KCAL/MOL
REMARK 924 INTRA-LIGAND FREE ENERGY PREDICTED BY IDOCK:    2.29 KCAL/MOL
REMARK 927      BINDING AFFINITY PREDICTED BY RF-SCORE:    0.00 PKD
ROOT
HETATM    1  C   UNL     1     -11.595   8.434  72.570  1.00  0.00    -0.356 C  
HETATM    2  N   UNL     1     -10.609   7.907  71.619  1.00  0.00    -0.217 N  
HETATM    3  C   UNL     2     -10.004   5.886  72.422  1.00  0.00    -0.171 C  
HETATM    4  N   UNL     2      -9.415   6.310  70.982  1.00  0.00    -0.174 NA 
HETATM    5  C   UNL     1      -8.841   8.147  71.769  1.00  0.00    -0.155 A  
HETATM    6  O   UNL     1     -12.485   6.472  70.299  1.00  0.00    -0.054 OA 
HETATM    7  C   UNL     1      -7.780   7.565  70.639  1.00  0.00    -0.090 A  
HETATM    8  C   UNL     2      -8.826   4.835  70.662  1.00  0.00    -0.112 C  
HETATM    9  C   UNL     1     -10.630   5.570  67.918  1.00  0.00    -0.145 C  
HETATM   10  N   UNL     1      -6.526   7.940  71.004  1.00  0.00    -0.037 NA 
HETATM   11  C   UNL     1      -8.345   6.552  69.174  1.00  0.00    -0.119 C  
HETATM   12  H   UNL     1      -5.652   7.781  70.503  1.00  0.00     0.000 HD 
HETATM   13  O   UNL     1      -7.570   6.197  68.283  1.00  0.00    -0.094 OA 
HETATM   14  N   UNL     1     -10.101   6.217  69.087  1.00  0.00    -0.159 N  
HETATM   15  C   UNL     1      -6.701   8.556  72.158  1.00  0.00    -0.081 A  
HETATM   16  C   UNL     1     -11.286   6.699  70.309  1.00  0.00    -0.374 C  
HETATM   17 CL   UNL     1      -5.431   9.132  73.142  1.00  0.00    -0.103 Cl 
HETATM   18  N   UNL     1      -7.983   8.735  72.646  1.00  0.00    -0.384 NA 
ENDROOT
BRANCH   4  19
HETATM   19  C   UNL     2      -9.721   8.016  69.827  1.00  0.00    -0.176 C  
BRANCH  19  20
HETATM   20  C   UNL     2     -10.481   9.567  70.114  1.00  0.00    -0.255 C  
BRANCH  20  21
HETATM   21  O   UNL     2      -9.956  10.573  69.237  1.00  0.00    -0.212 OA 
BRANCH  21  22
HETATM   22  C   UNL     2     -10.542  10.476  67.901  1.00  0.00    -0.232 C  
BRANCH  22  23
HETATM   23  C   UNL     2     -11.301  11.762  67.543  1.00  0.00    -0.377 A  
HETATM   24  C   UNL     2     -11.304  12.833  68.462  1.00  0.00    -0.326 A  
HETATM   25  C   UNL     2     -11.784  12.016  66.249  1.00  0.00    -0.319 A  
HETATM   26  C   UNL     2     -11.687  14.121  68.067  1.00  0.00    -0.394 A  
HETATM   27  C   UNL     2     -12.107  14.356  66.762  1.00  0.00    -0.393 A  
HETATM   28  C   UNL     2     -12.183  13.299  65.863  1.00  0.00    -0.497 A  
ENDBRANCH  22  23
BRANCH  22  29
HETATM   29  C   UNL     2      -9.423  10.028  66.973  1.00  0.00    -0.197 A  
HETATM   30  C   UNL     2      -7.508   9.349  65.017  1.00  0.00    -0.106 A  
HETATM   31  C   UNL     2      -8.511   8.446  65.353  1.00  0.00    -0.193 A  
HETATM   32  C   UNL     2      -8.377  10.910  66.649  1.00  0.00    -0.143 A  
HETATM   33  C   UNL     2      -9.468   8.792  66.308  1.00  0.00    -0.300 A  
HETATM   34  C   UNL     2      -7.438  10.579  65.666  1.00  0.00    -0.129 A  
ENDBRANCH  22  29
ENDBRANCH  21  22
ENDBRANCH  20  21
ENDBRANCH  19  20
ENDBRANCH   4  19
TORSDOF 6
ENDMDL
MODEL       97
REMARK 921   NORMALIZED FREE ENERGY PREDICTED BY IDOCK:   -4.72 KCAL/MOL
REMARK 922        TOTAL FREE ENERGY PREDICTED BY IDOCK:   -4.76 KCAL/MOL
REMARK 923 INTER-LIGAND FREE ENERGY PREDICTED BY IDOCK:   -6.78 KCAL/MOL
REMARK 924 INTRA-LIGAND FREE ENERGY PREDICTED BY IDOCK:    2.02 KCAL/MOL
REMARK 927      BINDING AFFINITY PREDICTED BY RF-SCORE:    0.00 PKD
ROOT
HETATM    1  C   UNL     1      -9.724  15.257  69.117  1.00  0.00    -0.243 C  
HETATM    2  N   UNL     1     -10.084  14.074  68.327  1.00  0.00    -0.240 N  
HETATM    3  C   UNL     2     -12.088  14.542  67.399  1.00  0.00    -0.257 C  
HETATM    4  N   UNL     2     -11.377  13.164  66.955  1.00  0.00    -0.304 NA 
HETATM    5  C   UNL     1     -11.047  12.701  68.955  1.00  0.00    -0.238 A  
HETATM    6  O   UNL     1      -9.124  15.168  66.047  1.00  0.00    -0.289 OA 
HETATM    7  C   UNL     1     -11.383  11.371  68.027  1.00  0.00    -0.303 A  
HETATM    8  C   UNL     2     -12.423  12.882  65.750  1.00  0.00    -0.262 C  
HETATM    9  C   UNL     1      -9.418  12.587  64.264  1.00  0.00     0.382 C  
HETATM   10  N   UNL     1     -12.089  10.493  68.788  1.00  0.00    -0.772 NA 
HETATM   11  C   UNL     1     -10.850  11.245  66.241  1.00  0.00    -0.238 C  
HETATM   12  H   UNL     1     -12.412   9.560  68.534  1.00  0.00     0.000 HD 
HETATM   13  O   UNL     1     -11.018  10.219  65.577  1.00  0.00     0.192 OA 
HETATM   14  N   UNL     1      -9.986  12.666  65.582  1.00  0.00    -0.262 N  
HETATM   15  C   UNL     1     -12.258  11.127  69.933  1.00  0.00    -0.314 A  
HETATM   16  C   UNL     1      -9.688  14.170  66.464  1.00  0.00    -0.295 C  
HETATM   17 CL   UNL     1     -13.195  10.534  71.230  1.00  0.00    -0.440 Cl 
HETATM   18  N   UNL     1     -11.679  12.370  70.114  1.00  0.00    -0.247 NA 
ENDROOT
BRANCH   4  19
HETATM   19  C   UNL     2      -9.540  12.338  67.485  1.00  0.00    -0.184 C  
BRANCH  19  20
HETATM   20  C   UNL     2      -8.758  10.800  67.184  1.00  0.00    -0.131 C  
BRANCH  20  21
HETATM   21  O   UNL     2      -8.526  10.088  68.408  1.00  0.00    -0.109 OA 
BRANCH  21  22
HETATM   22  C   UNL     2      -8.932   8.688  68.296  1.00  0.00    -0.142 C  
BRANCH  22  23
HETATM   23  C   UNL     2      -7.769   7.822  67.790  1.00  0.00    -0.122 A  
HETATM   24  C   UNL     2      -7.736   7.447  66.430  1.00  0.00    -0.093 A  
HETATM   25  C   UNL     2      -6.615   7.591  68.556  1.00  0.00    -0.049 A  
HETATM   26  C   UNL     2      -6.564   6.951  65.847  1.00  0.00    -0.051 A  
HETATM   27  C   UNL     2      -5.416   6.786  66.617  1.00  0.00    -0.017 A  
HETATM   28  C   UNL     2      -5.451   7.078  67.975  1.00  0.00    -0.020 A  
ENDBRANCH  22  23
BRANCH  22  29
HETATM   29  C   UNL     2      -9.569   8.318  69.627  1.00  0.00    -0.167 A  
HETATM   30  C   UNL     2     -11.003   7.815  72.003  1.00  0.00    -0.305 A  
HETATM   31  C   UNL     2     -10.042   8.819  71.969  1.00  0.00    -0.397 A  
HETATM   32  C   UNL     2     -10.515   7.281  69.694  1.00  0.00    -0.239 A  
HETATM   33  C   UNL     2      -9.348   9.079  70.786  1.00  0.00    -0.305 A  
HETATM   34  C   UNL     2     -11.238   7.044  70.868  1.00  0.00    -0.318 A  
ENDBRANCH  22  29
ENDBRANCH  21  22
ENDBRANCH  20  21
ENDBRANCH  19  20
ENDBRANCH   4  19
TORSDOF 6
ENDMDL
MODEL       98
REMARK 921   NORMALIZED FREE ENERGY PREDICTED BY IDOCK:   -4.67 KCAL/MOL
REMARK 922        TOTAL FREE ENERGY PREDICTED BY IDOCK:   -4.70 KCAL/MOL
REMARK 923 INTER-LIGAND FREE ENERGY PREDICTED BY IDOCK:   -7.88 KCAL/MOL
REMARK 924 INTRA-LIGAND FREE ENERGY PREDICTED BY IDOCK:    3.18 KCAL/MOL
REMARK 927      BINDING AFFINITY PREDICTED BY RF-SCORE:    0.00 PKD
ROOT
HETATM    1  C   UNL     1      -9.063  16.293  69.079  1.00  0.00    -0.255 C  
HETATM    2  N   UNL     1      -9.760  15.089  68.614  1.00  0.00    -0.212 N  
HETATM    3  C   UNL     2     -11.622  15.823  67.569  1.00  0.00     0.031 C  
HETATM    4  N   UNL     2     -11.319  14.241  67.503  1.00  0.00    -0.310 NA 
HETATM    5  C   UNL     1     -11.011  14.223  69.559  1.00  0.00    -0.169 A  
HETATM    6  O   UNL     1      -8.676  15.283  66.143  1.00  0.00    -0.245 OA 
HETATM    7  C   UNL     1     -11.731  12.842  68.998  1.00  0.00    -0.323 A  
HETATM    8  C   UNL     2     -12.467  13.954  66.396  1.00  0.00    -0.370 C  
HETATM    9  C   UNL     1      -9.729  12.511  65.076  1.00  0.00     0.007 C  
HETATM   10  N   UNL     1     -12.597  12.401  69.949  1.00  0.00     0.124 NA 
HETATM   11  C   UNL     1     -11.348  12.136  67.311  1.00  0.00    -0.334 C  
HETATM   12  H   UNL     1     -13.165  11.554  69.937  1.00  0.00     0.000 HD 
HETATM   13  O   UNL     1     -11.813  11.059  66.930  1.00  0.00    -0.237 OA 
HETATM   14  N   UNL     1     -10.182  13.065  66.322  1.00  0.00    -0.281 N  
HETATM   15  C   UNL     1     -12.533  13.323  70.891  1.00  0.00    -0.342 A  
HETATM   16  C   UNL     1      -9.456  14.607  66.794  1.00  0.00    -0.260 C  
HETATM   17 CL   UNL     1     -13.519  13.344  72.284  1.00  0.00    -0.641 Cl 
HETATM   18  N   UNL     1     -11.642  14.373  70.755  1.00  0.00    -0.225 NA 
ENDROOT
BRANCH   4  19
HETATM   19  C   UNL     2      -9.733  13.118  68.252  1.00  0.00    -0.223 C  
BRANCH  19  20
HETATM   20  C   UNL     2      -9.402  11.403  68.380  1.00  0.00    -0.194 C  
BRANCH  20  21
HETATM   21  O   UNL     2      -9.805  10.892  69.659  1.00  0.00    -0.038 OA 
BRANCH  21  22
HETATM   22  C   UNL     2      -9.159   9.612  69.950  1.00  0.00    -0.225 C  
BRANCH  22  23
HETATM   23  C   UNL     2      -9.737   8.988  71.228  1.00  0.00    -0.371 A  
HETATM   24  C   UNL     2     -11.043   9.339  71.632  1.00  0.00    -0.438 A  
HETATM   25  C   UNL     2      -9.126   7.904  71.879  1.00  0.00    -0.192 A  
HETATM   26  C   UNL     2     -11.735   8.574  72.579  1.00  0.00    -0.390 A  
HETATM   27  C   UNL     2     -11.126   7.469  73.165  1.00  0.00    -0.378 A  
HETATM   28  C   UNL     2      -9.812   7.153  72.837  1.00  0.00    -0.221 A  
ENDBRANCH  22  23
BRANCH  22  29
HETATM   29  C   UNL     2      -9.224   8.798  68.667  1.00  0.00    -0.141 A  
HETATM   30  C   UNL     2      -9.305   7.026  66.475  1.00  0.00    -0.201 A  
HETATM   31  C   UNL     2      -8.115   7.661  66.813  1.00  0.00    -0.115 A  
HETATM   32  C   UNL     2     -10.426   8.178  68.284  1.00  0.00    -0.210 A  
HETATM   33  C   UNL     2      -8.073   8.523  67.910  1.00  0.00    -0.115 A  
HETATM   34  C   UNL     2     -10.460   7.285  67.206  1.00  0.00    -0.380 A  
ENDBRANCH  22  29
ENDBRANCH  21  22
ENDBRANCH  20  21
ENDBRANCH  19  20
ENDBRANCH   4  19
TORSDOF 6
ENDMDL
MODEL       99
REMARK 921   NORMALIZED FREE ENERGY PREDICTED BY IDOCK:   -4.67 KCAL/MOL
REMARK 922        TOTAL FREE ENERGY PREDICTED BY IDOCK:   -4.69 KCAL/MOL
REMARK 923 INTER-LIGAND FREE ENERGY PREDICTED BY IDOCK:   -7.67 KCAL/MOL
REMARK 924 INTRA-LIGAND FREE ENERGY PREDICTED BY IDOCK:    2.98 KCAL/MOL
REMARK 927      BINDING AFFINITY PREDICTED BY RF-SCORE:    0.00 PKD
ROOT
HETATM    1  C   UNL     1      -8.543   3.018  70.619  1.00  0.00    -0.067 C  
HETATM    2  N   UNL     1      -8.786   4.136  69.700  1.00  0.00    -0.075 N  
HETATM    3  C   UNL     2      -6.918   4.312  68.444  1.00  0.00    -0.051 C  
HETATM    4  N   UNL     2      -8.159   5.265  68.051  1.00  0.00    -0.098 NA 
HETATM    5  C   UNL     1      -8.337   5.835  70.043  1.00  0.00    -0.123 A  
HETATM    6  O   UNL     1      -9.584   2.475  67.718  1.00  0.00    -0.168 OA 
HETATM    7  C   UNL     1      -8.678   7.061  68.983  1.00  0.00    -0.128 A  
HETATM    8  C   UNL     2      -7.493   5.746  66.655  1.00  0.00    -0.084 C  
HETATM    9  C   UNL     1     -10.568   4.727  65.745  1.00  0.00    -0.218 C  
HETATM   10  N   UNL     1      -8.256   8.228  69.538  1.00  0.00    -0.117 NA 
HETATM   11  C   UNL     1      -9.479   6.747  67.324  1.00  0.00    -0.135 C  
HETATM   12  H   UNL     1      -8.356   9.172  69.166  1.00  0.00     0.000 HD 
HETATM   13  O   UNL     1      -9.817   7.666  66.574  1.00  0.00    -0.216 OA 
HETATM   14  N   UNL     1      -9.823   5.035  66.935  1.00  0.00    -0.169 N  
HETATM   15  C   UNL     1      -7.689   7.857  70.669  1.00  0.00    -0.090 A  
HETATM   16  C   UNL     1      -9.388   3.656  67.955  1.00  0.00    -0.183 C  
HETATM   17 CL   UNL     1      -6.867   8.916  71.725  1.00  0.00    -0.073 Cl 
HETATM   18  N   UNL     1      -7.715   6.523  71.037  1.00  0.00    -0.093 NA 
ENDROOT
BRANCH   4  19
HETATM   19  C   UNL     2     -10.070   5.426  68.862  1.00  0.00    -0.195 C  
BRANCH  19  20
HETATM   20  C   UNL     2     -10.698   5.893  70.429  1.00  0.00    -0.303 C  
BRANCH  20  21
HETATM   21  O   UNL     2     -11.911   6.649  70.297  1.00  0.00    -0.395 OA 
BRANCH  21  22
HETATM   22  C   UNL     2     -12.318   7.231  71.576  1.00  0.00    -0.362 C  
BRANCH  22  23
HETATM   23  C   UNL     2     -11.518   6.618  72.734  1.00  0.00    -0.167 A  
HETATM   24  C   UNL     2     -11.634   5.235  72.989  1.00  0.00    -0.290 A  
HETATM   25  C   UNL     2     -10.494   7.317  73.393  1.00  0.00    -0.423 A  
HETATM   26  C   UNL     2     -10.702   4.571  73.797  1.00  0.00    -0.348 A  
HETATM   27  C   UNL     2      -9.662   5.278  74.392  1.00  0.00    -0.182 A  
HETATM   28  C   UNL     2      -9.576   6.654  74.213  1.00  0.00    -0.296 A  
ENDBRANCH  22  23
BRANCH  22  29
HETATM   29  C   UNL     2     -12.268   8.741  71.395  1.00  0.00    -0.359 A  
HETATM   30  C   UNL     2     -12.409  11.502  70.840  1.00  0.00    -0.460 A  
HETATM   31  C   UNL     2     -11.452  10.714  70.211  1.00  0.00    -0.422 A  
HETATM   32  C   UNL     2     -13.202   9.562  72.050  1.00  0.00    -0.539 A  
HETATM   33  C   UNL     2     -11.397   9.344  70.474  1.00  0.00    -0.328 A  
HETATM   34  C   UNL     2     -13.282  10.929  71.761  1.00  0.00    -0.513 A  
ENDBRANCH  22  29
ENDBRANCH  21  22
ENDBRANCH  20  21
ENDBRANCH  19  20
ENDBRANCH   4  19
TORSDOF 6
ENDMDL
MODEL      100
REMARK 921   NORMALIZED FREE ENERGY PREDICTED BY IDOCK:   -4.66 KCAL/MOL
REMARK 922        TOTAL FREE ENERGY PREDICTED BY IDOCK:   -4.68 KCAL/MOL
REMARK 923 INTER-LIGAND FREE ENERGY PREDICTED BY IDOCK:   -6.89 KCAL/MOL
REMARK 924 INTRA-LIGAND FREE ENERGY PREDICTED BY IDOCK:    2.21 KCAL/MOL
REMARK 927      BINDING AFFINITY PREDICTED BY RF-SCORE:    0.00 PKD
ROOT
HETATM    1  C   UNL     1      -9.656  12.043  68.468  1.00  0.00    -0.143 C  
HETATM    2  N   UNL     1     -10.229  12.638  67.256  1.00  0.00    -0.223 N  
HETATM    3  C   UNL     2      -8.933  11.924  65.550  1.00  0.00     0.169 C  
HETATM    4  N   UNL     2     -10.249  12.774  65.166  1.00  0.00    -0.292 NA 
HETATM    5  C   UNL     1      -9.718  14.213  66.571  1.00  0.00    -0.295 A  
HETATM    6  O   UNL     1     -11.650  10.405  66.697  1.00  0.00     0.199 OA 
HETATM    7  C   UNL     1     -10.434  14.854  65.223  1.00  0.00    -0.404 A  
HETATM    8  C   UNL     2     -10.131  12.452  63.583  1.00  0.00    -0.275 C  
HETATM    9  C   UNL     1     -13.310  11.628  64.315  1.00  0.00     1.310 C  
HETATM   10  N   UNL     1      -9.864  16.063  64.977  1.00  0.00    -0.235 NA 
HETATM   11  C   UNL     1     -11.767  13.947  64.279  1.00  0.00    -0.380 C  
HETATM   12  H   UNL     1     -10.106  16.735  64.249  1.00  0.00     0.000 HD 
HETATM   13  O   UNL     1     -12.366  14.462  63.331  1.00  0.00    -0.622 OA 
HETATM   14  N   UNL     1     -12.197  12.325  64.899  1.00  0.00    -0.391 N  
HETATM   15  C   UNL     1      -8.924  16.166  65.898  1.00  0.00    -0.206 A  
HETATM   16  C   UNL     1     -11.404  11.516  66.258  1.00  0.00    -0.153 C  
HETATM   17 CL   UNL     1      -7.800  17.447  65.984  1.00  0.00    -0.282 Cl 
HETATM   18  N   UNL     1      -8.794  15.171  66.851  1.00  0.00    -0.239 NA 
ENDROOT
BRANCH   4  19
HETATM   19  C   UNL     2     -11.750  13.587  66.360  1.00  0.00    -0.369 C  
BRANCH  19  20
HETATM   20  C   UNL     2     -11.928  13.865  68.080  1.00  0.00    -0.355 C  
BRANCH  20  21
HETATM   21  O   UNL     2     -12.229  15.241  68.355  1.00  0.00    -0.136 OA 
BRANCH  21  22
HETATM   22  C   UNL     2     -11.321  15.796  69.357  1.00  0.00    -0.348 C  
BRANCH  22  23
HETATM   23  C   UNL     2     -10.839  17.193  68.941  1.00  0.00    -0.172 A  
HETATM   24  C   UNL     2      -9.658  17.709  69.517  1.00  0.00     0.368 A  
HETATM   25  C   UNL     2     -11.377  17.878  67.840  1.00  0.00     0.546 A  
HETATM   26  C   UNL     2      -9.000  18.808  68.950  1.00  0.00    -0.239 A  
HETATM   27  C   UNL     2      -9.525  19.432  67.823  1.00  0.00    -0.406 A  
HETATM   28  C   UNL     2     -10.728  18.986  67.287  1.00  0.00    -0.556 A  
ENDBRANCH  22  23
BRANCH  22  29
HETATM   29  C   UNL     2     -12.024  15.654  70.698  1.00  0.00    -0.438 A  
HETATM   30  C   UNL     2     -13.273  15.074  73.159  1.00  0.00    -0.587 A  
HETATM   31  C   UNL     2     -14.037  15.211  72.006  1.00  0.00    -0.659 A  
HETATM   32  C   UNL     2     -11.274  15.553  71.883  1.00  0.00    -0.352 A  
HETATM   33  C   UNL     2     -13.415  15.479  70.786  1.00  0.00    -0.226 A  
HETATM   34  C   UNL     2     -11.893  15.248  73.100  1.00  0.00    -0.498 A  
ENDBRANCH  22  29
ENDBRANCH  21  22
ENDBRANCH  20  21
ENDBRANCH  19  20
ENDBRANCH   4  19
TORSDOF 6
ENDMDL
MODEL      101
REMARK 921   NORMALIZED FREE ENERGY PREDICTED BY IDOCK:   -4.65 KCAL/MOL
REMARK 922        TOTAL FREE ENERGY PREDICTED BY IDOCK:   -4.67 KCAL/MOL
REMARK 923 INTER-LIGAND FREE ENERGY PREDICTED BY IDOCK:   -6.64 KCAL/MOL
REMARK 924 INTRA-LIGAND FREE ENERGY PREDICTED BY IDOCK:    1.97 KCAL/MOL
REMARK 927      BINDING AFFINITY PREDICTED BY RF-SCORE:    0.00 PKD
ROOT
HETATM    1  C   UNL     1      -6.329   9.062  71.236  1.00  0.00    -0.075 C  
HETATM    2  N   UNL     1      -7.615   8.458  70.869  1.00  0.00    -0.072 N  
HETATM    3  C   UNL     2      -7.440   6.272  71.409  1.00  0.00    -0.090 C  
HETATM    4  N   UNL     2      -8.879   6.789  70.895  1.00  0.00    -0.145 NA 
HETATM    5  C   UNL     1      -7.958   7.714  69.276  1.00  0.00    -0.126 A  
HETATM    6  O   UNL     1      -8.565   8.683  73.393  1.00  0.00    -0.361 OA 
HETATM    7  C   UNL     1      -9.445   7.086  68.906  1.00  0.00    -0.137 A  
HETATM    8  C   UNL     2      -9.641   5.417  71.299  1.00  0.00    -0.157 C  
HETATM    9  C   UNL     1     -11.520   7.810  72.737  1.00  0.00    -0.359 C  
HETATM   10  N   UNL     1      -9.406   6.637  67.624  1.00  0.00    -0.119 NA 
HETATM   11  C   UNL     1     -10.841   7.039  70.147  1.00  0.00    -0.256 C  
HETATM   12  H   UNL     1     -10.166   6.236  67.076  1.00  0.00     0.000 HD 
HETATM   13  O   UNL     1     -11.974   6.657  69.846  1.00  0.00    -0.301 OA 
HETATM   14  N   UNL     1     -10.461   7.679  71.774  1.00  0.00    -0.203 N  
HETATM   15  C   UNL     1      -8.156   6.840  67.252  1.00  0.00    -0.118 A  
HETATM   16  C   UNL     1      -8.871   8.260  72.290  1.00  0.00    -0.209 C  
HETATM   17 CL   UNL     1      -7.506   6.341  65.756  1.00  0.00    -0.080 Cl 
HETATM   18  N   UNL     1      -7.281   7.466  68.122  1.00  0.00    -0.088 NA 
ENDROOT
BRANCH   4  19
HETATM   19  C   UNL     2      -9.534   8.687  70.341  1.00  0.00    -0.170 C  
BRANCH  19  20
HETATM   20  C   UNL     2      -8.828  10.007  69.433  1.00  0.00    -0.190 C  
BRANCH  20  21
HETATM   21  O   UNL     2      -9.767  10.554  68.497  1.00  0.00    -0.153 OA 
BRANCH  21  22
HETATM   22  C   UNL     2      -9.102  11.389  67.498  1.00  0.00    -0.157 C  
BRANCH  22  23
HETATM   23  C   UNL     2      -8.462  10.524  66.403  1.00  0.00    -0.143 A  
HETATM   24  C   UNL     2      -9.296   9.873  65.469  1.00  0.00    -0.280 A  
HETATM   25  C   UNL     2      -7.083  10.546  66.136  1.00  0.00    -0.135 A  
HETATM   26  C   UNL     2      -8.777   9.353  64.277  1.00  0.00    -0.224 A  
HETATM   27  C   UNL     2      -7.414   9.440  64.012  1.00  0.00    -0.113 A  
HETATM   28  C   UNL     2      -6.564  10.009  64.954  1.00  0.00    -0.126 A  
ENDBRANCH  22  23
BRANCH  22  29
HETATM   29  C   UNL     2     -10.116  12.441  67.074  1.00  0.00    -0.223 A  
HETATM   30  C   UNL     2     -11.903  14.330  65.983  1.00  0.00    -0.399 A  
HETATM   31  C   UNL     2     -10.665  14.741  66.467  1.00  0.00    -0.319 A  
HETATM   32  C   UNL     2     -11.387  12.053  66.618  1.00  0.00    -0.399 A  
HETATM   33  C   UNL     2      -9.775  13.800  66.989  1.00  0.00    -0.251 A  
HETATM   34  C   UNL     2     -12.266  12.989  66.061  1.00  0.00    -0.463 A  
ENDBRANCH  22  29
ENDBRANCH  21  22
ENDBRANCH  20  21
ENDBRANCH  19  20
ENDBRANCH   4  19
TORSDOF 6
ENDMDL
MODEL      102
REMARK 921   NORMALIZED FREE ENERGY PREDICTED BY IDOCK:   -4.65 KCAL/MOL
REMARK 922        TOTAL FREE ENERGY PREDICTED BY IDOCK:   -4.66 KCAL/MOL
REMARK 923 INTER-LIGAND FREE ENERGY PREDICTED BY IDOCK:   -7.27 KCAL/MOL
REMARK 924 INTRA-LIGAND FREE ENERGY PREDICTED BY IDOCK:    2.61 KCAL/MOL
REMARK 927      BINDING AFFINITY PREDICTED BY RF-SCORE:    0.00 PKD
ROOT
HETATM    1  C   UNL     1      -7.343   8.944  66.117  1.00  0.00    -0.090 C  
HETATM    2  N   UNL     1      -8.459   9.639  66.768  1.00  0.00    -0.126 N  
HETATM    3  C   UNL     2      -7.605  11.584  67.534  1.00  0.00    -0.121 C  
HETATM    4  N   UNL     2      -9.197  11.371  67.685  1.00  0.00    -0.156 NA 
HETATM    5  C   UNL     1      -8.858   9.492  68.508  1.00  0.00    -0.124 A  
HETATM    6  O   UNL     1      -8.981  11.104  64.554  1.00  0.00    -0.118 OA 
HETATM    7  C   UNL     1     -10.159  10.268  69.176  1.00  0.00    -0.218 A  
HETATM    8  C   UNL     2      -9.475  12.907  68.118  1.00  0.00    -0.218 C  
HETATM    9  C   UNL     1     -11.655  12.396  65.607  1.00  0.00    -0.392 C  
HETATM   10  N   UNL     1     -10.223   9.930  70.491  1.00  0.00    -0.370 NA 
HETATM   11  C   UNL     1     -11.251  11.413  68.182  1.00  0.00    -0.278 C  
HETATM   12  H   UNL     1     -10.929  10.200  71.175  1.00  0.00     0.000 HD 
HETATM   13  O   UNL     1     -12.273  11.918  68.653  1.00  0.00    -0.358 OA 
HETATM   14  N   UNL     1     -10.784  11.647  66.470  1.00  0.00    -0.260 N  
HETATM   15  C   UNL     1      -9.159   9.171  70.677  1.00  0.00    -0.257 A  
HETATM   16  C   UNL     1      -9.347  10.952  65.708  1.00  0.00    -0.203 C  
HETATM   17 CL   UNL     1      -8.668   8.562  72.193  1.00  0.00    -0.272 Cl 
HETATM   18  N   UNL     1      -8.351   8.857  69.599  1.00  0.00    -0.119 NA 
ENDROOT
BRANCH   4  19
HETATM   19  C   UNL     2     -10.429   9.800  67.094  1.00  0.00    -0.250 C  
BRANCH  19  20
HETATM   20  C   UNL     2     -10.177   8.091  66.801  1.00  0.00    -0.297 C  
BRANCH  20  21
HETATM   21  O   UNL     2     -11.191   7.301  67.437  1.00  0.00    -0.145 OA 
BRANCH  21  22
HETATM   22  C   UNL     2     -10.703   5.959  67.753  1.00  0.00    -0.265 C  
BRANCH  22  23
HETATM   23  C   UNL     2      -9.309   5.730  67.150  1.00  0.00    -0.116 A  
HETATM   24  C   UNL     2      -8.178   5.813  67.989  1.00  0.00    -0.104 A  
HETATM   25  C   UNL     2      -9.124   5.203  65.862  1.00  0.00    -0.154 A  
HETATM   26  C   UNL     2      -6.939   5.302  67.583  1.00  0.00    -0.065 A  
HETATM   27  C   UNL     2      -6.798   4.731  66.322  1.00  0.00    -0.062 A  
HETATM   28  C   UNL     2      -7.882   4.709  65.452  1.00  0.00    -0.090 A  
ENDBRANCH  22  23
BRANCH  22  29
HETATM   29  C   UNL     2     -10.867   5.786  69.255  1.00  0.00    -0.374 A  
HETATM   30  C   UNL     2     -10.967   5.714  72.072  1.00  0.00    -0.302 A  
HETATM   31  C   UNL     2     -10.102   4.871  71.385  1.00  0.00    -0.268 A  
HETATM   32  C   UNL     2     -11.764   6.601  69.967  1.00  0.00    -0.378 A  
HETATM   33  C   UNL     2     -10.041   4.922  69.991  1.00  0.00    -0.337 A  
HETATM   34  C   UNL     2     -11.801   6.577  71.365  1.00  0.00    -0.384 A  
ENDBRANCH  22  29
ENDBRANCH  21  22
ENDBRANCH  20  21
ENDBRANCH  19  20
ENDBRANCH   4  19
TORSDOF 6
ENDMDL
MODEL      103
REMARK 921   NORMALIZED FREE ENERGY PREDICTED BY IDOCK:   -4.61 KCAL/MOL
REMARK 922        TOTAL FREE ENERGY PREDICTED BY IDOCK:   -4.61 KCAL/MOL
REMARK 923 INTER-LIGAND FREE ENERGY PREDICTED BY IDOCK:   -7.17 KCAL/MOL
REMARK 924 INTRA-LIGAND FREE ENERGY PREDICTED BY IDOCK:    2.56 KCAL/MOL
REMARK 927      BINDING AFFINITY PREDICTED BY RF-SCORE:    0.00 PKD
ROOT
HETATM    1  C   UNL     1     -11.453  10.528  67.853  1.00  0.00    -0.109 C  
HETATM    2  N   UNL     1     -10.184   9.793  67.872  1.00  0.00    -0.182 N  
HETATM    3  C   UNL     2      -9.261  10.110  65.836  1.00  0.00    -0.162 C  
HETATM    4  N   UNL     2      -8.375   9.321  66.929  1.00  0.00    -0.122 NA 
HETATM    5  C   UNL     1     -10.000   8.091  67.344  1.00  0.00    -0.207 A  
HETATM    6  O   UNL     1      -8.779  12.016  68.509  1.00  0.00    -0.163 OA 
HETATM    7  C   UNL     1      -8.548   7.301  67.431  1.00  0.00    -0.121 A  
HETATM    8  C   UNL     2      -7.025   9.370  66.034  1.00  0.00    -0.090 C  
HETATM    9  C   UNL     1      -6.030  10.563  69.019  1.00  0.00    -0.040 C  
HETATM   10  N   UNL     1      -8.735   6.024  67.002  1.00  0.00    -0.110 NA 
HETATM   11  C   UNL     1      -6.987   8.149  68.010  1.00  0.00    -0.077 C  
HETATM   12  H   UNL     1      -8.055   5.266  66.972  1.00  0.00     0.000 HD 
HETATM   13  O   UNL     1      -5.926   7.538  68.163  1.00  0.00    -0.033 OA 
HETATM   14  N   UNL     1      -7.149   9.881  68.430  1.00  0.00    -0.072 N  
HETATM   15  C   UNL     1     -10.002   5.995  66.633  1.00  0.00    -0.166 A  
HETATM   16  C   UNL     1      -8.631  10.831  68.256  1.00  0.00    -0.135 C  
HETATM   17 CL   UNL     1     -10.755   4.657  65.889  1.00  0.00    -0.297 Cl 
HETATM   18  N   UNL     1     -10.790   7.117  66.817  1.00  0.00    -0.255 NA 
ENDROOT
BRANCH   4  19
HETATM   19  C   UNL     2      -8.764   8.840  68.918  1.00  0.00    -0.134 C  
BRANCH  19  20
HETATM   20  C   UNL     2      -8.486   7.424  69.910  1.00  0.00    -0.139 C  
BRANCH  20  21
HETATM   21  O   UNL     2      -9.699   6.686  70.113  1.00  0.00    -0.164 OA 
BRANCH  21  22
HETATM   22  C   UNL     2     -10.235   6.898  71.457  1.00  0.00    -0.196 C  
BRANCH  22  23
HETATM   23  C   UNL     2     -11.566   7.662  71.400  1.00  0.00    -0.300 A  
HETATM   24  C   UNL     2     -12.774   6.933  71.378  1.00  0.00    -0.384 A  
HETATM   25  C   UNL     2     -11.648   9.047  71.614  1.00  0.00    -0.426 A  
HETATM   26  C   UNL     2     -13.997   7.555  71.655  1.00  0.00    -0.523 A  
HETATM   27  C   UNL     2     -14.042   8.920  71.921  1.00  0.00    -0.453 A  
HETATM   28  C   UNL     2     -12.873   9.670  71.872  1.00  0.00    -0.515 A  
ENDBRANCH  22  23
BRANCH  22  29
HETATM   29  C   UNL     2     -10.221   5.541  72.143  1.00  0.00    -0.247 A  
HETATM   30  C   UNL     2     -10.485   2.972  73.277  1.00  0.00    -0.252 A  
HETATM   31  C   UNL     2     -10.841   4.097  74.012  1.00  0.00    -0.292 A  
HETATM   32  C   UNL     2      -9.828   4.394  71.432  1.00  0.00    -0.262 A  
HETATM   33  C   UNL     2     -10.727   5.366  73.441  1.00  0.00    -0.321 A  
HETATM   34  C   UNL     2      -9.976   3.119  71.989  1.00  0.00    -0.223 A  
ENDBRANCH  22  29
ENDBRANCH  21  22
ENDBRANCH  20  21
ENDBRANCH  19  20
ENDBRANCH   4  19
TORSDOF 6
ENDMDL
MODEL      104
REMARK 921   NORMALIZED FREE ENERGY PREDICTED BY IDOCK:   -4.54 KCAL/MOL
REMARK 922        TOTAL FREE ENERGY PREDICTED BY IDOCK:   -4.52 KCAL/MOL
REMARK 923 INTER-LIGAND FREE ENERGY PREDICTED BY IDOCK:   -7.17 KCAL/MOL
REMARK 924 INTRA-LIGAND FREE ENERGY PREDICTED BY IDOCK:    2.65 KCAL/MOL
REMARK 927      BINDING AFFINITY PREDICTED BY RF-SCORE:    0.00 PKD
ROOT
HETATM    1  C   UNL     1      -6.101   9.765  69.510  1.00  0.00    -0.044 C  
HETATM    2  N   UNL     1      -7.364   9.990  68.799  1.00  0.00    -0.076 N  
HETATM    3  C   UNL     2      -8.167   7.937  68.311  1.00  0.00    -0.124 C  
HETATM    4  N   UNL     2      -9.111   9.197  67.959  1.00  0.00    -0.132 NA 
HETATM    5  C   UNL     1      -7.505  10.124  67.018  1.00  0.00    -0.092 A  
HETATM    6  O   UNL     1      -8.820   9.679  71.058  1.00  0.00    -0.195 OA 
HETATM    7  C   UNL     1      -8.955  10.424  66.276  1.00  0.00    -0.155 A  
HETATM    8  C   UNL     2     -10.406   8.279  67.634  1.00  0.00    -0.248 C  
HETATM    9  C   UNL     1     -11.584  10.548  69.821  1.00  0.00    -0.294 C  
HETATM   10  N   UNL     1      -8.733  10.511  64.937  1.00  0.00    -0.180 NA 
HETATM   11  C   UNL     1     -10.553  10.563  67.234  1.00  0.00    -0.264 C  
HETATM   12  H   UNL     1      -9.405  10.731  64.203  1.00  0.00     0.000 HD 
HETATM   13  O   UNL     1     -11.616  10.877  66.694  1.00  0.00    -0.188 OA 
HETATM   14  N   UNL     1     -10.427  10.315  69.001  1.00  0.00    -0.203 N  
HETATM   15  C   UNL     1      -7.447  10.246  64.809  1.00  0.00    -0.103 A  
HETATM   16  C   UNL     1      -8.944   9.878  69.861  1.00  0.00    -0.202 C  
HETATM   17 CL   UNL     1      -6.642  10.094  63.312  1.00  0.00    -0.135 Cl 
HETATM   18  N   UNL     1      -6.679  10.040  65.941  1.00  0.00    -0.096 NA 
ENDROOT
BRANCH   4  19
HETATM   19  C   UNL     2      -8.837  11.239  68.263  1.00  0.00    -0.158 C  
BRANCH  19  20
HETATM   20  C   UNL     2      -9.917  12.591  68.531  1.00  0.00    -0.165 C  
BRANCH  20  21
HETATM   21  O   UNL     2      -9.256  13.841  68.285  1.00  0.00    -0.198 OA 
BRANCH  21  22
HETATM   22  C   UNL     2     -10.213  14.895  67.952  1.00  0.00    -0.228 C  
BRANCH  22  23
HETATM   23  C   UNL     2      -9.526  16.268  67.933  1.00  0.00    -0.218 A  
HETATM   24  C   UNL     2     -10.262  17.396  67.512  1.00  0.00    -0.332 A  
HETATM   25  C   UNL     2      -8.283  16.496  68.545  1.00  0.00    -0.212 A  
HETATM   26  C   UNL     2      -9.810  18.694  67.780  1.00  0.00    -0.357 A  
HETATM   27  C   UNL     2      -8.601  18.890  68.440  1.00  0.00    -0.381 A  
HETATM   28  C   UNL     2      -7.825  17.793  68.795  1.00  0.00    -0.251 A  
ENDBRANCH  22  23
BRANCH  22  29
HETATM   29  C   UNL     2     -10.931  14.440  66.691  1.00  0.00    -0.318 A  
HETATM   30  C   UNL     2     -12.224  13.898  64.244  1.00  0.00    -0.447 A  
HETATM   31  C   UNL     2     -12.973  14.214  65.372  1.00  0.00    -0.300 A  
HETATM   32  C   UNL     2     -10.194  14.079  65.550  1.00  0.00    -0.362 A  
HETATM   33  C   UNL     2     -12.329  14.500  66.577  1.00  0.00    -0.167 A  
HETATM   34  C   UNL     2     -10.836  13.827  64.332  1.00  0.00    -0.343 A  
ENDBRANCH  22  29
ENDBRANCH  21  22
ENDBRANCH  20  21
ENDBRANCH  19  20
ENDBRANCH   4  19
TORSDOF 6
ENDMDL
MODEL      105
REMARK 921   NORMALIZED FREE ENERGY PREDICTED BY IDOCK:   -4.52 KCAL/MOL
REMARK 922        TOTAL FREE ENERGY PREDICTED BY IDOCK:   -4.50 KCAL/MOL
REMARK 923 INTER-LIGAND FREE ENERGY PREDICTED BY IDOCK:   -7.29 KCAL/MOL
REMARK 924 INTRA-LIGAND FREE ENERGY PREDICTED BY IDOCK:    2.79 KCAL/MOL
REMARK 927      BINDING AFFINITY PREDICTED BY RF-SCORE:    0.00 PKD
ROOT
HETATM    1  C   UNL     1      -9.747  12.495  65.470  1.00  0.00    -0.119 C  
HETATM    2  N   UNL     1      -9.876  13.272  66.708  1.00  0.00    -0.257 N  
HETATM    3  C   UNL     2     -11.066  15.109  66.156  1.00  0.00    -0.311 C  
HETATM    4  N   UNL     2     -10.717  14.902  67.717  1.00  0.00    -0.266 NA 
HETATM    5  C   UNL     1      -8.730  14.551  67.216  1.00  0.00    -0.210 A  
HETATM    6  O   UNL     1     -12.317  12.232  67.235  1.00  0.00    -0.363 OA 
HETATM    7  C   UNL     1      -8.905  15.364  68.648  1.00  0.00    -0.186 A  
HETATM    8  C   UNL     2     -11.704  16.089  68.211  1.00  0.00    -0.135 C  
HETATM    9  C   UNL     1     -12.613  13.470  70.118  1.00  0.00    -0.112 C  
HETATM   10  N   UNL     1      -7.867  16.234  68.769  1.00  0.00    -0.202 NA 
HETATM   11  C   UNL     1     -10.349  15.060  69.793  1.00  0.00    -0.155 C  
HETATM   12  H   UNL     1      -7.653  16.851  69.552  1.00  0.00     0.000 HD 
HETATM   13  O   UNL     1     -10.432  15.596  70.901  1.00  0.00    -0.109 OA 
HETATM   14  N   UNL     1     -11.554  13.863  69.230  1.00  0.00    -0.288 N  
HETATM   15  C   UNL     1      -7.200  16.094  67.639  1.00  0.00    -0.146 A  
HETATM   16  C   UNL     1     -11.507  13.037  67.667  1.00  0.00    -0.324 C  
HETATM   17 CL   UNL     1      -5.857  17.047  67.192  1.00  0.00    -0.176 Cl 
HETATM   18  N   UNL     1      -7.612  15.146  66.719  1.00  0.00     0.012 NA 
ENDROOT
BRANCH   4  19
HETATM   19  C   UNL     2      -9.708  13.369  68.702  1.00  0.00    -0.080 C  
BRANCH  19  20
HETATM   20  C   UNL     2      -9.401  11.682  68.347  1.00  0.00    -0.191 C  
BRANCH  20  21
HETATM   21  O   UNL     2     -10.072  10.825  69.282  1.00  0.00    -0.218 OA 
BRANCH  21  22
HETATM   22  C   UNL     2      -9.224   9.702  69.680  1.00  0.00    -0.211 C  
BRANCH  22  23
HETATM   23  C   UNL     2      -9.668   9.138  71.038  1.00  0.00    -0.359 A  
HETATM   24  C   UNL     2     -11.035   9.188  71.387  1.00  0.00    -0.414 A  
HETATM   25  C   UNL     2      -8.822   8.357  71.841  1.00  0.00    -0.267 A  
HETATM   26  C   UNL     2     -11.540   8.413  72.437  1.00  0.00    -0.450 A  
HETATM   27  C   UNL     2     -10.688   7.603  73.181  1.00  0.00    -0.445 A  
HETATM   28  C   UNL     2      -9.326   7.598  72.902  1.00  0.00    -0.253 A  
ENDBRANCH  22  23
BRANCH  22  29
HETATM   29  C   UNL     2      -9.185   8.752  68.493  1.00  0.00    -0.141 A  
HETATM   30  C   UNL     2      -9.089   7.255  66.105  1.00  0.00    -0.160 A  
HETATM   31  C   UNL     2     -10.314   7.557  66.688  1.00  0.00    -0.252 A  
HETATM   32  C   UNL     2      -7.955   8.401  67.910  1.00  0.00    -0.115 A  
HETATM   33  C   UNL     2     -10.359   8.315  67.860  1.00  0.00    -0.278 A  
HETATM   34  C   UNL     2      -7.909   7.673  66.716  1.00  0.00    -0.107 A  
ENDBRANCH  22  29
ENDBRANCH  21  22
ENDBRANCH  20  21
ENDBRANCH  19  20
ENDBRANCH   4  19
TORSDOF 6
ENDMDL
MODEL      106
REMARK 921   NORMALIZED FREE ENERGY PREDICTED BY IDOCK:   -4.50 KCAL/MOL
REMARK 922        TOTAL FREE ENERGY PREDICTED BY IDOCK:   -4.46 KCAL/MOL
REMARK 923 INTER-LIGAND FREE ENERGY PREDICTED BY IDOCK:   -6.89 KCAL/MOL
REMARK 924 INTRA-LIGAND FREE ENERGY PREDICTED BY IDOCK:    2.43 KCAL/MOL
REMARK 927      BINDING AFFINITY PREDICTED BY RF-SCORE:    0.00 PKD
ROOT
HETATM    1  C   UNL     1      -7.513  11.474  69.074  1.00  0.00    -0.073 C  
HETATM    2  N   UNL     1      -7.707  10.600  67.911  1.00  0.00    -0.099 N  
HETATM    3  C   UNL     2      -6.145  11.227  66.406  1.00  0.00    -0.117 C  
HETATM    4  N   UNL     2      -7.037   9.933  66.043  1.00  0.00    -0.100 NA 
HETATM    5  C   UNL     1      -8.759  10.999  66.518  1.00  0.00    -0.168 A  
HETATM    6  O   UNL     1      -5.776   8.893  68.735  1.00  0.00    -0.040 OA 
HETATM    7  C   UNL     1      -8.972   9.950  65.254  1.00  0.00    -0.191 A  
HETATM    8  C   UNL     2      -6.120   9.518  64.774  1.00  0.00    -0.079 C  
HETATM    9  C   UNL     1      -6.315   6.675  66.564  1.00  0.00    -0.042 C  
HETATM   10  N   UNL     1      -9.849  10.513  64.382  1.00  0.00    -0.322 NA 
HETATM   11  C   UNL     1      -8.071   8.316  65.156  1.00  0.00    -0.142 C  
HETATM   12  H   UNL     1     -10.228  10.111  63.525  1.00  0.00     0.000 HD 
HETATM   13  O   UNL     1      -8.298   7.495  64.265  1.00  0.00    -0.046 OA 
HETATM   14  N   UNL     1      -6.934   7.970  66.494  1.00  0.00    -0.070 N  
HETATM   15  C   UNL     1     -10.098  11.701  64.901  1.00  0.00    -0.260 A  
HETATM   16  C   UNL     1      -6.559   9.080  67.818  1.00  0.00    -0.061 C  
HETATM   17 CL   UNL     1     -11.052  12.898  64.147  1.00  0.00    -0.407 Cl 
HETATM   18  N   UNL     1      -9.538  12.041  66.120  1.00  0.00    -0.237 NA 
ENDROOT
BRANCH   4  19
HETATM   19  C   UNL     2      -8.535   8.959  67.113  1.00  0.00    -0.106 C  
BRANCH  19  20
HETATM   20  C   UNL     2      -9.634   9.438  68.390  1.00  0.00    -0.146 C  
BRANCH  20  21
HETATM   21  O   UNL     2      -9.682   8.452  69.431  1.00  0.00    -0.173 OA 
BRANCH  21  22
HETATM   22  C   UNL     2     -10.038   9.049  70.717  1.00  0.00    -0.241 C  
BRANCH  22  23
HETATM   23  C   UNL     2     -11.532   8.857  71.013  1.00  0.00    -0.351 A  
HETATM   24  C   UNL     2     -12.080   7.558  70.957  1.00  0.00    -0.305 A  
HETATM   25  C   UNL     2     -12.325   9.872  71.573  1.00  0.00    -0.504 A  
HETATM   26  C   UNL     2     -13.329   7.277  71.526  1.00  0.00    -0.435 A  
HETATM   27  C   UNL     2     -14.068   8.291  72.127  1.00  0.00    -0.418 A  
HETATM   28  C   UNL     2     -13.579   9.593  72.124  1.00  0.00    -0.471 A  
ENDBRANCH  22  23
BRANCH  22  29
HETATM   29  C   UNL     2      -9.037   8.514  71.730  1.00  0.00    -0.304 A  
HETATM   30  C   UNL     2      -7.158   7.826  73.716  1.00  0.00    -0.136 A  
HETATM   31  C   UNL     2      -6.735   8.077  72.416  1.00  0.00    -0.080 A  
HETATM   32  C   UNL     2      -9.448   8.216  73.040  1.00  0.00    -0.333 A  
HETATM   33  C   UNL     2      -7.665   8.436  71.439  1.00  0.00    -0.116 A  
HETATM   34  C   UNL     2      -8.513   7.892  74.029  1.00  0.00    -0.321 A  
ENDBRANCH  22  29
ENDBRANCH  21  22
ENDBRANCH  20  21
ENDBRANCH  19  20
ENDBRANCH   4  19
TORSDOF 6
ENDMDL
MODEL      107
REMARK 921   NORMALIZED FREE ENERGY PREDICTED BY IDOCK:   -4.49 KCAL/MOL
REMARK 922        TOTAL FREE ENERGY PREDICTED BY IDOCK:   -4.45 KCAL/MOL
REMARK 923 INTER-LIGAND FREE ENERGY PREDICTED BY IDOCK:   -6.66 KCAL/MOL
REMARK 924 INTRA-LIGAND FREE ENERGY PREDICTED BY IDOCK:    2.21 KCAL/MOL
REMARK 927      BINDING AFFINITY PREDICTED BY RF-SCORE:    0.00 PKD
ROOT
HETATM    1  C   UNL     1     -10.003  14.061  64.792  1.00  0.00    -0.039 C  
HETATM    2  N   UNL     1      -9.996  14.497  66.193  1.00  0.00    -0.297 N  
HETATM    3  C   UNL     2     -10.673  16.650  66.168  1.00  0.00    -0.132 C  
HETATM    4  N   UNL     2     -10.459  15.965  67.612  1.00  0.00    -0.282 NA 
HETATM    5  C   UNL     1      -8.596  15.274  66.996  1.00  0.00    -0.227 A  
HETATM    6  O   UNL     1     -12.639  13.995  66.476  1.00  0.00    -0.393 OA 
HETATM    7  C   UNL     1      -8.634  15.703  68.595  1.00  0.00    -0.188 A  
HETATM    8  C   UNL     2     -11.147  17.188  68.420  1.00  0.00    -0.107 C  
HETATM    9  C   UNL     1     -12.758  14.475  69.588  1.00  0.00     0.077 C  
HETATM   10  N   UNL     1      -7.422  16.226  68.920  1.00  0.00    -0.196 NA 
HETATM   11  C   UNL     1     -10.161  15.481  69.649  1.00  0.00    -0.293 C  
HETATM   12  H   UNL     1      -7.101  16.545  69.834  1.00  0.00     0.000 HD 
HETATM   13  O   UNL     1     -10.162  15.714  70.860  1.00  0.00     0.146 OA 
HETATM   14  N   UNL     1     -11.594  14.809  68.814  1.00  0.00    -0.305 N  
HETATM   15  C   UNL     1      -6.758  16.224  67.780  1.00  0.00    -0.142 A  
HETATM   16  C   UNL     1     -11.678  14.433  67.088  1.00  0.00    -0.400 C  
HETATM   17 CL   UNL     1      -5.202  16.895  67.574  1.00  0.00    -0.137 Cl 
HETATM   18  N   UNL     1      -7.345  15.680  66.652  1.00  0.00    -0.092 NA 
ENDROOT
BRANCH   4  19
HETATM   19  C   UNL     2      -9.903  14.028  68.139  1.00  0.00    -0.235 C  
BRANCH  19  20
HETATM   20  C   UNL     2      -8.609  12.952  67.653  1.00  0.00    -0.182 C  
BRANCH  20  21
HETATM   21  O   UNL     2      -8.606  11.753  68.441  1.00  0.00    -0.160 OA 
BRANCH  21  22
HETATM   22  C   UNL     2      -9.561  10.773  67.925  1.00  0.00    -0.160 C  
BRANCH  22  23
HETATM   23  C   UNL     2      -8.838   9.663  67.149  1.00  0.00    -0.141 A  
HETATM   24  C   UNL     2      -9.600   8.747  66.394  1.00  0.00    -0.316 A  
HETATM   25  C   UNL     2      -7.447   9.664  66.957  1.00  0.00    -0.091 A  
HETATM   26  C   UNL     2      -8.999   7.937  65.423  1.00  0.00     0.056 A  
HETATM   27  C   UNL     2      -7.625   8.000  65.213  1.00  0.00    -0.085 A  
HETATM   28  C   UNL     2      -6.846   8.841  66.000  1.00  0.00    -0.073 A  
ENDBRANCH  22  23
BRANCH  22  29
HETATM   29  C   UNL     2     -10.436  10.367  69.101  1.00  0.00    -0.248 A  
HETATM   30  C   UNL     2     -11.952   9.882  71.429  1.00  0.00    -0.489 A  
HETATM   31  C   UNL     2     -10.713   9.273  71.266  1.00  0.00    -0.422 A  
HETATM   32  C   UNL     2     -11.709  10.940  69.266  1.00  0.00    -0.395 A  
HETATM   33  C   UNL     2      -9.956   9.530  70.122  1.00  0.00    -0.285 A  
HETATM   34  C   UNL     2     -12.453  10.712  70.430  1.00  0.00    -0.421 A  
ENDBRANCH  22  29
ENDBRANCH  21  22
ENDBRANCH  20  21
ENDBRANCH  19  20
ENDBRANCH   4  19
TORSDOF 6
ENDMDL
MODEL      108
REMARK 921   NORMALIZED FREE ENERGY PREDICTED BY IDOCK:   -4.49 KCAL/MOL
REMARK 922        TOTAL FREE ENERGY PREDICTED BY IDOCK:   -4.45 KCAL/MOL
REMARK 923 INTER-LIGAND FREE ENERGY PREDICTED BY IDOCK:   -6.76 KCAL/MOL
REMARK 924 INTRA-LIGAND FREE ENERGY PREDICTED BY IDOCK:    2.32 KCAL/MOL
REMARK 927      BINDING AFFINITY PREDICTED BY RF-SCORE:    0.00 PKD
ROOT
HETATM    1  C   UNL     1     -10.422  12.862  64.453  1.00  0.00    -0.396 C  
HETATM    2  N   UNL     1     -10.363  13.418  65.810  1.00  0.00    -0.288 N  
HETATM    3  C   UNL     2     -12.110  14.840  65.966  1.00  0.00    -0.094 C  
HETATM    4  N   UNL     2     -11.252  14.581  67.307  1.00  0.00    -0.319 NA 
HETATM    5  C   UNL     1      -9.500  14.927  66.242  1.00  0.00    -0.309 A  
HETATM    6  O   UNL     1     -12.152  11.615  66.744  1.00  0.00    -0.472 OA 
HETATM    7  C   UNL     1      -9.432  15.480  67.801  1.00  0.00    -0.204 A  
HETATM    8  C   UNL     2     -12.316  15.337  68.267  1.00  0.00     0.365 C  
HETATM    9  C   UNL     1     -11.859  12.371  69.789  1.00  0.00    -0.317 C  
HETATM   10  N   UNL     1      -8.679  16.612  67.815  1.00  0.00    -0.199 NA 
HETATM   11  C   UNL     1     -10.316  14.615  69.202  1.00  0.00    -0.216 C  
HETATM   12  H   UNL     1      -8.406  17.174  68.620  1.00  0.00     0.000 HD 
HETATM   13  O   UNL     1     -10.191  14.972  70.376  1.00  0.00    -0.044 OA 
HETATM   14  N   UNL     1     -11.271  13.172  68.750  1.00  0.00    -0.266 N  
HETATM   15  C   UNL     1      -8.384  16.814  66.545  1.00  0.00    -0.285 A  
HETATM   16  C   UNL     1     -11.493  12.580  67.098  1.00  0.00    -0.351 C  
HETATM   17 CL   UNL     1      -7.549  18.182  65.959  1.00  0.00    -0.269 Cl 
HETATM   18  N   UNL     1      -8.791  15.892  65.597  1.00  0.00    -0.109 NA 
ENDROOT
BRANCH   4  19
HETATM   19  C   UNL     2      -9.618  13.341  67.669  1.00  0.00    -0.213 C  
BRANCH  19  20
HETATM   20  C   UNL     2      -9.134  11.759  67.096  1.00  0.00    -0.175 C  
BRANCH  20  21
HETATM   21  O   UNL     2      -8.849  10.875  68.190  1.00  0.00    -0.128 OA 
BRANCH  21  22
HETATM   22  C   UNL     2      -9.618   9.636  68.090  1.00  0.00    -0.143 C  
BRANCH  22  23
HETATM   23  C   UNL     2      -8.864   8.592  67.253  1.00  0.00    -0.141 A  
HETATM   24  C   UNL     2      -7.479   8.418  67.461  1.00  0.00    -0.094 A  
HETATM   25  C   UNL     2      -9.527   7.636  66.467  1.00  0.00    -0.250 A  
HETATM   26  C   UNL     2      -6.814   7.283  66.980  1.00  0.00    -0.076 A  
HETATM   27  C   UNL     2      -7.510   6.322  66.253  1.00  0.00    -0.086 A  
HETATM   28  C   UNL     2      -8.858   6.513  65.972  1.00  0.00    -0.154 A  
ENDBRANCH  22  23
BRANCH  22  29
HETATM   29  C   UNL     2     -10.012   9.260  69.510  1.00  0.00    -0.194 A  
HETATM   30  C   UNL     2     -10.610   8.275  72.084  1.00  0.00    -0.380 A  
HETATM   31  C   UNL     2     -11.572   8.233  71.081  1.00  0.00    -0.310 A  
HETATM   32  C   UNL     2      -9.067   9.332  70.548  1.00  0.00    -0.307 A  
HETATM   33  C   UNL     2     -11.267   8.704  69.803  1.00  0.00     0.008 A  
HETATM   34  C   UNL     2      -9.360   8.827  71.820  1.00  0.00    -0.350 A  
ENDBRANCH  22  29
ENDBRANCH  21  22
ENDBRANCH  20  21
ENDBRANCH  19  20
ENDBRANCH   4  19
TORSDOF 6
ENDMDL
MODEL      109
REMARK 921   NORMALIZED FREE ENERGY PREDICTED BY IDOCK:   -4.47 KCAL/MOL
REMARK 922        TOTAL FREE ENERGY PREDICTED BY IDOCK:   -4.43 KCAL/MOL
REMARK 923 INTER-LIGAND FREE ENERGY PREDICTED BY IDOCK:   -6.20 KCAL/MOL
REMARK 924 INTRA-LIGAND FREE ENERGY PREDICTED BY IDOCK:    1.78 KCAL/MOL
REMARK 927      BINDING AFFINITY PREDICTED BY RF-SCORE:    0.00 PKD
ROOT
HETATM    1  C   UNL     1      -5.870   7.150  70.994  1.00  0.00    -0.035 C  
HETATM    2  N   UNL     1      -7.317   6.926  70.896  1.00  0.00    -0.076 N  
HETATM    3  C   UNL     2      -7.880   5.742  72.734  1.00  0.00    -0.101 C  
HETATM    4  N   UNL     2      -9.084   6.232  71.779  1.00  0.00    -0.144 NA 
HETATM    5  C   UNL     1      -8.062   5.491  70.127  1.00  0.00    -0.098 A  
HETATM    6  O   UNL     1      -7.863   9.050  72.480  1.00  0.00    -0.336 OA 
HETATM    7  C   UNL     1      -9.705   5.316  70.008  1.00  0.00    -0.196 A  
HETATM    8  C   UNL     2     -10.240   5.821  72.838  1.00  0.00    -0.190 C  
HETATM    9  C   UNL     1     -10.986   9.009  72.062  1.00  0.00    -0.285 C  
HETATM   10  N   UNL     1      -9.959   4.157  69.344  1.00  0.00    -0.084 NA 
HETATM   11  C   UNL     1     -10.892   6.562  70.735  1.00  0.00    -0.261 C  
HETATM   12  H   UNL     1     -10.864   3.778  69.066  1.00  0.00     0.000 HD 
HETATM   13  O   UNL     1     -12.112   6.482  70.567  1.00  0.00    -0.367 OA 
HETATM   14  N   UNL     1     -10.146   7.938  71.602  1.00  0.00    -0.177 N  
HETATM   15  C   UNL     1      -8.763   3.636  69.143  1.00  0.00    -0.091 A  
HETATM   16  C   UNL     1      -8.411   8.142  71.877  1.00  0.00    -0.144 C  
HETATM   17 CL   UNL     1      -8.489   2.100  68.452  1.00  0.00    -0.079 Cl 
HETATM   18  N   UNL     1      -7.639   4.341  69.535  1.00  0.00    -0.054 NA 
ENDROOT
BRANCH   4  19
HETATM   19  C   UNL     2      -9.071   7.372  70.036  1.00  0.00    -0.148 C  
BRANCH  19  20
HETATM   20  C   UNL     2      -7.838   8.257  69.162  1.00  0.00    -0.106 C  
BRANCH  20  21
HETATM   21  O   UNL     2      -8.015   8.130  67.744  1.00  0.00    -0.122 OA 
BRANCH  21  22
HETATM   22  C   UNL     2      -9.420   7.920  67.398  1.00  0.00    -0.144 C  
BRANCH  22  23
HETATM   23  C   UNL     2      -9.964   9.102  66.582  1.00  0.00    -0.343 A  
HETATM   24  C   UNL     2     -10.687  10.116  67.244  1.00  0.00    -0.316 A  
HETATM   25  C   UNL     2      -9.568   9.346  65.257  1.00  0.00    -0.251 A  
HETATM   26  C   UNL     2     -10.918  11.355  66.632  1.00  0.00    -0.341 A  
HETATM   27  C   UNL     2     -10.463  11.590  65.338  1.00  0.00    -0.333 A  
HETATM   28  C   UNL     2      -9.815  10.577  64.641  1.00  0.00    -0.404 A  
ENDBRANCH  22  23
BRANCH  22  29
HETATM   29  C   UNL     2      -9.508   6.531  66.786  1.00  0.00    -0.188 A  
HETATM   30  C   UNL     2      -9.679   4.102  65.362  1.00  0.00    -0.201 A  
HETATM   31  C   UNL     2     -10.826   4.680  65.894  1.00  0.00    -0.024 A  
HETATM   32  C   UNL     2      -8.354   5.910  66.276  1.00  0.00    -0.117 A  
HETATM   33  C   UNL     2     -10.741   5.891  66.582  1.00  0.00    -0.323 A  
HETATM   34  C   UNL     2      -8.443   4.714  65.555  1.00  0.00    -0.123 A  
ENDBRANCH  22  29
ENDBRANCH  21  22
ENDBRANCH  20  21
ENDBRANCH  19  20
ENDBRANCH   4  19
TORSDOF 6
ENDMDL
MODEL      110
REMARK 921   NORMALIZED FREE ENERGY PREDICTED BY IDOCK:   -4.46 KCAL/MOL
REMARK 922        TOTAL FREE ENERGY PREDICTED BY IDOCK:   -4.41 KCAL/MOL
REMARK 923 INTER-LIGAND FREE ENERGY PREDICTED BY IDOCK:   -6.65 KCAL/MOL
REMARK 924 INTRA-LIGAND FREE ENERGY PREDICTED BY IDOCK:    2.24 KCAL/MOL
REMARK 927      BINDING AFFINITY PREDICTED BY RF-SCORE:    0.00 PKD
ROOT
HETATM    1  C   UNL     1     -10.494   9.638  66.331  1.00  0.00    -0.111 C  
HETATM    2  N   UNL     1      -9.486  10.009  67.331  1.00  0.00    -0.151 N  
HETATM    3  C   UNL     2      -7.919   8.386  67.254  1.00  0.00    -0.105 C  
HETATM    4  N   UNL     2      -7.617   9.652  68.206  1.00  0.00    -0.078 NA 
HETATM    5  C   UNL     1      -9.515   9.466  69.037  1.00  0.00    -0.160 A  
HETATM    6  O   UNL     1      -7.912  11.182  65.468  1.00  0.00     0.008 OA 
HETATM    7  C   UNL     1      -8.371   9.957  70.130  1.00  0.00    -0.126 A  
HETATM    8  C   UNL     2      -6.076   9.228  68.470  1.00  0.00    -0.045 C  
HETATM    9  C   UNL     1      -5.848  12.439  67.489  1.00  0.00    -0.142 C  
HETATM   10  N   UNL     1      -8.683   9.416  71.338  1.00  0.00    -0.292 NA 
HETATM   11  C   UNL     1      -6.931  11.043  69.643  1.00  0.00    -0.110 C  
HETATM   12  H   UNL     1      -8.209   9.556  72.229  1.00  0.00     0.000 HD 
HETATM   13  O   UNL     1      -6.131  11.484  70.472  1.00  0.00    -0.266 OA 
HETATM   14  N   UNL     1      -6.842  11.491  67.913  1.00  0.00    -0.070 N  
HETATM   15  C   UNL     1      -9.742   8.669  71.089  1.00  0.00    -0.224 A  
HETATM   16  C   UNL     1      -7.950  10.919  66.659  1.00  0.00    -0.148 C  
HETATM   17 CL   UNL     1     -10.489   7.650  72.236  1.00  0.00    -0.267 Cl 
HETATM   18  N   UNL     1     -10.286   8.663  69.818  1.00  0.00    -0.207 NA 
ENDROOT
BRANCH   4  19
HETATM   19  C   UNL     2      -8.711  11.388  68.561  1.00  0.00    -0.149 C  
BRANCH  19  20
HETATM   20  C   UNL     2      -9.206  12.746  67.571  1.00  0.00    -0.191 C  
BRANCH  20  21
HETATM   21  O   UNL     2     -10.369  13.388  68.114  1.00  0.00    -0.234 OA 
BRANCH  21  22
HETATM   22  C   UNL     2     -10.007  14.535  68.945  1.00  0.00    -0.206 C  
BRANCH  22  23
HETATM   23  C   UNL     2      -9.457  15.681  68.083  1.00  0.00    -0.195 A  
HETATM   24  C   UNL     2     -10.278  16.238  67.080  1.00  0.00    -0.276 A  
HETATM   25  C   UNL     2      -8.272  16.362  68.405  1.00  0.00    -0.190 A  
HETATM   26  C   UNL     2      -9.967  17.473  66.497  1.00  0.00    -0.323 A  
HETATM   27  C   UNL     2      -8.815  18.155  66.877  1.00  0.00    -0.273 A  
HETATM   28  C   UNL     2      -7.954  17.586  67.808  1.00  0.00    -0.210 A  
ENDBRANCH  22  23
BRANCH  22  29
HETATM   29  C   UNL     2     -11.212  14.823  69.828  1.00  0.00    -0.306 A  
HETATM   30  C   UNL     2     -13.322  15.141  71.671  1.00  0.00    -0.521 A  
HETATM   31  C   UNL     2     -13.466  14.279  70.590  1.00  0.00     0.045 A  
HETATM   32  C   UNL     2     -11.101  15.720  70.904  1.00  0.00    -0.354 A  
HETATM   33  C   UNL     2     -12.413  14.109  69.690  1.00  0.00    -0.207 A  
HETATM   34  C   UNL     2     -12.143  15.864  71.827  1.00  0.00    -0.567 A  
ENDBRANCH  22  29
ENDBRANCH  21  22
ENDBRANCH  20  21
ENDBRANCH  19  20
ENDBRANCH   4  19
TORSDOF 6
ENDMDL
MODEL      111
REMARK 921   NORMALIZED FREE ENERGY PREDICTED BY IDOCK:   -4.44 KCAL/MOL
REMARK 922        TOTAL FREE ENERGY PREDICTED BY IDOCK:   -4.39 KCAL/MOL
REMARK 923 INTER-LIGAND FREE ENERGY PREDICTED BY IDOCK:   -7.02 KCAL/MOL
REMARK 924 INTRA-LIGAND FREE ENERGY PREDICTED BY IDOCK:    2.64 KCAL/MOL
REMARK 927      BINDING AFFINITY PREDICTED BY RF-SCORE:    0.00 PKD
ROOT
HETATM    1  C   UNL     1      -9.877   4.890  67.144  1.00  0.00    -0.190 C  
HETATM    2  N   UNL     1      -9.470   5.912  68.115  1.00  0.00    -0.115 N  
HETATM    3  C   UNL     2      -8.699   4.779  69.909  1.00  0.00    -0.085 C  
HETATM    4  N   UNL     2      -8.545   6.384  69.933  1.00  0.00    -0.137 NA 
HETATM    5  C   UNL     1     -10.543   6.574  69.387  1.00  0.00    -0.245 A  
HETATM    6  O   UNL     1      -6.885   5.792  67.322  1.00  0.00    -0.060 OA 
HETATM    7  C   UNL     1     -10.038   7.759  70.427  1.00  0.00    -0.194 A  
HETATM    8  C   UNL     2      -7.588   6.386  71.241  1.00  0.00    -0.094 C  
HETATM    9  C   UNL     1      -5.881   8.249  69.019  1.00  0.00    -0.039 C  
HETATM   10  N   UNL     1     -11.079   8.078  71.241  1.00  0.00    -0.242 NA 
HETATM   11  C   UNL     1      -8.295   8.432  70.398  1.00  0.00    -0.121 C  
HETATM   12  H   UNL     1     -11.115   8.799  71.960  1.00  0.00     0.000 HD 
HETATM   13  O   UNL     1      -7.944   9.377  71.108  1.00  0.00    -0.322 OA 
HETATM   14  N   UNL     1      -7.192   7.688  69.201  1.00  0.00    -0.077 N  
HETATM   15  C   UNL     1     -12.032   7.239  70.882  1.00  0.00    -0.305 A  
HETATM   16  C   UNL     1      -7.612   6.341  68.134  1.00  0.00    -0.102 C  
HETATM   17 CL   UNL     1     -13.541   7.107  71.669  1.00  0.00    -0.437 Cl 
HETATM   18  N   UNL     1     -11.814   6.373  69.826  1.00  0.00    -0.225 NA 
ENDROOT
BRANCH   4  19
HETATM   19  C   UNL     2      -9.047   7.828  68.519  1.00  0.00    -0.132 C  
BRANCH  19  20
HETATM   20  C   UNL     2      -8.538   8.160  66.876  1.00  0.00    -0.124 C  
BRANCH  20  21
HETATM   21  O   UNL     2      -9.562   8.849  66.144  1.00  0.00    -0.234 OA 
BRANCH  21  22
HETATM   22  C   UNL     2      -9.057  10.090  65.559  1.00  0.00    -0.186 C  
BRANCH  22  23
HETATM   23  C   UNL     2      -8.077   9.795  64.415  1.00  0.00    -0.150 A  
HETATM   24  C   UNL     2      -6.777  10.340  64.469  1.00  0.00    -0.076 A  
HETATM   25  C   UNL     2      -8.329   8.813  63.444  1.00  0.00    -0.157 A  
HETATM   26  C   UNL     2      -5.755   9.851  63.646  1.00  0.00    -0.110 A  
HETATM   27  C   UNL     2      -6.019   8.836  62.732  1.00  0.00    -0.087 A  
HETATM   28  C   UNL     2      -7.311   8.338  62.611  1.00  0.00    -0.099 A  
ENDBRANCH  22  23
BRANCH  22  29
HETATM   29  C   UNL     2     -10.277  10.946  65.251  1.00  0.00    -0.351 A  
HETATM   30  C   UNL     2     -12.331  12.777  64.638  1.00  0.00    -0.524 A  
HETATM   31  C   UNL     2     -12.018  12.501  65.964  1.00  0.00    -0.456 A  
HETATM   32  C   UNL     2     -10.636  11.208  63.917  1.00  0.00    -0.431 A  
HETATM   33  C   UNL     2     -10.988  11.608  66.264  1.00  0.00    -0.338 A  
HETATM   34  C   UNL     2     -11.644  12.130  63.615  1.00  0.00    -0.575 A  
ENDBRANCH  22  29
ENDBRANCH  21  22
ENDBRANCH  20  21
ENDBRANCH  19  20
ENDBRANCH   4  19
TORSDOF 6
ENDMDL
MODEL      112
REMARK 921   NORMALIZED FREE ENERGY PREDICTED BY IDOCK:   -4.42 KCAL/MOL
REMARK 922        TOTAL FREE ENERGY PREDICTED BY IDOCK:   -4.35 KCAL/MOL
REMARK 923 INTER-LIGAND FREE ENERGY PREDICTED BY IDOCK:   -6.99 KCAL/MOL
REMARK 924 INTRA-LIGAND FREE ENERGY PREDICTED BY IDOCK:    2.64 KCAL/MOL
REMARK 927      BINDING AFFINITY PREDICTED BY RF-SCORE:    0.00 PKD
ROOT
HETATM    1  C   UNL     1     -11.875  10.947  69.185  1.00  0.00    -0.317 C  
HETATM    2  N   UNL     1     -10.796  10.827  68.198  1.00  0.00    -0.216 N  
HETATM    3  C   UNL     2      -9.628  12.754  68.330  1.00  0.00    -0.211 C  
HETATM    4  N   UNL     2      -9.040  11.604  67.363  1.00  0.00    -0.166 NA 
HETATM    5  C   UNL     1     -10.920  11.383  66.501  1.00  0.00    -0.272 A  
HETATM    6  O   UNL     1      -9.028   9.994  70.070  1.00  0.00    -0.195 OA 
HETATM    7  C   UNL     1      -9.681  11.179  65.421  1.00  0.00    -0.231 A  
HETATM    8  C   UNL     2      -7.627  12.363  67.133  1.00  0.00    -0.104 C  
HETATM    9  C   UNL     1      -6.709   9.263  68.066  1.00  0.00    -0.060 C  
HETATM   10  N   UNL     1     -10.088  11.661  64.216  1.00  0.00    -0.269 NA 
HETATM   11  C   UNL     1      -8.043  10.428  65.916  1.00  0.00    -0.149 C  
HETATM   12  H   UNL     1      -9.582  11.647  63.331  1.00  0.00     0.000 HD 
HETATM   13  O   UNL     1      -7.155  10.191  65.094  1.00  0.00    -0.130 OA 
HETATM   14  N   UNL     1      -7.882   9.977  67.640  1.00  0.00    -0.095 N  
HETATM   15  C   UNL     1     -11.289  12.151  64.458  1.00  0.00    -0.334 A  
HETATM   16  C   UNL     1      -9.107  10.265  68.883  1.00  0.00    -0.168 C  
HETATM   17 CL   UNL     1     -12.227  13.003  63.314  1.00  0.00    -0.589 Cl 
HETATM   18  N   UNL     1     -11.839  12.012  65.720  1.00  0.00    -0.480 NA 
ENDROOT
BRANCH   4  19
HETATM   19  C   UNL     2      -9.719   9.677  66.960  1.00  0.00    -0.181 C  
BRANCH  19  20
HETATM   20  C   UNL     2      -9.242   8.424  65.833  1.00  0.00    -0.155 C  
BRANCH  20  21
HETATM   21  O   UNL     2      -8.871   7.221  66.521  1.00  0.00    -0.129 OA 
BRANCH  21  22
HETATM   22  C   UNL     2      -9.950   6.234  66.493  1.00  0.00    -0.115 C  
BRANCH  22  23
HETATM   23  C   UNL     2      -9.572   5.038  65.607  1.00  0.00    -0.138 A  
HETATM   24  C   UNL     2     -10.600   4.243  65.056  1.00  0.00    -0.168 A  
HETATM   25  C   UNL     2      -8.269   4.844  65.121  1.00  0.00    -0.124 A  
HETATM   26  C   UNL     2     -10.341   3.362  63.998  1.00  0.00    -0.220 A  
HETATM   27  C   UNL     2      -9.050   3.232  63.497  1.00  0.00    -0.092 A  
HETATM   28  C   UNL     2      -8.011   3.950  64.077  1.00  0.00    -0.089 A  
ENDBRANCH  22  23
BRANCH  22  29
HETATM   29  C   UNL     2     -10.317   5.959  67.943  1.00  0.00    -0.262 A  
HETATM   30  C   UNL     2     -10.726   5.607  70.711  1.00  0.00    -0.320 A  
HETATM   31  C   UNL     2     -10.136   4.596  69.960  1.00  0.00    -0.267 A  
HETATM   32  C   UNL     2     -10.949   6.952  68.712  1.00  0.00    -0.210 A  
HETATM   33  C   UNL     2      -9.918   4.781  68.594  1.00  0.00    -0.170 A  
HETATM   34  C   UNL     2     -11.136   6.782  70.089  1.00  0.00    -0.365 A  
ENDBRANCH  22  29
ENDBRANCH  21  22
ENDBRANCH  20  21
ENDBRANCH  19  20
ENDBRANCH   4  19
TORSDOF 6
ENDMDL
MODEL      113
REMARK 921   NORMALIZED FREE ENERGY PREDICTED BY IDOCK:   -4.42 KCAL/MOL
REMARK 922        TOTAL FREE ENERGY PREDICTED BY IDOCK:   -4.35 KCAL/MOL
REMARK 923 INTER-LIGAND FREE ENERGY PREDICTED BY IDOCK:   -6.52 KCAL/MOL
REMARK 924 INTRA-LIGAND FREE ENERGY PREDICTED BY IDOCK:    2.17 KCAL/MOL
REMARK 927      BINDING AFFINITY PREDICTED BY RF-SCORE:    0.00 PKD
ROOT
HETATM    1  C   UNL     1     -10.826   8.757  71.073  1.00  0.00    -0.260 C  
HETATM    2  N   UNL     1     -10.020   8.224  69.968  1.00  0.00    -0.186 N  
HETATM    3  C   UNL     2      -8.524   6.826  70.919  1.00  0.00    -0.136 C  
HETATM    4  N   UNL     2      -8.553   6.883  69.308  1.00  0.00    -0.132 NA 
HETATM    5  C   UNL     1      -8.494   8.961  69.390  1.00  0.00    -0.124 A  
HETATM    6  O   UNL     1     -11.532   5.986  69.801  1.00  0.00    -0.395 OA 
HETATM    7  C   UNL     1      -7.652   8.337  68.108  1.00  0.00    -0.098 A  
HETATM    8  C   UNL     2      -7.582   5.599  69.133  1.00  0.00    -0.088 C  
HETATM    9  C   UNL     1     -10.213   4.864  67.168  1.00  0.00    -0.162 C  
HETATM   10  N   UNL     1      -6.571   9.131  67.886  1.00  0.00    -0.063 NA 
HETATM   11  C   UNL     1      -8.191   6.780  67.227  1.00  0.00    -0.121 C  
HETATM   12  H   UNL     1      -5.875   9.052  67.145  1.00  0.00     0.000 HD 
HETATM   13  O   UNL     1      -7.619   6.366  66.216  1.00  0.00    -0.087 OA 
HETATM   14  N   UNL     1      -9.655   5.982  67.879  1.00  0.00    -0.115 N  
HETATM   15  C   UNL     1      -6.631  10.029  68.852  1.00  0.00    -0.049 A  
HETATM   16  C   UNL     1     -10.546   6.512  69.311  1.00  0.00    -0.247 C  
HETATM   17 CL   UNL     1      -5.439  11.216  69.135  1.00  0.00    -0.040 Cl 
HETATM   18  N   UNL     1      -7.701  10.013  69.728  1.00  0.00    -0.153 NA 
ENDROOT
BRANCH   4  19
HETATM   19  C   UNL     2      -9.766   7.957  67.998  1.00  0.00    -0.159 C  
BRANCH  19  20
HETATM   20  C   UNL     2     -10.157   9.653  67.807  1.00  0.00    -0.187 C  
BRANCH  20  21
HETATM   21  O   UNL     2     -10.507   9.955  66.448  1.00  0.00    -0.205 OA 
BRANCH  21  22
HETATM   22  C   UNL     2      -9.623  10.973  65.882  1.00  0.00    -0.218 C  
BRANCH  22  23
HETATM   23  C   UNL     2      -8.919  10.445  64.624  1.00  0.00    -0.235 A  
HETATM   24  C   UNL     2      -7.667   9.809  64.756  1.00  0.00    -0.128 A  
HETATM   25  C   UNL     2      -9.570  10.346  63.384  1.00  0.00    -0.361 A  
HETATM   26  C   UNL     2      -7.140   9.030  63.718  1.00  0.00    -0.092 A  
HETATM   27  C   UNL     2      -7.835   8.902  62.519  1.00  0.00    -0.129 A  
HETATM   28  C   UNL     2      -9.034   9.583  62.342  1.00  0.00    -0.279 A  
ENDBRANCH  22  23
BRANCH  22  29
HETATM   29  C   UNL     2     -10.455  12.240  65.755  1.00  0.00    -0.287 A  
HETATM   30  C   UNL     2     -12.097  14.473  65.235  1.00  0.00    -0.337 A  
HETATM   31  C   UNL     2     -10.739  14.523  64.938  1.00  0.00    -0.448 A  
HETATM   32  C   UNL     2     -11.821  12.225  66.086  1.00  0.00    -0.398 A  
HETATM   33  C   UNL     2      -9.933  13.409  65.179  1.00  0.00    -0.190 A  
HETATM   34  C   UNL     2     -12.638  13.327  65.811  1.00  0.00    -0.413 A  
ENDBRANCH  22  29
ENDBRANCH  21  22
ENDBRANCH  20  21
ENDBRANCH  19  20
ENDBRANCH   4  19
TORSDOF 6
ENDMDL
MODEL      114
REMARK 921   NORMALIZED FREE ENERGY PREDICTED BY IDOCK:   -4.41 KCAL/MOL
REMARK 922        TOTAL FREE ENERGY PREDICTED BY IDOCK:   -4.34 KCAL/MOL
REMARK 923 INTER-LIGAND FREE ENERGY PREDICTED BY IDOCK:   -6.23 KCAL/MOL
REMARK 924 INTRA-LIGAND FREE ENERGY PREDICTED BY IDOCK:    1.88 KCAL/MOL
REMARK 927      BINDING AFFINITY PREDICTED BY RF-SCORE:    0.00 PKD
ROOT
HETATM    1  C   UNL     1     -10.568  15.703  67.633  1.00  0.00    -0.294 C  
HETATM    2  N   UNL     1     -10.594  14.325  67.129  1.00  0.00    -0.277 N  
HETATM    3  C   UNL     2     -12.629  14.053  66.189  1.00  0.00    -0.367 C  
HETATM    4  N   UNL     2     -11.578  12.840  66.028  1.00  0.00    -0.361 NA 
HETATM    5  C   UNL     1     -11.187  12.921  68.070  1.00  0.00    -0.268 A  
HETATM    6  O   UNL     1      -9.894  15.108  64.635  1.00  0.00    -0.023 OA 
HETATM    7  C   UNL     1     -11.149  11.382  67.461  1.00  0.00    -0.281 A  
HETATM    8  C   UNL     2     -12.488  12.047  64.948  1.00  0.00     0.073 C  
HETATM    9  C   UNL     1      -9.475  12.215  63.461  1.00  0.00     0.186 C  
HETATM   10  N   UNL     1     -11.623  10.538  68.417  1.00  0.00    -0.635 NA 
HETATM   11  C   UNL     1     -10.560  11.012  65.727  1.00  0.00    -0.195 C  
HETATM   12  H   UNL     1     -11.690   9.522  68.379  1.00  0.00     0.000 HD 
HETATM   13  O   UNL     1     -10.444   9.859  65.305  1.00  0.00    -0.066 OA 
HETATM   14  N   UNL     1     -10.074  12.430  64.749  1.00  0.00    -0.264 N  
HETATM   15  C   UNL     1     -11.976  11.340  69.403  1.00  0.00    -0.341 A  
HETATM   16  C   UNL     1     -10.192  14.114  65.277  1.00  0.00    -0.375 C  
HETATM   17 CL   UNL     1     -12.760  10.823  70.828  1.00  0.00    -0.448 Cl 
HETATM   18  N   UNL     1     -11.740  12.699  69.292  1.00  0.00    -0.310 NA 
ENDROOT
BRANCH   4  19
HETATM   19  C   UNL     2      -9.604  12.646  66.662  1.00  0.00    -0.249 C  
BRANCH  19  20
HETATM   20  C   UNL     2      -8.789  12.839  68.200  1.00  0.00    -0.194 C  
BRANCH  20  21
HETATM   21  O   UNL     2      -7.537  12.138  68.216  1.00  0.00    -0.115 OA 
BRANCH  21  22
HETATM   22  C   UNL     2      -7.725  10.704  67.997  1.00  0.00    -0.100 C  
BRANCH  22  23
HETATM   23  C   UNL     2      -6.789  10.194  66.892  1.00  0.00    -0.084 A  
HETATM   24  C   UNL     2      -6.894   8.851  66.473  1.00  0.00    -0.079 A  
HETATM   25  C   UNL     2      -6.005  11.058  66.112  1.00  0.00    -0.132 A  
HETATM   26  C   UNL     2      -6.313   8.422  65.273  1.00  0.00    -0.052 A  
HETATM   27  C   UNL     2      -5.590   9.316  64.488  1.00  0.00    -0.063 A  
HETATM   28  C   UNL     2      -5.412  10.624  64.922  1.00  0.00    -0.127 A  
ENDBRANCH  22  23
BRANCH  22  29
HETATM   29  C   UNL     2      -7.638  10.047  69.366  1.00  0.00    -0.123 A  
HETATM   30  C   UNL     2      -7.331   8.579  71.754  1.00  0.00    -0.118 A  
HETATM   31  C   UNL     2      -8.531   8.527  71.054  1.00  0.00    -0.185 A  
HETATM   32  C   UNL     2      -6.447  10.119  70.110  1.00  0.00    -0.118 A  
HETATM   33  C   UNL     2      -8.674   9.239  69.863  1.00  0.00    -0.189 A  
HETATM   34  C   UNL     2      -6.291   9.376  71.285  1.00  0.00    -0.051 A  
ENDBRANCH  22  29
ENDBRANCH  21  22
ENDBRANCH  20  21
ENDBRANCH  19  20
ENDBRANCH   4  19
TORSDOF 6
ENDMDL
MODEL      115
REMARK 921   NORMALIZED FREE ENERGY PREDICTED BY IDOCK:   -4.41 KCAL/MOL
REMARK 922        TOTAL FREE ENERGY PREDICTED BY IDOCK:   -4.34 KCAL/MOL
REMARK 923 INTER-LIGAND FREE ENERGY PREDICTED BY IDOCK:   -7.61 KCAL/MOL
REMARK 924 INTRA-LIGAND FREE ENERGY PREDICTED BY IDOCK:    3.27 KCAL/MOL
REMARK 927      BINDING AFFINITY PREDICTED BY RF-SCORE:    0.00 PKD
ROOT
HETATM    1  C   UNL     1      -7.059  11.970  68.800  1.00  0.00    -0.111 C  
HETATM    2  N   UNL     1      -7.968  10.884  68.416  1.00  0.00    -0.120 N  
HETATM    3  C   UNL     2      -6.642   9.177  67.764  1.00  0.00    -0.060 C  
HETATM    4  N   UNL     2      -8.227   8.889  67.837  1.00  0.00    -0.110 NA 
HETATM    5  C   UNL     1      -8.583  10.628  66.753  1.00  0.00    -0.129 A  
HETATM    6  O   UNL     1      -7.761   9.706  70.843  1.00  0.00    -0.314 OA 
HETATM    7  C   UNL     1      -9.643   9.409  66.391  1.00  0.00    -0.224 A  
HETATM    8  C   UNL     2      -8.060   7.290  67.637  1.00  0.00    -0.114 C  
HETATM    9  C   UNL     1      -9.999   7.538  70.376  1.00  0.00    -0.184 C  
HETATM   10  N   UNL     1      -9.954   9.498  65.071  1.00  0.00    -0.355 NA 
HETATM   11  C   UNL     1     -10.209   8.170  67.671  1.00  0.00    -0.234 C  
HETATM   12  H   UNL     1     -10.612   8.928  64.541  1.00  0.00     0.000 HD 
HETATM   13  O   UNL     1     -11.068   7.320  67.426  1.00  0.00    -0.214 OA 
HETATM   14  N   UNL     1      -9.505   8.360  69.305  1.00  0.00    -0.154 N  
HETATM   15  C   UNL     1      -9.207  10.495  64.634  1.00  0.00    -0.235 A  
HETATM   16  C   UNL     1      -8.281   9.558  69.749  1.00  0.00    -0.151 C  
HETATM   17 CL   UNL     1      -9.100  10.970  62.999  1.00  0.00    -0.283 Cl 
HETATM   18  N   UNL     1      -8.422  11.199  65.529  1.00  0.00    -0.072 NA 
ENDROOT
BRANCH   4  19
HETATM   19  C   UNL     2      -9.814  10.106  68.419  1.00  0.00    -0.151 C  
BRANCH  19  20
HETATM   20  C   UNL     2     -10.240  11.780  68.133  1.00  0.00    -0.203 C  
BRANCH  20  21
HETATM   21  O   UNL     2     -11.664  11.957  68.108  1.00  0.00    -0.330 OA 
BRANCH  21  22
HETATM   22  C   UNL     2     -12.027  13.306  67.679  1.00  0.00    -0.322 C  
BRANCH  22  23
HETATM   23  C   UNL     2     -11.219  14.360  68.449  1.00  0.00    -0.294 A  
HETATM   24  C   UNL     2      -9.823  14.195  68.575  1.00  0.00    -0.230 A  
HETATM   25  C   UNL     2     -11.762  15.600  68.823  1.00  0.00    -0.382 A  
HETATM   26  C   UNL     2      -9.003  15.260  68.968  1.00  0.00    -0.225 A  
HETATM   27  C   UNL     2      -9.563  16.496  69.276  1.00  0.00    -0.176 A  
HETATM   28  C   UNL     2     -10.943  16.657  69.233  1.00  0.00    -0.261 A  
ENDBRANCH  22  23
BRANCH  22  29
HETATM   29  C   UNL     2     -11.940  13.311  66.160  1.00  0.00    -0.470 A  
HETATM   30  C   UNL     2     -12.074  13.454  63.347  1.00  0.00    -0.437 A  
HETATM   31  C   UNL     2     -12.410  12.274  64.001  1.00  0.00    -0.569 A  
HETATM   32  C   UNL     2     -11.565  14.482  65.478  1.00  0.00    -0.350 A  
HETATM   33  C   UNL     2     -12.361  12.212  65.395  1.00  0.00     0.002 A  
HETATM   34  C   UNL     2     -11.649  14.556  64.083  1.00  0.00    -0.148 A  
ENDBRANCH  22  29
ENDBRANCH  21  22
ENDBRANCH  20  21
ENDBRANCH  19  20
ENDBRANCH   4  19
TORSDOF 6
ENDMDL
MODEL      116
REMARK 921   NORMALIZED FREE ENERGY PREDICTED BY IDOCK:   -4.39 KCAL/MOL
REMARK 922        TOTAL FREE ENERGY PREDICTED BY IDOCK:   -4.31 KCAL/MOL
REMARK 923 INTER-LIGAND FREE ENERGY PREDICTED BY IDOCK:   -7.28 KCAL/MOL
REMARK 924 INTRA-LIGAND FREE ENERGY PREDICTED BY IDOCK:    2.97 KCAL/MOL
REMARK 927      BINDING AFFINITY PREDICTED BY RF-SCORE:    0.00 PKD
ROOT
HETATM    1  C   UNL     1     -11.792  13.156  69.426  1.00  0.00    -0.326 C  
HETATM    2  N   UNL     1     -10.949  13.973  68.545  1.00  0.00    -0.247 N  
HETATM    3  C   UNL     2     -12.103  15.879  68.186  1.00  0.00     0.384 C  
HETATM    4  N   UNL     2     -10.607  15.803  67.589  1.00  0.00    -0.294 NA 
HETATM    5  C   UNL     1     -11.044  13.948  66.757  1.00  0.00    -0.303 A  
HETATM    6  O   UNL     1      -9.922  15.358  70.630  1.00  0.00     0.083 OA 
HETATM    7  C   UNL     1     -10.033  14.860  65.815  1.00  0.00    -0.347 A  
HETATM    8  C   UNL     2     -10.559  17.377  67.208  1.00  0.00    -0.284 C  
HETATM    9  C   UNL     1      -7.736  16.914  68.978  1.00  0.00    -0.199 C  
HETATM   10  N   UNL     1     -10.319  14.597  64.512  1.00  0.00    -0.475 NA 
HETATM   11  C   UNL     1      -8.781  16.036  66.550  1.00  0.00    -0.303 C  
HETATM   12  H   UNL     1      -9.851  14.959  63.682  1.00  0.00     0.000 HD 
HETATM   13  O   UNL     1      -7.966  16.646  65.853  1.00  0.00    -0.304 OA 
HETATM   14  N   UNL     1      -8.765  16.143  68.336  1.00  0.00    -0.184 N  
HETATM   15  C   UNL     1     -11.342  13.766  64.572  1.00  0.00    -0.380 A  
HETATM   16  C   UNL     1      -9.884  15.295  69.412  1.00  0.00    -0.252 C  
HETATM   17 CL   UNL     1     -12.198  13.198  63.209  1.00  0.00    -0.575 Cl 
HETATM   18  N   UNL     1     -11.795  13.332  65.805  1.00  0.00    -0.366 NA 
ENDROOT
BRANCH   4  19
HETATM   19  C   UNL     2      -9.162  14.308  67.702  1.00  0.00    -0.194 C  
BRANCH  19  20
HETATM   20  C   UNL     2      -8.994  12.839  68.642  1.00  0.00     0.051 C  
BRANCH  20  21
HETATM   21  O   UNL     2      -9.186  11.676  67.825  1.00  0.00    -0.168 OA 
BRANCH  21  22
HETATM   22  C   UNL     2      -8.454  10.525  68.353  1.00  0.00    -0.128 C  
BRANCH  22  23
HETATM   23  C   UNL     2      -9.296   9.775  69.394  1.00  0.00    -0.212 A  
HETATM   24  C   UNL     2      -8.656   9.226  70.526  1.00  0.00    -0.271 A  
HETATM   25  C   UNL     2     -10.700   9.819  69.401  1.00  0.00    -0.250 A  
HETATM   26  C   UNL     2      -9.391   8.829  71.649  1.00  0.00    -0.345 A  
HETATM   27  C   UNL     2     -10.779   8.938  71.651  1.00  0.00    -0.418 A  
HETATM   28  C   UNL     2     -11.433   9.405  70.517  1.00  0.00    -0.317 A  
ENDBRANCH  22  23
BRANCH  22  29
HETATM   29  C   UNL     2      -7.952   9.746  67.147  1.00  0.00    -0.102 A  
HETATM   30  C   UNL     2      -7.135   8.037  65.058  1.00  0.00    -0.067 A  
HETATM   31  C   UNL     2      -6.230   8.412  66.044  1.00  0.00    -0.052 A  
HETATM   32  C   UNL     2      -8.840   9.388  66.117  1.00  0.00    -0.178 A  
HETATM   33  C   UNL     2      -6.643   9.243  67.087  1.00  0.00    -0.068 A  
HETATM   34  C   UNL     2      -8.438   8.526  65.091  1.00  0.00    -0.193 A  
ENDBRANCH  22  29
ENDBRANCH  21  22
ENDBRANCH  20  21
ENDBRANCH  19  20
ENDBRANCH   4  19
TORSDOF 6
ENDMDL
MODEL      117
REMARK 921   NORMALIZED FREE ENERGY PREDICTED BY IDOCK:   -4.39 KCAL/MOL
REMARK 922        TOTAL FREE ENERGY PREDICTED BY IDOCK:   -4.31 KCAL/MOL
REMARK 923 INTER-LIGAND FREE ENERGY PREDICTED BY IDOCK:   -7.30 KCAL/MOL
REMARK 924 INTRA-LIGAND FREE ENERGY PREDICTED BY IDOCK:    2.99 KCAL/MOL
REMARK 927      BINDING AFFINITY PREDICTED BY RF-SCORE:    0.00 PKD
ROOT
HETATM    1  C   UNL     1      -9.229  11.879  68.199  1.00  0.00    -0.187 C  
HETATM    2  N   UNL     1      -9.943  12.495  67.075  1.00  0.00    -0.212 N  
HETATM    3  C   UNL     2      -8.813  11.880  65.220  1.00  0.00     0.435 C  
HETATM    4  N   UNL     2     -10.186  12.698  65.005  1.00  0.00    -0.287 NA 
HETATM    5  C   UNL     1      -9.554  14.107  66.399  1.00  0.00    -0.293 A  
HETATM    6  O   UNL     1     -11.348  10.234  66.587  1.00  0.00     0.040 OA 
HETATM    7  C   UNL     1     -10.427  14.767  65.156  1.00  0.00    -0.418 A  
HETATM    8  C   UNL     2     -10.226  12.432  63.408  1.00  0.00    -0.213 C  
HETATM    9  C   UNL     1     -13.284  11.478  64.436  1.00  0.00     1.613 C  
HETATM   10  N   UNL     1      -9.921  16.003  64.896  1.00  0.00    -0.238 NA 
HETATM   11  C   UNL     1     -11.824  13.848  64.323  1.00  0.00    -0.412 C  
HETATM   12  H   UNL     1     -10.259  16.689  64.222  1.00  0.00     0.000 HD 
HETATM   13  O   UNL     1     -12.533  14.373  63.462  1.00  0.00    -0.770 OA 
HETATM   14  N   UNL     1     -12.137  12.192  64.926  1.00  0.00    -0.328 N  
HETATM   15  C   UNL     1      -8.894  16.106  65.717  1.00  0.00     0.034 A  
HETATM   16  C   UNL     1     -11.182  11.367  66.165  1.00  0.00    -0.137 C  
HETATM   17 CL   UNL     1      -7.806  17.420  65.732  1.00  0.00    -0.056 Cl 
HETATM   18  N   UNL     1      -8.635  15.086  66.615  1.00  0.00    -0.250 NA 
ENDROOT
BRANCH   4  19
HETATM   19  C   UNL     2     -11.577  13.421  66.377  1.00  0.00    -0.346 C  
BRANCH  19  20
HETATM   20  C   UNL     2     -11.742  14.911  67.281  1.00  0.00    -0.291 C  
BRANCH  20  21
HETATM   21  O   UNL     2     -11.628  14.678  68.692  1.00  0.00    -0.284 OA 
BRANCH  21  22
HETATM   22  C   UNL     2     -11.763  15.920  69.452  1.00  0.00    -0.343 C  
BRANCH  22  23
HETATM   23  C   UNL     2     -12.338  15.645  70.849  1.00  0.00    -0.479 A  
HETATM   24  C   UNL     2     -13.094  14.472  71.059  1.00  0.00    -0.429 A  
HETATM   25  C   UNL     2     -11.945  16.375  71.981  1.00  0.00    -0.437 A  
HETATM   26  C   UNL     2     -13.359  14.007  72.353  1.00  0.00    -0.617 A  
HETATM   27  C   UNL     2     -12.906  14.721  73.459  1.00  0.00    -0.533 A  
HETATM   28  C   UNL     2     -12.226  15.919  73.273  1.00  0.00    -0.625 A  
ENDBRANCH  22  23
BRANCH  22  29
HETATM   29  C   UNL     2     -10.419  16.627  69.361  1.00  0.00    -0.320 A  
HETATM   30  C   UNL     2      -7.941  17.880  68.873  1.00  0.00    -0.175 A  
HETATM   31  C   UNL     2      -7.980  16.555  69.292  1.00  0.00    -0.104 A  
HETATM   32  C   UNL     2     -10.356  17.978  68.977  1.00  0.00    -0.167 A  
HETATM   33  C   UNL     2      -9.209  15.931  69.514  1.00  0.00    -0.175 A  
HETATM   34  C   UNL     2      -9.126  18.593  68.719  1.00  0.00    -0.297 A  
ENDBRANCH  22  29
ENDBRANCH  21  22
ENDBRANCH  20  21
ENDBRANCH  19  20
ENDBRANCH   4  19
TORSDOF 6
ENDMDL
MODEL      118
REMARK 921   NORMALIZED FREE ENERGY PREDICTED BY IDOCK:   -4.37 KCAL/MOL
REMARK 922        TOTAL FREE ENERGY PREDICTED BY IDOCK:   -4.29 KCAL/MOL
REMARK 923 INTER-LIGAND FREE ENERGY PREDICTED BY IDOCK:   -6.87 KCAL/MOL
REMARK 924 INTRA-LIGAND FREE ENERGY PREDICTED BY IDOCK:    2.58 KCAL/MOL
REMARK 927      BINDING AFFINITY PREDICTED BY RF-SCORE:    0.00 PKD
ROOT
HETATM    1  C   UNL     1     -13.255  13.834  65.506  1.00  0.00     0.047 C  
HETATM    2  N   UNL     1     -11.913  13.597  66.049  1.00  0.00    -0.388 N  
HETATM    3  C   UNL     2     -10.584  15.155  65.100  1.00  0.00    -0.424 C  
HETATM    4  N   UNL     2      -9.923  14.219  66.235  1.00  0.00    -0.295 NA 
HETATM    5  C   UNL     1     -10.690  12.538  65.281  1.00  0.00    -0.286 A  
HETATM    6  O   UNL     1     -12.234  15.487  67.959  1.00  0.00     0.073 OA 
HETATM    7  C   UNL     1      -9.207  12.275  65.968  1.00  0.00    -0.085 A  
HETATM    8  C   UNL     2      -8.570  15.105  66.337  1.00  0.00    -0.104 C  
HETATM    9  C   UNL     1      -9.581  14.850  69.536  1.00  0.00    -0.016 C  
HETATM   10  N   UNL     1      -8.525  11.402  65.178  1.00  0.00    -0.353 NA 
HETATM   11  C   UNL     1      -8.676  13.124  67.545  1.00  0.00    -0.201 C  
HETATM   12  H   UNL     1      -7.603  10.999  65.339  1.00  0.00     0.000 HD 
HETATM   13  O   UNL     1      -7.610  12.859  68.106  1.00  0.00    -0.113 OA 
HETATM   14  N   UNL     1      -9.856  14.269  68.250  1.00  0.00    -0.229 N  
HETATM   15  C   UNL     1      -9.335  11.197  64.157  1.00  0.00    -0.165 A  
HETATM   16  C   UNL     1     -11.412  14.697  67.524  1.00  0.00    -0.361 C  
HETATM   17 CL   UNL     1      -8.931  10.269  62.783  1.00  0.00    -0.230 Cl 
HETATM   18  N   UNL     1     -10.587  11.785  64.153  1.00  0.00    -0.320 NA 
ENDROOT
BRANCH   4  19
HETATM   19  C   UNL     2     -10.742  12.707  67.411  1.00  0.00    -0.229 C  
BRANCH  19  20
HETATM   20  C   UNL     2     -10.160  11.163  67.997  1.00  0.00    -0.174 C  
BRANCH  20  21
HETATM   21  O   UNL     2     -11.201  10.436  68.665  1.00  0.00    -0.256 OA 
BRANCH  21  22
HETATM   22  C   UNL     2     -11.017   8.992  68.527  1.00  0.00     0.086 C  
BRANCH  22  23
HETATM   23  C   UNL     2      -9.757   8.679  67.707  1.00  0.00    -0.202 A  
HETATM   24  C   UNL     2      -8.542   8.439  68.383  1.00  0.00    -0.139 A  
HETATM   25  C   UNL     2      -9.807   8.379  66.336  1.00  0.00    -0.310 A  
HETATM   26  C   UNL     2      -7.459   7.837  67.729  1.00  0.00    -0.104 A  
HETATM   27  C   UNL     2      -7.557   7.497  66.383  1.00  0.00    -0.088 A  
HETATM   28  C   UNL     2      -8.719   7.794  65.681  1.00  0.00    -0.132 A  
ENDBRANCH  22  23
BRANCH  22  29
HETATM   29  C   UNL     2     -11.117   8.411  69.929  1.00  0.00    -0.109 A  
HETATM   30  C   UNL     2     -11.624   7.344  72.490  1.00  0.00    -0.319 A  
HETATM   31  C   UNL     2     -11.386   8.705  72.337  1.00  0.00    -0.353 A  
HETATM   32  C   UNL     2     -11.319   7.031  70.109  1.00  0.00    -0.321 A  
HETATM   33  C   UNL     2     -11.154   9.233  71.066  1.00  0.00    -0.396 A  
HETATM   34  C   UNL     2     -11.588   6.506  71.378  1.00  0.00    -0.371 A  
ENDBRANCH  22  29
ENDBRANCH  21  22
ENDBRANCH  20  21
ENDBRANCH  19  20
ENDBRANCH   4  19
TORSDOF 6
ENDMDL
MODEL      119
REMARK 921   NORMALIZED FREE ENERGY PREDICTED BY IDOCK:   -4.37 KCAL/MOL
REMARK 922        TOTAL FREE ENERGY PREDICTED BY IDOCK:   -4.28 KCAL/MOL
REMARK 923 INTER-LIGAND FREE ENERGY PREDICTED BY IDOCK:   -6.64 KCAL/MOL
REMARK 924 INTRA-LIGAND FREE ENERGY PREDICTED BY IDOCK:    2.36 KCAL/MOL
REMARK 927      BINDING AFFINITY PREDICTED BY RF-SCORE:    0.00 PKD
ROOT
HETATM    1  C   UNL     1      -7.675  14.998  69.834  1.00  0.00     0.069 C  
HETATM    2  N   UNL     1      -8.928  14.848  69.086  1.00  0.00    -0.173 N  
HETATM    3  C   UNL     2      -9.592  16.944  68.575  1.00  0.00    -0.262 C  
HETATM    4  N   UNL     2     -10.454  15.730  67.955  1.00  0.00    -0.263 NA 
HETATM    5  C   UNL     1     -10.554  14.853  69.839  1.00  0.00    -0.129 A  
HETATM    6  O   UNL     1      -7.655  15.007  66.704  1.00  0.00     0.088 OA 
HETATM    7  C   UNL     1     -11.931  14.634  68.946  1.00  0.00    -0.274 A  
HETATM    8  C   UNL     2     -11.302  16.690  66.964  1.00  0.00     0.464 C  
HETATM    9  C   UNL     1     -10.148  14.278  64.921  1.00  0.00    -0.232 C  
HETATM   10  N   UNL     1     -12.992  14.646  69.796  1.00  0.00    -0.464 NA 
HETATM   11  C   UNL     1     -11.892  14.446  67.087  1.00  0.00    -0.410 C  
HETATM   12  H   UNL     1     -13.975  14.494  69.575  1.00  0.00     0.000 HD 
HETATM   13  O   UNL     1     -12.905  14.191  66.432  1.00  0.00    -0.240 OA 
HETATM   14  N   UNL     1     -10.276  14.555  66.325  1.00  0.00    -0.286 N  
HETATM   15  C   UNL     1     -12.453  14.901  70.974  1.00  0.00    -0.330 A  
HETATM   16  C   UNL     1      -8.771  14.903  67.187  1.00  0.00    -0.219 C  
HETATM   17 CL   UNL     1     -13.348  15.155  72.404  1.00  0.00    -0.467 Cl 
HETATM   18  N   UNL     1     -11.078  15.007  71.084  1.00  0.00    -0.222 NA 
ENDROOT
BRANCH   4  19
HETATM   19  C   UNL     2     -10.208  13.667  68.095  1.00  0.00    -0.247 C  
BRANCH  19  20
HETATM   20  C   UNL     2     -11.051  12.286  67.423  1.00  0.00    -0.282 C  
BRANCH  20  21
HETATM   21  O   UNL     2     -10.128  11.281  66.979  1.00  0.00    -0.197 OA 
BRANCH  21  22
HETATM   22  C   UNL     2      -9.574  10.530  68.105  1.00  0.00    -0.154 C  
BRANCH  22  23
HETATM   23  C   UNL     2     -10.281   9.176  68.258  1.00  0.00    -0.242 A  
HETATM   24  C   UNL     2     -10.393   8.330  67.134  1.00  0.00    -0.387 A  
HETATM   25  C   UNL     2     -10.604   8.634  69.513  1.00  0.00    -0.218 A  
HETATM   26  C   UNL     2     -10.722   6.977  67.280  1.00  0.00    -0.412 A  
HETATM   27  C   UNL     2     -10.981   6.453  68.542  1.00  0.00    -0.396 A  
HETATM   28  C   UNL     2     -10.951   7.287  69.653  1.00  0.00    -0.204 A  
ENDBRANCH  22  23
BRANCH  22  29
HETATM   29  C   UNL     2      -8.065  10.529  67.917  1.00  0.00    -0.107 A  
HETATM   30  C   UNL     2      -5.317  10.339  67.311  1.00  0.00    -0.041 A  
HETATM   31  C   UNL     2      -5.882   9.489  68.255  1.00  0.00    -0.040 A  
HETATM   32  C   UNL     2      -7.466  11.406  66.996  1.00  0.00    -0.147 A  
HETATM   33  C   UNL     2      -7.246   9.573  68.539  1.00  0.00    -0.071 A  
HETATM   34  C   UNL     2      -6.106  11.299  66.684  1.00  0.00    -0.143 A  
ENDBRANCH  22  29
ENDBRANCH  21  22
ENDBRANCH  20  21
ENDBRANCH  19  20
ENDBRANCH   4  19
TORSDOF 6
ENDMDL
MODEL      120
REMARK 921   NORMALIZED FREE ENERGY PREDICTED BY IDOCK:   -4.34 KCAL/MOL
REMARK 922        TOTAL FREE ENERGY PREDICTED BY IDOCK:   -4.25 KCAL/MOL
REMARK 923 INTER-LIGAND FREE ENERGY PREDICTED BY IDOCK:   -8.02 KCAL/MOL
REMARK 924 INTRA-LIGAND FREE ENERGY PREDICTED BY IDOCK:    3.77 KCAL/MOL
REMARK 927      BINDING AFFINITY PREDICTED BY RF-SCORE:    0.00 PKD
ROOT
HETATM    1  C   UNL     1      -9.246  11.404  68.372  1.00  0.00    -0.183 C  
HETATM    2  N   UNL     1     -10.023  12.247  67.457  1.00  0.00    -0.197 N  
HETATM    3  C   UNL     2      -8.672  12.647  65.693  1.00  0.00     0.917 C  
HETATM    4  N   UNL     2     -10.190  13.183  65.592  1.00  0.00    -0.285 NA 
HETATM    5  C   UNL     1     -10.003  14.038  67.479  1.00  0.00    -0.236 A  
HETATM    6  O   UNL     1     -10.800  10.117  65.980  1.00  0.00     0.020 OA 
HETATM    7  C   UNL     1     -10.939  14.935  66.448  1.00  0.00    -0.336 A  
HETATM    8  C   UNL     2     -10.071  13.557  64.020  1.00  0.00     0.703 C  
HETATM    9  C   UNL     1     -12.856  11.674  64.169  1.00  0.00     0.227 C  
HETATM   10  N   UNL     1     -10.738  16.249  66.732  1.00  0.00    -0.257 NA 
HETATM   11  C   UNL     1     -12.017  14.146  65.142  1.00  0.00    -0.388 C  
HETATM   12  H   UNL     1     -11.194  17.059  66.313  1.00  0.00     0.000 HD 
HETATM   13  O   UNL     1     -12.783  14.807  64.437  1.00  0.00    -0.604 OA 
HETATM   14  N   UNL     1     -11.949  12.360  65.048  1.00  0.00    -0.404 N  
HETATM   15  C   UNL     1      -9.816  16.234  67.677  1.00  0.00    -0.238 A  
HETATM   16  C   UNL     1     -10.894  11.333  66.027  1.00  0.00    -0.213 C  
HETATM   17 CL   UNL     1      -9.086  17.632  68.328  1.00  0.00    -0.269 Cl 
HETATM   18  N   UNL     1      -9.367  15.022  68.169  1.00  0.00    -0.184 NA 
ENDROOT
BRANCH   4  19
HETATM   19  C   UNL     2     -11.792  13.015  66.912  1.00  0.00    -0.380 C  
BRANCH  19  20
HETATM   20  C   UNL     2     -12.151  13.685  68.490  1.00  0.00    -0.286 C  
BRANCH  20  21
HETATM   21  O   UNL     2     -11.669  12.832  69.538  1.00  0.00    -0.300 OA 
BRANCH  21  22
HETATM   22  C   UNL     2     -12.726  12.512  70.496  1.00  0.00     0.018 C  
BRANCH  22  23
HETATM   23  C   UNL     2     -12.486  11.136  71.134  1.00  0.00    -0.498 A  
HETATM   24  C   UNL     2     -13.489  10.578  71.954  1.00  0.00    -0.358 A  
HETATM   25  C   UNL     2     -11.426  10.302  70.746  1.00  0.00    -0.438 A  
HETATM   26  C   UNL     2     -13.473   9.218  72.289  1.00  0.00    -0.548 A  
HETATM   27  C   UNL     2     -12.440   8.400  71.842  1.00  0.00    -0.390 A  
HETATM   28  C   UNL     2     -11.402   8.948  71.096  1.00  0.00    -0.357 A  
ENDBRANCH  22  23
BRANCH  22  29
HETATM   29  C   UNL     2     -12.846  13.715  71.419  1.00  0.00    -0.442 A  
HETATM   30  C   UNL     2     -13.126  16.120  72.864  1.00  0.00    -0.434 A  
HETATM   31  C   UNL     2     -11.861  15.666  72.507  1.00  0.00    -0.583 A  
HETATM   32  C   UNL     2     -14.113  14.170  71.825  1.00  0.00    -0.501 A  
HETATM   33  C   UNL     2     -11.727  14.485  71.775  1.00  0.00    -0.092 A  
HETATM   34  C   UNL     2     -14.251  15.373  72.527  1.00  0.00    -0.500 A  
ENDBRANCH  22  29
ENDBRANCH  21  22
ENDBRANCH  20  21
ENDBRANCH  19  20
ENDBRANCH   4  19
TORSDOF 6
ENDMDL
MODEL      121
REMARK 921   NORMALIZED FREE ENERGY PREDICTED BY IDOCK:   -4.31 KCAL/MOL
REMARK 922        TOTAL FREE ENERGY PREDICTED BY IDOCK:   -4.20 KCAL/MOL
REMARK 923 INTER-LIGAND FREE ENERGY PREDICTED BY IDOCK:   -6.55 KCAL/MOL
REMARK 924 INTRA-LIGAND FREE ENERGY PREDICTED BY IDOCK:    2.35 KCAL/MOL
REMARK 927      BINDING AFFINITY PREDICTED BY RF-SCORE:    0.00 PKD
ROOT
HETATM    1  C   UNL     1      -7.144  13.867  67.358  1.00  0.00    -0.070 C  
HETATM    2  N   UNL     1      -8.432  13.212  67.612  1.00  0.00    -0.180 N  
HETATM    3  C   UNL     2      -9.847  14.015  66.046  1.00  0.00    -0.297 C  
HETATM    4  N   UNL     2     -10.402  12.843  67.004  1.00  0.00    -0.241 NA 
HETATM    5  C   UNL     1      -9.713  13.887  68.665  1.00  0.00    -0.160 A  
HETATM    6  O   UNL     1      -7.954  11.307  65.751  1.00  0.00    -0.018 OA 
HETATM    7  C   UNL     1     -11.130  13.078  68.948  1.00  0.00    -0.262 A  
HETATM    8  C   UNL     2     -11.744  12.608  66.128  1.00  0.00    -0.406 C  
HETATM    9  C   UNL     1     -10.455   9.515  66.429  1.00  0.00    -0.098 C  
HETATM   10  N   UNL     1     -11.874  13.819  69.812  1.00  0.00    -0.313 NA 
HETATM   11  C   UNL     1     -11.524  11.446  68.127  1.00  0.00    -0.305 C  
HETATM   12  H   UNL     1     -12.777  13.585  70.222  1.00  0.00     0.000 HD 
HETATM   13  O   UNL     1     -12.535  10.799  68.407  1.00  0.00    -0.179 OA 
HETATM   14  N   UNL     1     -10.291  10.829  66.987  1.00  0.00    -0.217 N  
HETATM   15  C   UNL     1     -11.156  14.911  69.996  1.00  0.00    -0.232 A  
HETATM   16  C   UNL     1      -8.808  11.681  66.538  1.00  0.00    -0.188 C  
HETATM   17 CL   UNL     1     -11.674  16.259  70.904  1.00  0.00    -0.353 Cl 
HETATM   18  N   UNL     1      -9.911  15.014  69.401  1.00  0.00    -0.210 NA 
ENDROOT
BRANCH   4  19
HETATM   19  C   UNL     2      -9.476  11.768  68.530  1.00  0.00    -0.163 C  
BRANCH  19  20
HETATM   20  C   UNL     2     -10.014  10.553  69.670  1.00  0.00    -0.112 C  
BRANCH  20  21
HETATM   21  O   UNL     2      -8.916   9.758  70.139  1.00  0.00    -0.226 OA 
BRANCH  21  22
HETATM   22  C   UNL     2      -9.142   8.335  69.892  1.00  0.00    -0.147 C  
BRANCH  22  23
HETATM   23  C   UNL     2      -7.980   7.728  69.093  1.00  0.00    -0.119 A  
HETATM   24  C   UNL     2      -7.649   6.370  69.290  1.00  0.00    -0.099 A  
HETATM   25  C   UNL     2      -7.390   8.388  68.003  1.00  0.00    -0.096 A  
HETATM   26  C   UNL     2      -6.837   5.686  68.377  1.00  0.00    -0.063 A  
HETATM   27  C   UNL     2      -6.313   6.351  67.273  1.00  0.00    -0.037 A  
HETATM   28  C   UNL     2      -6.565   7.707  67.103  1.00  0.00    -0.063 A  
ENDBRANCH  22  23
BRANCH  22  29
HETATM   29  C   UNL     2      -9.483   7.715  71.238  1.00  0.00    -0.166 A  
HETATM   30  C   UNL     2     -10.347   6.789  73.758  1.00  0.00    -0.397 A  
HETATM   31  C   UNL     2      -9.269   7.662  73.669  1.00  0.00    -0.339 A  
HETATM   32  C   UNL     2     -10.545   6.800  71.346  1.00  0.00    -0.247 A  
HETATM   33  C   UNL     2      -8.855   8.134  72.422  1.00  0.00    -0.260 A  
HETATM   34  C   UNL     2     -10.984   6.355  72.598  1.00  0.00    -0.284 A  
ENDBRANCH  22  29
ENDBRANCH  21  22
ENDBRANCH  20  21
ENDBRANCH  19  20
ENDBRANCH   4  19
TORSDOF 6
ENDMDL
MODEL      122
REMARK 921   NORMALIZED FREE ENERGY PREDICTED BY IDOCK:   -4.27 KCAL/MOL
REMARK 922        TOTAL FREE ENERGY PREDICTED BY IDOCK:   -4.15 KCAL/MOL
REMARK 923 INTER-LIGAND FREE ENERGY PREDICTED BY IDOCK:   -6.40 KCAL/MOL
REMARK 924 INTRA-LIGAND FREE ENERGY PREDICTED BY IDOCK:    2.25 KCAL/MOL
REMARK 927      BINDING AFFINITY PREDICTED BY RF-SCORE:    0.00 PKD
ROOT
HETATM    1  C   UNL     1      -6.596   7.825  68.364  1.00  0.00    -0.054 C  
HETATM    2  N   UNL     1      -7.960   7.593  68.853  1.00  0.00    -0.123 N  
HETATM    3  C   UNL     2      -7.907   5.591  69.893  1.00  0.00    -0.082 C  
HETATM    4  N   UNL     2      -9.282   6.429  69.986  1.00  0.00    -0.156 NA 
HETATM    5  C   UNL     1      -9.226   6.727  67.928  1.00  0.00    -0.112 A  
HETATM    6  O   UNL     1      -7.355   8.537  71.316  1.00  0.00    -0.074 OA 
HETATM    7  C   UNL     1     -10.762   6.537  68.516  1.00  0.00    -0.273 A  
HETATM    8  C   UNL     2      -9.934   5.453  71.102  1.00  0.00    -0.196 C  
HETATM    9  C   UNL     1     -10.301   8.522  72.434  1.00  0.00    -0.302 C  
HETATM   10  N   UNL     1     -11.495   5.882  67.576  1.00  0.00    -0.060 NA 
HETATM   11  C   UNL     1     -11.260   7.140  70.213  1.00  0.00    -0.276 C  
HETATM   12  H   UNL     1     -12.487   5.647  67.605  1.00  0.00     0.000 HD 
HETATM   13  O   UNL     1     -12.425   7.082  70.614  1.00  0.00    -0.295 OA 
HETATM   14  N   UNL     1      -9.963   7.905  71.180  1.00  0.00    -0.173 N  
HETATM   15  C   UNL     1     -10.626   5.620  66.619  1.00  0.00    -0.295 A  
HETATM   16  C   UNL     1      -8.273   8.044  70.679  1.00  0.00    -0.114 C  
HETATM   17 CL   UNL     1     -10.976   4.692  65.230  1.00  0.00    -0.155 Cl 
HETATM   18  N   UNL     1      -9.328   6.086  66.733  1.00  0.00    -0.134 NA 
ENDROOT
BRANCH   4  19
HETATM   19  C   UNL     2      -9.789   8.310  69.248  1.00  0.00    -0.186 C  
BRANCH  19  20
HETATM   20  C   UNL     2     -10.013   8.975  67.643  1.00  0.00    -0.201 C  
BRANCH  20  21
HETATM   21  O   UNL     2     -10.428  10.347  67.703  1.00  0.00    -0.200 OA 
BRANCH  21  22
HETATM   22  C   UNL     2      -9.775  11.148  66.670  1.00  0.00    -0.196 C  
BRANCH  22  23
HETATM   23  C   UNL     2     -10.634  12.365  66.298  1.00  0.00    -0.277 A  
HETATM   24  C   UNL     2     -10.001  13.527  65.808  1.00  0.00    -0.266 A  
HETATM   25  C   UNL     2     -12.032  12.294  66.192  1.00  0.00    -0.323 A  
HETATM   26  C   UNL     2     -10.732  14.527  65.155  1.00  0.00    -0.422 A  
HETATM   27  C   UNL     2     -12.111  14.403  65.012  1.00  0.00    -0.417 A  
HETATM   28  C   UNL     2     -12.763  13.302  65.556  1.00  0.00    -0.429 A  
ENDBRANCH  22  23
BRANCH  22  29
HETATM   29  C   UNL     2      -8.355  11.399  67.156  1.00  0.00    -0.155 A  
HETATM   30  C   UNL     2      -5.708  11.547  68.116  1.00  0.00    -0.046 A  
HETATM   31  C   UNL     2      -6.773  11.829  68.964  1.00  0.00    -0.102 A  
HETATM   32  C   UNL     2      -7.263  11.158  66.304  1.00  0.00    -0.048 A  
HETATM   33  C   UNL     2      -8.083  11.737  68.491  1.00  0.00    -0.140 A  
HETATM   34  C   UNL     2      -5.951  11.215  66.786  1.00  0.00    -0.116 A  
ENDBRANCH  22  29
ENDBRANCH  21  22
ENDBRANCH  20  21
ENDBRANCH  19  20
ENDBRANCH   4  19
TORSDOF 6
ENDMDL
MODEL      123
REMARK 921   NORMALIZED FREE ENERGY PREDICTED BY IDOCK:   -4.24 KCAL/MOL
REMARK 922        TOTAL FREE ENERGY PREDICTED BY IDOCK:   -4.11 KCAL/MOL
REMARK 923 INTER-LIGAND FREE ENERGY PREDICTED BY IDOCK:   -6.46 KCAL/MOL
REMARK 924 INTRA-LIGAND FREE ENERGY PREDICTED BY IDOCK:    2.35 KCAL/MOL
REMARK 927      BINDING AFFINITY PREDICTED BY RF-SCORE:    0.00 PKD
ROOT
HETATM    1  C   UNL     1      -7.378  12.937  68.083  1.00  0.00    -0.119 C  
HETATM    2  N   UNL     1      -8.223  11.772  67.798  1.00  0.00    -0.136 N  
HETATM    3  C   UNL     2      -9.644  12.427  66.171  1.00  0.00    -0.233 C  
HETATM    4  N   UNL     2      -9.691  10.875  66.604  1.00  0.00    -0.185 NA 
HETATM    5  C   UNL     1      -9.790  11.445  68.601  1.00  0.00    -0.193 A  
HETATM    6  O   UNL     1      -6.674  11.023  65.710  1.00  0.00    -0.048 OA 
HETATM    7  C   UNL     1     -10.677  10.087  68.268  1.00  0.00    -0.240 A  
HETATM    8  C   UNL     2     -10.642  10.442  65.366  1.00  0.00    -0.009 C  
HETATM    9  C   UNL     1      -8.090   8.256  65.193  1.00  0.00    -0.142 C  
HETATM   10  N   UNL     1     -11.783  10.101  69.058  1.00  0.00    -0.501 NA 
HETATM   11  C   UNL     1     -10.146   8.844  66.978  1.00  0.00    -0.261 C  
HETATM   12  H   UNL     1     -12.511   9.391  69.133  1.00  0.00     0.000 HD 
HETATM   13  O   UNL     1     -10.756   7.788  66.794  1.00  0.00    -0.311 OA 
HETATM   14  N   UNL     1      -8.638   9.231  66.096  1.00  0.00    -0.130 N  
HETATM   15  C   UNL     1     -11.697  11.247  69.707  1.00  0.00    -0.349 A  
HETATM   16  C   UNL     1      -7.693  10.711  66.305  1.00  0.00    -0.143 C  
HETATM   17 CL   UNL     1     -12.900  11.849  70.757  1.00  0.00    -0.210 Cl 
HETATM   18  N   UNL     1     -10.587  12.052  69.521  1.00  0.00     0.162 NA 
ENDROOT
BRANCH   4  19
HETATM   19  C   UNL     2      -8.562   9.806  67.991  1.00  0.00    -0.122 C  
BRANCH  19  20
HETATM   20  C   UNL     2      -8.935   8.960  69.478  1.00  0.00    -0.145 C  
BRANCH  20  21
HETATM   21  O   UNL     2      -8.258   7.697  69.540  1.00  0.00    -0.125 OA 
BRANCH  21  22
HETATM   22  C   UNL     2      -8.955   6.759  70.420  1.00  0.00    -0.152 C  
BRANCH  22  23
HETATM   23  C   UNL     2     -10.315   7.327  70.853  1.00  0.00    -0.210 A  
HETATM   24  C   UNL     2     -11.492   6.791  70.288  1.00  0.00    -0.414 A  
HETATM   25  C   UNL     2     -10.456   8.179  71.960  1.00  0.00    -0.329 A  
HETATM   26  C   UNL     2     -12.743   7.028  70.869  1.00  0.00    -0.226 A  
HETATM   27  C   UNL     2     -12.848   7.830  72.002  1.00  0.00    -0.265 A  
HETATM   28  C   UNL     2     -11.709   8.428  72.529  1.00  0.00    -0.429 A  
ENDBRANCH  22  23
BRANCH  22  29
HETATM   29  C   UNL     2      -8.937   5.413  69.712  1.00  0.00    -0.146 A  
HETATM   30  C   UNL     2      -9.200   2.991  68.292  1.00  0.00    -0.244 A  
HETATM   31  C   UNL     2      -9.496   3.038  69.649  1.00  0.00    -0.177 A  
HETATM   32  C   UNL     2      -8.603   5.336  68.349  1.00  0.00    -0.095 A  
HETATM   33  C   UNL     2      -9.383   4.242  70.346  1.00  0.00    -0.219 A  
HETATM   34  C   UNL     2      -8.751   4.137  67.642  1.00  0.00    -0.119 A  
ENDBRANCH  22  29
ENDBRANCH  21  22
ENDBRANCH  20  21
ENDBRANCH  19  20
ENDBRANCH   4  19
TORSDOF 6
ENDMDL
MODEL      124
REMARK 921   NORMALIZED FREE ENERGY PREDICTED BY IDOCK:   -4.24 KCAL/MOL
REMARK 922        TOTAL FREE ENERGY PREDICTED BY IDOCK:   -4.11 KCAL/MOL
REMARK 923 INTER-LIGAND FREE ENERGY PREDICTED BY IDOCK:   -5.75 KCAL/MOL
REMARK 924 INTRA-LIGAND FREE ENERGY PREDICTED BY IDOCK:    1.63 KCAL/MOL
REMARK 927      BINDING AFFINITY PREDICTED BY RF-SCORE:    0.00 PKD
ROOT
HETATM    1  C   UNL     1     -10.867  17.560  70.021  1.00  0.00     0.949 C  
HETATM    2  N   UNL     1      -9.974  17.653  68.860  1.00  0.00    -0.340 N  
HETATM    3  C   UNL     2     -10.849  19.261  67.540  1.00  0.00    -0.415 C  
HETATM    4  N   UNL     2      -9.427  18.642  67.098  1.00  0.00    -0.290 NA 
HETATM    5  C   UNL     1     -10.196  16.726  67.344  1.00  0.00    -0.288 A  
HETATM    6  O   UNL     1      -8.606  19.722  69.941  1.00  0.00     0.396 OA 
HETATM    7  C   UNL     1      -9.127  16.840  66.084  1.00  0.00    -0.253 A  
HETATM    8  C   UNL     2      -9.168  19.761  65.955  1.00  0.00    -0.275 C  
HETATM    9  C   UNL     1      -6.330  19.817  67.763  1.00  0.00    -0.211 C  
HETATM   10  N   UNL     1      -9.540  15.994  65.103  1.00  0.00    -0.169 NA 
HETATM   11  C   UNL     1      -7.663  18.000  66.125  1.00  0.00    -0.231 C  
HETATM   12  H   UNL     1      -9.082  15.792  64.215  1.00  0.00     0.000 HD 
HETATM   13  O   UNL     1      -6.816  18.019  65.229  1.00  0.00    -0.420 OA 
HETATM   14  N   UNL     1      -7.507  19.008  67.595  1.00  0.00    -0.228 N  
HETATM   15  C   UNL     1     -10.670  15.495  65.567  1.00  0.00    -0.381 A  
HETATM   16  C   UNL     1      -8.663  19.035  68.933  1.00  0.00    -0.253 C  
HETATM   17 CL   UNL     1     -11.695  14.457  64.682  1.00  0.00    -0.419 Cl 
HETATM   18  N   UNL     1     -11.096  15.841  66.836  1.00  0.00    -0.204 NA 
ENDROOT
BRANCH   4  19
HETATM   19  C   UNL     2      -8.220  17.204  68.001  1.00  0.00    -0.216 C  
BRANCH  19  20
HETATM   20  C   UNL     2      -7.478  15.714  67.456  1.00  0.00    -0.179 C  
BRANCH  20  21
HETATM   21  O   UNL     2      -7.814  14.621  68.322  1.00  0.00    -0.115 OA 
BRANCH  21  22
HETATM   22  C   UNL     2      -7.577  13.332  67.673  1.00  0.00    -0.170 C  
BRANCH  22  23
HETATM   23  C   UNL     2      -6.637  12.460  68.517  1.00  0.00    -0.073 A  
HETATM   24  C   UNL     2      -5.925  13.054  69.582  1.00  0.00    -0.118 A  
HETATM   25  C   UNL     2      -6.637  11.059  68.439  1.00  0.00    -0.058 A  
HETATM   26  C   UNL     2      -5.322  12.269  70.572  1.00  0.00    -0.145 A  
HETATM   27  C   UNL     2      -5.388  10.880  70.500  1.00  0.00    -0.092 A  
HETATM   28  C   UNL     2      -6.019  10.277  69.419  1.00  0.00    -0.038 A  
ENDBRANCH  22  23
BRANCH  22  29
HETATM   29  C   UNL     2      -8.946  12.771  67.322  1.00  0.00    -0.199 A  
HETATM   30  C   UNL     2     -11.397  11.463  66.834  1.00  0.00    -0.284 A  
HETATM   31  C   UNL     2     -10.387  11.429  65.879  1.00  0.00    -0.299 A  
HETATM   32  C   UNL     2      -9.995  12.829  68.257  1.00  0.00    -0.230 A  
HETATM   33  C   UNL     2      -9.168  12.061  66.131  1.00  0.00    -0.181 A  
HETATM   34  C   UNL     2     -11.204  12.165  68.020  1.00  0.00    -0.319 A  
ENDBRANCH  22  29
ENDBRANCH  21  22
ENDBRANCH  20  21
ENDBRANCH  19  20
ENDBRANCH   4  19
TORSDOF 6
ENDMDL
MODEL      125
REMARK 921   NORMALIZED FREE ENERGY PREDICTED BY IDOCK:   -4.24 KCAL/MOL
REMARK 922        TOTAL FREE ENERGY PREDICTED BY IDOCK:   -4.11 KCAL/MOL
REMARK 923 INTER-LIGAND FREE ENERGY PREDICTED BY IDOCK:   -7.84 KCAL/MOL
REMARK 924 INTRA-LIGAND FREE ENERGY PREDICTED BY IDOCK:    3.73 KCAL/MOL
REMARK 927      BINDING AFFINITY PREDICTED BY RF-SCORE:    0.00 PKD
ROOT
HETATM    1  C   UNL     1     -11.839  14.947  68.207  1.00  0.00    -0.278 C  
HETATM    2  N   UNL     1     -10.503  15.382  67.786  1.00  0.00    -0.260 N  
HETATM    3  C   UNL     2      -9.669  16.565  69.519  1.00  0.00    -0.041 C  
HETATM    4  N   UNL     2      -8.681  16.292  68.274  1.00  0.00    -0.185 NA 
HETATM    5  C   UNL     1     -10.165  16.939  66.968  1.00  0.00    -0.297 A  
HETATM    6  O   UNL     1      -9.310  13.302  69.038  1.00  0.00     0.171 OA 
HETATM    7  C   UNL     1      -8.640  17.356  66.476  1.00  0.00    -0.261 A  
HETATM    8  C   UNL     2      -7.366  16.826  69.055  1.00  0.00    -0.231 C  
HETATM    9  C   UNL     1      -6.418  13.813  67.896  1.00  0.00    -0.161 C  
HETATM   10  N   UNL     1      -8.711  18.564  65.857  1.00  0.00    -0.451 NA 
HETATM   11  C   UNL     1      -7.156  16.269  66.810  1.00  0.00    -0.165 C  
HETATM   12  H   UNL     1      -7.959  19.081  65.401  1.00  0.00     0.000 HD 
HETATM   13  O   UNL     1      -6.037  16.533  66.364  1.00  0.00    -0.236 OA 
HETATM   14  N   UNL     1      -7.479  14.768  67.727  1.00  0.00    -0.146 N  
HETATM   15  C   UNL     1      -9.977  18.912  65.982  1.00  0.00    -0.271 A  
HETATM   16  C   UNL     1      -9.052  14.303  68.390  1.00  0.00    -0.194 C  
HETATM   17 CL   UNL     1     -10.612  20.418  65.490  1.00  0.00    -0.177 Cl 
HETATM   18  N   UNL     1     -10.868  18.037  66.578  1.00  0.00    -0.099 NA 
ENDROOT
BRANCH   4  19
HETATM   19  C   UNL     2      -8.969  15.230  66.505  1.00  0.00    -0.305 C  
BRANCH  19  20
HETATM   20  C   UNL     2     -10.084  13.978  65.999  1.00  0.00    -0.315 C  
BRANCH  20  21
HETATM   21  O   UNL     2      -9.503  12.674  66.150  1.00  0.00    -0.239 OA 
BRANCH  21  22
HETATM   22  C   UNL     2     -10.463  11.621  65.823  1.00  0.00    -0.263 C  
BRANCH  22  23
HETATM   23  C   UNL     2      -9.926  10.724  64.698  1.00  0.00    -0.386 A  
HETATM   24  C   UNL     2     -10.007  11.177  63.364  1.00  0.00    -0.430 A  
HETATM   25  C   UNL     2      -9.140   9.588  64.952  1.00  0.00    -0.276 A  
HETATM   26  C   UNL     2      -9.256  10.570  62.350  1.00  0.00    -0.302 A  
HETATM   27  C   UNL     2      -8.439   9.482  62.641  1.00  0.00    -0.190 A  
HETATM   28  C   UNL     2      -8.405   8.973  63.934  1.00  0.00    -0.178 A  
ENDBRANCH  22  23
BRANCH  22  29
HETATM   29  C   UNL     2     -10.842  10.962  67.141  1.00  0.00    -0.337 A  
HETATM   30  C   UNL     2     -11.369   9.972  69.728  1.00  0.00    -0.281 A  
HETATM   31  C   UNL     2     -10.341   9.424  68.969  1.00  0.00    -0.224 A  
HETATM   32  C   UNL     2     -11.902  11.474  67.908  1.00  0.00    -0.255 A  
HETATM   33  C   UNL     2     -10.070   9.929  67.696  1.00  0.00    -0.241 A  
HETATM   34  C   UNL     2     -12.151  10.993  69.198  1.00  0.00    -0.333 A  
ENDBRANCH  22  29
ENDBRANCH  21  22
ENDBRANCH  20  21
ENDBRANCH  19  20
ENDBRANCH   4  19
TORSDOF 6
ENDMDL
MODEL      126
REMARK 921   NORMALIZED FREE ENERGY PREDICTED BY IDOCK:   -4.23 KCAL/MOL
REMARK 922        TOTAL FREE ENERGY PREDICTED BY IDOCK:   -4.10 KCAL/MOL
REMARK 923 INTER-LIGAND FREE ENERGY PREDICTED BY IDOCK:   -7.19 KCAL/MOL
REMARK 924 INTRA-LIGAND FREE ENERGY PREDICTED BY IDOCK:    3.09 KCAL/MOL
REMARK 927      BINDING AFFINITY PREDICTED BY RF-SCORE:    0.00 PKD
ROOT
HETATM    1  C   UNL     1      -8.121  11.578  68.781  1.00  0.00    -0.093 C  
HETATM    2  N   UNL     1      -8.137  10.557  67.727  1.00  0.00    -0.106 N  
HETATM    3  C   UNL     2      -6.432  11.081  66.342  1.00  0.00    -0.127 C  
HETATM    4  N   UNL     2      -7.219   9.704  66.049  1.00  0.00    -0.096 NA 
HETATM    5  C   UNL     1      -9.028  10.721  66.182  1.00  0.00    -0.177 A  
HETATM    6  O   UNL     1      -6.250   9.078  68.980  1.00  0.00    -0.043 OA 
HETATM    7  C   UNL     1      -9.043   9.514  65.049  1.00  0.00    -0.228 A  
HETATM    8  C   UNL     2      -6.139   9.187  64.958  1.00  0.00    -0.064 C  
HETATM    9  C   UNL     1      -6.429   6.581  67.067  1.00  0.00    -0.043 C  
HETATM   10  N   UNL     1      -9.832   9.914  64.016  1.00  0.00    -0.467 NA 
HETATM   11  C   UNL     1      -8.070   7.934  65.267  1.00  0.00    -0.135 C  
HETATM   12  H   UNL     1     -10.087   9.388  63.181  1.00  0.00     0.000 HD 
HETATM   13  O   UNL     1      -8.153   6.997  64.469  1.00  0.00    -0.128 OA 
HETATM   14  N   UNL     1      -7.089   7.820  66.759  1.00  0.00    -0.078 N  
HETATM   15  C   UNL     1     -10.191  11.140  64.346  1.00  0.00    -0.330 A  
HETATM   16  C   UNL     1      -6.923   9.105  67.963  1.00  0.00    -0.077 C  
HETATM   17 CL   UNL     1     -11.095  12.179  63.339  1.00  0.00    -0.500 Cl 
HETATM   18  N   UNL     1      -9.796  11.659  65.566  1.00  0.00    -0.229 NA 
ENDROOT
BRANCH   4  19
HETATM   19  C   UNL     2      -8.794   8.786  67.058  1.00  0.00    -0.127 C  
BRANCH  19  20
HETATM   20  C   UNL     2      -9.006   8.157  68.679  1.00  0.00    -0.137 C  
BRANCH  20  21
HETATM   21  O   UNL     2     -10.323   8.437  69.175  1.00  0.00    -0.215 OA 
BRANCH  21  22
HETATM   22  C   UNL     2     -10.992   7.219  69.630  1.00  0.00    -0.186 C  
BRANCH  22  23
HETATM   23  C   UNL     2     -10.718   6.054  68.668  1.00  0.00    -0.363 A  
HETATM   24  C   UNL     2     -11.116   6.172  67.319  1.00  0.00    -0.334 A  
HETATM   25  C   UNL     2      -9.875   4.983  69.005  1.00  0.00    -0.252 A  
HETATM   26  C   UNL     2     -10.612   5.307  66.340  1.00  0.00    -0.338 A  
HETATM   27  C   UNL     2      -9.732   4.289  66.693  1.00  0.00    -0.239 A  
HETATM   28  C   UNL     2      -9.387   4.109  68.028  1.00  0.00    -0.213 A  
ENDBRANCH  22  23
BRANCH  22  29
HETATM   29  C   UNL     2     -10.610   7.041  71.092  1.00  0.00    -0.237 A  
HETATM   30  C   UNL     2     -10.197   6.825  73.873  1.00  0.00    -0.396 A  
HETATM   31  C   UNL     2      -9.734   7.941  73.185  1.00  0.00    -0.353 A  
HETATM   32  C   UNL     2     -11.034   5.902  71.799  1.00  0.00    -0.327 A  
HETATM   33  C   UNL     2      -9.957   8.054  71.812  1.00  0.00    -0.245 A  
HETATM   34  C   UNL     2     -10.843   5.804  73.182  1.00  0.00    -0.310 A  
ENDBRANCH  22  29
ENDBRANCH  21  22
ENDBRANCH  20  21
ENDBRANCH  19  20
ENDBRANCH   4  19
TORSDOF 6
ENDMDL
MODEL      127
REMARK 921   NORMALIZED FREE ENERGY PREDICTED BY IDOCK:   -4.21 KCAL/MOL
REMARK 922        TOTAL FREE ENERGY PREDICTED BY IDOCK:   -4.08 KCAL/MOL
REMARK 923 INTER-LIGAND FREE ENERGY PREDICTED BY IDOCK:   -7.60 KCAL/MOL
REMARK 924 INTRA-LIGAND FREE ENERGY PREDICTED BY IDOCK:    3.52 KCAL/MOL
REMARK 927      BINDING AFFINITY PREDICTED BY RF-SCORE:    0.00 PKD
ROOT
HETATM    1  C   UNL     1     -10.609   8.613  66.917  1.00  0.00    -0.200 C  
HETATM    2  N   UNL     1      -9.615   9.385  67.672  1.00  0.00    -0.132 N  
HETATM    3  C   UNL     2      -7.608   8.523  67.103  1.00  0.00    -0.096 C  
HETATM    4  N   UNL     2      -7.604   9.831  68.047  1.00  0.00    -0.082 NA 
HETATM    5  C   UNL     1      -9.003   8.924  69.291  1.00  0.00    -0.144 A  
HETATM    6  O   UNL     1      -9.148  11.036  65.580  1.00  0.00    -0.198 OA 
HETATM    7  C   UNL     1      -7.913   9.862  70.113  1.00  0.00    -0.162 A  
HETATM    8  C   UNL     2      -6.007  10.067  67.904  1.00  0.00    -0.038 C  
HETATM    9  C   UNL     1      -7.315  13.071  67.139  1.00  0.00     0.044 C  
HETATM   10  N   UNL     1      -7.676   9.276  71.317  1.00  0.00    -0.338 NA 
HETATM   11  C   UNL     1      -7.188  11.419  69.378  1.00  0.00    -0.030 C  
HETATM   12  H   UNL     1      -7.090   9.619  72.077  1.00  0.00     0.000 HD 
HETATM   13  O   UNL     1      -6.448  12.166  70.023  1.00  0.00    -0.088 OA 
HETATM   14  N   UNL     1      -7.715  11.817  67.715  1.00  0.00    -0.124 N  
HETATM   15  C   UNL     1      -8.380   8.161  71.273  1.00  0.00    -0.121 A  
HETATM   16  C   UNL     1      -8.782  10.814  66.723  1.00  0.00    -0.143 C  
HETATM   17 CL   UNL     1      -8.354   6.961  72.485  1.00  0.00    -0.112 Cl 
HETATM   18  N   UNL     1      -9.175   7.902  70.171  1.00  0.00    -0.153 NA 
ENDROOT
BRANCH   4  19
HETATM   19  C   UNL     2      -9.168  10.993  68.781  1.00  0.00    -0.162 C  
BRANCH  19  20
HETATM   20  C   UNL     2      -9.888  12.516  68.304  1.00  0.00    -0.227 C  
BRANCH  20  21
HETATM   21  O   UNL     2     -11.317  12.412  68.223  1.00  0.00    -0.240 OA 
BRANCH  21  22
HETATM   22  C   UNL     2     -11.959  13.712  68.414  1.00  0.00    -0.356 C  
BRANCH  22  23
HETATM   23  C   UNL     2     -12.362  13.910  69.882  1.00  0.00    -0.358 A  
HETATM   24  C   UNL     2     -12.817  15.179  70.302  1.00  0.00    -0.284 A  
HETATM   25  C   UNL     2     -12.533  12.834  70.767  1.00  0.00    -0.357 A  
HETATM   26  C   UNL     2     -13.496  15.336  71.516  1.00  0.00    -0.577 A  
HETATM   27  C   UNL     2     -13.703  14.240  72.348  1.00  0.00    -0.616 A  
HETATM   28  C   UNL     2     -13.196  12.997  71.987  1.00  0.00    -0.543 A  
ENDBRANCH  22  23
BRANCH  22  29
HETATM   29  C   UNL     2     -11.036  14.743  67.782  1.00  0.00    -0.306 A  
HETATM   30  C   UNL     2      -9.124  16.408  66.548  1.00  0.00    -0.308 A  
HETATM   31  C   UNL     2      -9.139  16.271  67.931  1.00  0.00    -0.196 A  
HETATM   32  C   UNL     2     -11.031  14.927  66.388  1.00  0.00    -0.336 A  
HETATM   33  C   UNL     2     -10.074  15.431  68.538  1.00  0.00    -0.213 A  
HETATM   34  C   UNL     2     -10.071  15.740  65.776  1.00  0.00    -0.399 A  
ENDBRANCH  22  29
ENDBRANCH  21  22
ENDBRANCH  20  21
ENDBRANCH  19  20
ENDBRANCH   4  19
TORSDOF 6
ENDMDL
MODEL      128
REMARK 921   NORMALIZED FREE ENERGY PREDICTED BY IDOCK:   -4.19 KCAL/MOL
REMARK 922        TOTAL FREE ENERGY PREDICTED BY IDOCK:   -4.04 KCAL/MOL
REMARK 923 INTER-LIGAND FREE ENERGY PREDICTED BY IDOCK:   -6.44 KCAL/MOL
REMARK 924 INTRA-LIGAND FREE ENERGY PREDICTED BY IDOCK:    2.39 KCAL/MOL
REMARK 927      BINDING AFFINITY PREDICTED BY RF-SCORE:    0.00 PKD
ROOT
HETATM    1  C   UNL     1      -7.004  10.143  71.400  1.00  0.00     1.065 C  
HETATM    2  N   UNL     1      -7.928   9.278  70.658  1.00  0.00    -0.154 N  
HETATM    3  C   UNL     2      -6.962   7.238  70.620  1.00  0.00    -0.057 C  
HETATM    4  N   UNL     2      -8.450   7.357  70.009  1.00  0.00    -0.137 NA 
HETATM    5  C   UNL     1      -7.847   9.003  68.890  1.00  0.00    -0.095 A  
HETATM    6  O   UNL     1      -9.063   8.353  72.934  1.00  0.00    -0.254 OA 
HETATM    7  C   UNL     1      -8.948   8.049  68.102  1.00  0.00    -0.135 A  
HETATM    8  C   UNL     2      -8.650   5.754  69.889  1.00  0.00    -0.127 C  
HETATM    9  C   UNL     1     -11.401   6.764  71.542  1.00  0.00    -0.275 C  
HETATM   10  N   UNL     1      -8.651   8.069  66.776  1.00  0.00    -0.126 NA 
HETATM   11  C   UNL     1     -10.300   7.133  69.010  1.00  0.00    -0.199 C  
HETATM   12  H   UNL     1      -9.158   7.624  66.012  1.00  0.00     0.000 HD 
HETATM   13  O   UNL     1     -11.175   6.498  68.417  1.00  0.00    -0.283 OA 
HETATM   14  N   UNL     1     -10.309   7.319  70.790  1.00  0.00    -0.202 N  
HETATM   15  C   UNL     1      -7.553   8.799  66.706  1.00  0.00    -0.090 A  
HETATM   16  C   UNL     1      -9.106   8.220  71.721  1.00  0.00    -0.193 C  
HETATM   17 CL   UNL     1      -6.660   9.054  65.275  1.00  0.00    -0.068 Cl 
HETATM   18  N   UNL     1      -7.050   9.382  67.855  1.00  0.00    -0.080 NA 
ENDROOT
BRANCH   4  19
HETATM   19  C   UNL     2      -9.746   8.981  69.869  1.00  0.00    -0.183 C  
BRANCH  19  20
HETATM   20  C   UNL     2      -9.582  10.631  69.304  1.00  0.00    -0.144 C  
BRANCH  20  21
HETATM   21  O   UNL     2     -10.797  11.094  68.697  1.00  0.00    -0.182 OA 
BRANCH  21  22
HETATM   22  C   UNL     2     -10.727  12.521  68.383  1.00  0.00    -0.240 C  
BRANCH  22  23
HETATM   23  C   UNL     2     -11.057  12.770  66.904  1.00  0.00    -0.308 A  
HETATM   24  C   UNL     2     -10.139  12.352  65.917  1.00  0.00    -0.272 A  
HETATM   25  C   UNL     2     -12.333  13.169  66.476  1.00  0.00    -0.252 A  
HETATM   26  C   UNL     2     -10.520  12.252  64.574  1.00  0.00    -0.339 A  
HETATM   27  C   UNL     2     -11.810  12.600  64.185  1.00  0.00    -0.483 A  
HETATM   28  C   UNL     2     -12.706  13.086  65.131  1.00  0.00    -0.461 A  
ENDBRANCH  22  23
BRANCH  22  29
HETATM   29  C   UNL     2     -11.568  13.233  69.431  1.00  0.00    -0.364 A  
HETATM   30  C   UNL     2     -12.867  14.537  71.567  1.00  0.00    -0.407 A  
HETATM   31  C   UNL     2     -13.037  13.170  71.379  1.00  0.00    -0.352 A  
HETATM   32  C   UNL     2     -11.442  14.621  69.614  1.00  0.00    -0.329 A  
HETATM   33  C   UNL     2     -12.377  12.524  70.333  1.00  0.00    -0.311 A  
HETATM   34  C   UNL     2     -12.074  15.264  70.684  1.00  0.00    -0.399 A  
ENDBRANCH  22  29
ENDBRANCH  21  22
ENDBRANCH  20  21
ENDBRANCH  19  20
ENDBRANCH   4  19
TORSDOF 6
ENDMDL
MODEL      129
REMARK 921   NORMALIZED FREE ENERGY PREDICTED BY IDOCK:   -4.17 KCAL/MOL
REMARK 922        TOTAL FREE ENERGY PREDICTED BY IDOCK:   -4.01 KCAL/MOL
REMARK 923 INTER-LIGAND FREE ENERGY PREDICTED BY IDOCK:   -6.10 KCAL/MOL
REMARK 924 INTRA-LIGAND FREE ENERGY PREDICTED BY IDOCK:    2.08 KCAL/MOL
REMARK 927      BINDING AFFINITY PREDICTED BY RF-SCORE:    0.00 PKD
ROOT
HETATM    1  C   UNL     1      -6.034  10.381  69.772  1.00  0.00    -0.053 C  
HETATM    2  N   UNL     1      -7.256   9.610  69.514  1.00  0.00    -0.072 N  
HETATM    3  C   UNL     2      -6.578   7.484  69.171  1.00  0.00    -0.040 C  
HETATM    4  N   UNL     2      -8.168   7.748  69.220  1.00  0.00    -0.127 NA 
HETATM    5  C   UNL     1      -7.938   9.324  67.883  1.00  0.00    -0.100 A  
HETATM    6  O   UNL     1      -7.426   8.807  72.092  1.00  0.00    -0.291 OA 
HETATM    7  C   UNL     1      -9.346   8.482  67.659  1.00  0.00    -0.137 A  
HETATM    8  C   UNL     2      -8.542   6.172  69.262  1.00  0.00    -0.119 C  
HETATM    9  C   UNL     1     -10.261   7.454  71.855  1.00  0.00    -0.187 C  
HETATM   10  N   UNL     1      -9.623   8.470  66.328  1.00  0.00    -0.290 NA 
HETATM   11  C   UNL     1     -10.277   7.706  69.081  1.00  0.00    -0.203 C  
HETATM   12  H   UNL     1     -10.439   8.075  65.860  1.00  0.00     0.000 HD 
HETATM   13  O   UNL     1     -11.372   7.159  68.928  1.00  0.00     0.035 OA 
HETATM   14  N   UNL     1      -9.534   7.896  70.697  1.00  0.00    -0.162 N  
HETATM   15  C   UNL     1      -8.593   9.087  65.782  1.00  0.00    -0.160 A  
HETATM   16  C   UNL     1      -7.978   8.676  71.012  1.00  0.00    -0.132 C  
HETATM   17 CL   UNL     1      -8.351   9.249  64.100  1.00  0.00    -0.166 Cl 
HETATM   18  N   UNL     1      -7.610   9.620  66.596  1.00  0.00    -0.097 NA 
ENDROOT
BRANCH   4  19
HETATM   19  C   UNL     2      -9.256   9.492  69.556  1.00  0.00    -0.189 C  
BRANCH  19  20
HETATM   20  C   UNL     2     -10.592  10.277  68.739  1.00  0.00    -0.209 C  
BRANCH  20  21
HETATM   21  O   UNL     2     -10.486  11.705  68.825  1.00  0.00    -0.209 OA 
BRANCH  21  22
HETATM   22  C   UNL     2      -9.936  12.276  67.597  1.00  0.00    -0.198 C  
BRANCH  22  23
HETATM   23  C   UNL     2     -11.047  12.534  66.570  1.00  0.00    -0.330 A  
HETATM   24  C   UNL     2     -11.590  13.832  66.460  1.00  0.00    -0.386 A  
HETATM   25  C   UNL     2     -11.378  11.606  65.569  1.00  0.00    -0.224 A  
HETATM   26  C   UNL     2     -12.352  14.203  65.345  1.00  0.00    -0.475 A  
HETATM   27  C   UNL     2     -12.616  13.279  64.339  1.00  0.00    -0.282 A  
HETATM   28  C   UNL     2     -12.154  11.974  64.466  1.00  0.00    -0.340 A  
ENDBRANCH  22  23
BRANCH  22  29
HETATM   29  C   UNL     2      -9.070  13.452  68.021  1.00  0.00    -0.205 A  
HETATM   30  C   UNL     2      -7.333  15.433  69.026  1.00  0.00    -0.159 A  
HETATM   31  C   UNL     2      -8.643  15.357  69.486  1.00  0.00    -0.212 A  
HETATM   32  C   UNL     2      -7.755  13.571  67.539  1.00  0.00    -0.182 A  
HETATM   33  C   UNL     2      -9.494  14.364  69.001  1.00  0.00    -0.042 A  
HETATM   34  C   UNL     2      -6.889  14.544  68.051  1.00  0.00    -0.153 A  
ENDBRANCH  22  29
ENDBRANCH  21  22
ENDBRANCH  20  21
ENDBRANCH  19  20
ENDBRANCH   4  19
TORSDOF 6
ENDMDL
MODEL      130
REMARK 921   NORMALIZED FREE ENERGY PREDICTED BY IDOCK:   -4.15 KCAL/MOL
REMARK 922        TOTAL FREE ENERGY PREDICTED BY IDOCK:   -3.99 KCAL/MOL
REMARK 923 INTER-LIGAND FREE ENERGY PREDICTED BY IDOCK:   -6.86 KCAL/MOL
REMARK 924 INTRA-LIGAND FREE ENERGY PREDICTED BY IDOCK:    2.88 KCAL/MOL
REMARK 927      BINDING AFFINITY PREDICTED BY RF-SCORE:    0.00 PKD
ROOT
HETATM    1  C   UNL     1     -10.396   7.177  73.720  1.00  0.00    -0.347 C  
HETATM    2  N   UNL     1      -9.497   6.701  72.663  1.00  0.00    -0.143 N  
HETATM    3  C   UNL     2      -7.783   5.687  73.727  1.00  0.00    -0.101 C  
HETATM    4  N   UNL     2      -7.806   5.593  72.117  1.00  0.00    -0.102 NA 
HETATM    5  C   UNL     1      -8.121   7.646  72.012  1.00  0.00    -0.101 A  
HETATM    6  O   UNL     1     -10.579   4.222  72.707  1.00  0.00    -0.182 OA 
HETATM    7  C   UNL     1      -7.168   7.072  70.787  1.00  0.00    -0.071 A  
HETATM    8  C   UNL     2      -6.617   4.494  72.053  1.00  0.00    -0.023 C  
HETATM    9  C   UNL     1      -9.053   3.125  70.178  1.00  0.00    -0.122 C  
HETATM   10  N   UNL     1      -6.245   8.025  70.488  1.00  0.00    -0.036 NA 
HETATM   11  C   UNL     1      -7.409   5.370  70.053  1.00  0.00    -0.068 C  
HETATM   12  H   UNL     1      -5.539   8.006  69.753  1.00  0.00     0.000 HD 
HETATM   13  O   UNL     1      -6.761   4.978  69.080  1.00  0.00    -0.046 OA 
HETATM   14  N   UNL     1      -8.712   4.384  70.782  1.00  0.00    -0.090 N  
HETATM   15  C   UNL     1      -6.476   8.980  71.369  1.00  0.00    -0.079 A  
HETATM   16  C   UNL     1      -9.699   4.871  72.166  1.00  0.00    -0.163 C  
HETATM   17 CL   UNL     1      -5.519  10.382  71.537  1.00  0.00    -0.024 Cl 
HETATM   18  N   UNL     1      -7.535   8.850  72.249  1.00  0.00    -0.344 NA 
ENDROOT
BRANCH   4  19
HETATM   19  C   UNL     2      -9.178   6.309  70.724  1.00  0.00    -0.154 C  
BRANCH  19  20
HETATM   20  C   UNL     2     -10.725   5.743  70.129  1.00  0.00    -0.320 C  
BRANCH  20  21
HETATM   21  O   UNL     2     -11.510   6.826  69.610  1.00  0.00    -0.287 OA 
BRANCH  21  22
HETATM   22  C   UNL     2     -10.747   8.074  69.586  1.00  0.00    -0.207 C  
BRANCH  22  23
HETATM   23  C   UNL     2     -10.399   8.472  68.145  1.00  0.00    -0.258 A  
HETATM   24  C   UNL     2     -10.854   9.712  67.648  1.00  0.00    -0.276 A  
HETATM   25  C   UNL     2      -9.448   7.777  67.381  1.00  0.00    -0.177 A  
HETATM   26  C   UNL     2     -10.306  10.269  66.486  1.00  0.00    -0.276 A  
HETATM   27  C   UNL     2      -9.322   9.584  65.780  1.00  0.00    -0.293 A  
HETATM   28  C   UNL     2      -8.915   8.326  66.211  1.00  0.00    -0.221 A  
ENDBRANCH  22  23
BRANCH  22  29
HETATM   29  C   UNL     2     -11.527   9.069  70.432  1.00  0.00    -0.202 A  
HETATM   30  C   UNL     2     -13.203  10.897  71.774  1.00  0.00    -0.513 A  
HETATM   31  C   UNL     2     -12.183  11.362  70.952  1.00  0.00    -0.447 A  
HETATM   32  C   UNL     2     -12.538   8.619  71.299  1.00  0.00    -0.266 A  
HETATM   33  C   UNL     2     -11.367  10.455  70.274  1.00  0.00    -0.406 A  
HETATM   34  C   UNL     2     -13.380   9.527  71.951  1.00  0.00    -0.518 A  
ENDBRANCH  22  29
ENDBRANCH  21  22
ENDBRANCH  20  21
ENDBRANCH  19  20
ENDBRANCH   4  19
TORSDOF 6
ENDMDL
MODEL      131
REMARK 921   NORMALIZED FREE ENERGY PREDICTED BY IDOCK:   -4.13 KCAL/MOL
REMARK 922        TOTAL FREE ENERGY PREDICTED BY IDOCK:   -3.96 KCAL/MOL
REMARK 923 INTER-LIGAND FREE ENERGY PREDICTED BY IDOCK:   -6.70 KCAL/MOL
REMARK 924 INTRA-LIGAND FREE ENERGY PREDICTED BY IDOCK:    2.75 KCAL/MOL
REMARK 927      BINDING AFFINITY PREDICTED BY RF-SCORE:    0.00 PKD
ROOT
HETATM    1  C   UNL     1      -7.111   6.382  66.998  1.00  0.00    -0.073 C  
HETATM    2  N   UNL     1      -7.751   7.596  67.517  1.00  0.00    -0.115 N  
HETATM    3  C   UNL     2      -6.237   9.249  67.251  1.00  0.00    -0.058 C  
HETATM    4  N   UNL     2      -7.699   9.672  67.783  1.00  0.00    -0.094 NA 
HETATM    5  C   UNL     1      -7.606   8.162  69.210  1.00  0.00    -0.095 A  
HETATM    6  O   UNL     1      -8.554   8.361  65.050  1.00  0.00    -0.169 OA 
HETATM    7  C   UNL     1      -8.390   9.518  69.749  1.00  0.00    -0.164 A  
HETATM    8  C   UNL     2      -7.428  11.260  67.606  1.00  0.00    -0.101 C  
HETATM    9  C   UNL     1     -10.342  10.778  65.993  1.00  0.00    -0.238 C  
HETATM   10  N   UNL     1      -8.120   9.663  71.073  1.00  0.00    -0.344 NA 
HETATM   11  C   UNL     1      -9.412  10.593  68.613  1.00  0.00    -0.176 C  
HETATM   12  H   UNL     1      -8.482  10.369  71.714  1.00  0.00     0.000 HD 
HETATM   13  O   UNL     1     -10.070  11.549  69.030  1.00  0.00    -0.163 OA 
HETATM   14  N   UNL     1      -9.463  10.088  66.897  1.00  0.00    -0.161 N  
HETATM   15  C   UNL     1      -7.281   8.679  71.338  1.00  0.00    -0.091 A  
HETATM   16  C   UNL     1      -8.565   8.725  66.214  1.00  0.00    -0.131 C  
HETATM   17 CL   UNL     1      -6.509   8.454  72.843  1.00  0.00    -0.101 Cl 
HETATM   18  N   UNL     1      -6.960   7.774  70.342  1.00  0.00    -0.046 NA 
ENDROOT
BRANCH   4  19
HETATM   19  C   UNL     2      -9.411   8.537  68.130  1.00  0.00    -0.137 C  
BRANCH  19  20
HETATM   20  C   UNL     2      -9.782   7.167  69.155  1.00  0.00    -0.158 C  
BRANCH  20  21
HETATM   21  O   UNL     2     -11.190   6.890  69.161  1.00  0.00    -0.193 OA 
BRANCH  21  22
HETATM   22  C   UNL     2     -11.633   6.401  70.466  1.00  0.00    -0.358 C  
BRANCH  22  23
HETATM   23  C   UNL     2     -10.498   5.654  71.182  1.00  0.00    -0.306 A  
HETATM   24  C   UNL     2      -9.889   4.555  70.539  1.00  0.00    -0.297 A  
HETATM   25  C   UNL     2      -9.874   6.159  72.334  1.00  0.00    -0.179 A  
HETATM   26  C   UNL     2      -8.660   4.051  70.981  1.00  0.00    -0.108 A  
HETATM   27  C   UNL     2      -8.035   4.609  72.092  1.00  0.00    -0.101 A  
HETATM   28  C   UNL     2      -8.656   5.642  72.784  1.00  0.00    -0.119 A  
ENDBRANCH  22  23
BRANCH  22  29
HETATM   29  C   UNL     2     -12.264   7.588  71.177  1.00  0.00    -0.330 A  
HETATM   30  C   UNL     2     -13.609   9.834  72.226  1.00  0.00    -0.397 A  
HETATM   31  C   UNL     2     -12.353   9.981  71.649  1.00  0.00    -0.486 A  
HETATM   32  C   UNL     2     -13.517   7.453  71.801  1.00  0.00    -0.383 A  
HETATM   33  C   UNL     2     -11.698   8.871  71.114  1.00  0.00    -0.356 A  
HETATM   34  C   UNL     2     -14.190   8.571  72.305  1.00  0.00    -0.471 A  
ENDBRANCH  22  29
ENDBRANCH  21  22
ENDBRANCH  20  21
ENDBRANCH  19  20
ENDBRANCH   4  19
TORSDOF 6
ENDMDL
MODEL      132
REMARK 921   NORMALIZED FREE ENERGY PREDICTED BY IDOCK:   -4.09 KCAL/MOL
REMARK 922        TOTAL FREE ENERGY PREDICTED BY IDOCK:   -3.91 KCAL/MOL
REMARK 923 INTER-LIGAND FREE ENERGY PREDICTED BY IDOCK:   -6.92 KCAL/MOL
REMARK 924 INTRA-LIGAND FREE ENERGY PREDICTED BY IDOCK:    3.01 KCAL/MOL
REMARK 927      BINDING AFFINITY PREDICTED BY RF-SCORE:    0.00 PKD
ROOT
HETATM    1  C   UNL     1      -8.161  11.382  68.782  1.00  0.00    -0.107 C  
HETATM    2  N   UNL     1      -8.200  10.394  67.698  1.00  0.00    -0.111 N  
HETATM    3  C   UNL     2      -6.469  10.905  66.341  1.00  0.00    -0.130 C  
HETATM    4  N   UNL     2      -7.296   9.562  66.002  1.00  0.00    -0.095 NA 
HETATM    5  C   UNL     1      -9.074  10.631  66.153  1.00  0.00    -0.170 A  
HETATM    6  O   UNL     1      -6.369   8.820  68.920  1.00  0.00    -0.044 OA 
HETATM    7  C   UNL     1      -9.117   9.458  64.984  1.00  0.00    -0.215 A  
HETATM    8  C   UNL     2      -6.223   9.045  64.903  1.00  0.00    -0.065 C  
HETATM    9  C   UNL     1      -6.610   6.388  66.931  1.00  0.00    -0.055 C  
HETATM   10  N   UNL     1      -9.885   9.913  63.958  1.00  0.00    -0.467 NA 
HETATM   11  C   UNL     1      -8.194   7.843  65.161  1.00  0.00    -0.141 C  
HETATM   12  H   UNL     1     -10.149   9.420  63.106  1.00  0.00     0.000 HD 
HETATM   13  O   UNL     1      -8.299   6.933  64.335  1.00  0.00    -0.028 OA 
HETATM   14  N   UNL     1      -7.229   7.655  66.656  1.00  0.00    -0.085 N  
HETATM   15  C   UNL     1     -10.208  11.140  64.322  1.00  0.00    -0.340 A  
HETATM   16  C   UNL     1      -7.033   8.899  67.899  1.00  0.00    -0.078 C  
HETATM   17 CL   UNL     1     -11.073  12.235  63.341  1.00  0.00    -0.505 Cl 
HETATM   18  N   UNL     1      -9.808  11.610  65.560  1.00  0.00    -0.229 NA 
ENDROOT
BRANCH   4  19
HETATM   19  C   UNL     2      -8.905   8.664  66.972  1.00  0.00    -0.132 C  
BRANCH  19  20
HETATM   20  C   UNL     2      -9.174   8.064  68.595  1.00  0.00    -0.143 C  
BRANCH  20  21
HETATM   21  O   UNL     2     -10.569   7.834  68.839  1.00  0.00    -0.210 OA 
BRANCH  21  22
HETATM   22  C   UNL     2     -10.848   7.709  70.269  1.00  0.00    -0.246 C  
BRANCH  22  23
HETATM   23  C   UNL     2      -9.554   7.465  71.058  1.00  0.00    -0.161 A  
HETATM   24  C   UNL     2      -8.871   6.241  70.893  1.00  0.00    -0.136 A  
HETATM   25  C   UNL     2      -8.887   8.493  71.744  1.00  0.00    -0.278 A  
HETATM   26  C   UNL     2      -7.545   6.091  71.317  1.00  0.00    -0.094 A  
HETATM   27  C   UNL     2      -6.889   7.146  71.944  1.00  0.00    -0.059 A  
HETATM   28  C   UNL     2      -7.568   8.335  72.183  1.00  0.00    -0.154 A  
ENDBRANCH  22  23
BRANCH  22  29
HETATM   29  C   UNL     2     -11.697   8.913  70.647  1.00  0.00    -0.212 A  
HETATM   30  C   UNL     2     -13.027  11.234  71.540  1.00  0.00    -0.520 A  
HETATM   31  C   UNL     2     -13.288  10.007  72.141  1.00  0.00    -0.469 A  
HETATM   32  C   UNL     2     -11.479  10.155  70.026  1.00  0.00    -0.344 A  
HETATM   33  C   UNL     2     -12.614   8.863  71.709  1.00  0.00    -0.420 A  
HETATM   34  C   UNL     2     -12.126  11.308  70.481  1.00  0.00    -0.481 A  
ENDBRANCH  22  29
ENDBRANCH  21  22
ENDBRANCH  20  21
ENDBRANCH  19  20
ENDBRANCH   4  19
TORSDOF 6
ENDMDL
MODEL      133
REMARK 921   NORMALIZED FREE ENERGY PREDICTED BY IDOCK:   -4.09 KCAL/MOL
REMARK 922        TOTAL FREE ENERGY PREDICTED BY IDOCK:   -3.91 KCAL/MOL
REMARK 923 INTER-LIGAND FREE ENERGY PREDICTED BY IDOCK:   -8.22 KCAL/MOL
REMARK 924 INTRA-LIGAND FREE ENERGY PREDICTED BY IDOCK:    4.31 KCAL/MOL
REMARK 927      BINDING AFFINITY PREDICTED BY RF-SCORE:    0.00 PKD
ROOT
HETATM    1  C   UNL     1      -6.761  13.652  69.246  1.00  0.00    -0.094 C  
HETATM    2  N   UNL     1      -7.490  14.719  68.551  1.00  0.00    -0.111 N  
HETATM    3  C   UNL     2      -7.195  16.577  69.799  1.00  0.00     0.270 C  
HETATM    4  N   UNL     2      -7.965  16.752  68.393  1.00  0.00    -0.213 NA 
HETATM    5  C   UNL     1      -9.197  15.149  68.880  1.00  0.00    -0.209 A  
HETATM    6  O   UNL     1      -5.252  15.584  67.300  1.00  0.00    -0.336 OA 
HETATM    7  C   UNL     1      -9.980  16.335  68.030  1.00  0.00    -0.240 A  
HETATM    8  C   UNL     2      -7.922  18.371  68.443  1.00  0.00    -0.307 C  
HETATM    9  C   UNL     1      -6.685  17.647  65.399  1.00  0.00     0.432 C  
HETATM   10  N   UNL     1     -11.263  16.398  68.477  1.00  0.00    -0.363 NA 
HETATM   11  C   UNL     1      -9.117  17.359  66.727  1.00  0.00    -0.260 C  
HETATM   12  H   UNL     1     -12.018  16.989  68.133  1.00  0.00     0.000 HD 
HETATM   13  O   UNL     1      -9.720  18.178  66.030  1.00  0.00    -0.497 OA 
HETATM   14  N   UNL     1      -7.380  17.004  66.480  1.00  0.00    -0.257 N  
HETATM   15  C   UNL     1     -11.302  15.516  69.457  1.00  0.00    -0.313 A  
HETATM   16  C   UNL     1      -6.439  15.839  67.421  1.00  0.00    -0.158 C  
HETATM   17 CL   UNL     1     -12.654  15.264  70.468  1.00  0.00    -0.429 Cl 
HETATM   18  N   UNL     1     -10.181  14.752  69.731  1.00  0.00    -0.042 NA 
ENDROOT
BRANCH   4  19
HETATM   19  C   UNL     2      -8.422  15.372  66.902  1.00  0.00    -0.252 C  
BRANCH  19  20
HETATM   20  C   UNL     2      -9.467  13.969  66.812  1.00  0.00    -0.282 C  
BRANCH  20  21
HETATM   21  O   UNL     2      -8.707  12.753  66.841  1.00  0.00    -0.207 OA 
BRANCH  21  22
HETATM   22  C   UNL     2      -9.535  11.597  66.501  1.00  0.00    -0.206 C  
BRANCH  22  23
HETATM   23  C   UNL     2     -10.124  10.957  67.766  1.00  0.00    -0.203 A  
HETATM   24  C   UNL     2      -9.272  10.239  68.631  1.00  0.00    -0.159 A  
HETATM   25  C   UNL     2     -11.415  11.258  68.230  1.00  0.00    -0.378 A  
HETATM   26  C   UNL     2      -9.669   9.922  69.936  1.00  0.00    -0.274 A  
HETATM   27  C   UNL     2     -10.934  10.284  70.389  1.00  0.00    -0.365 A  
HETATM   28  C   UNL     2     -11.816  10.925  69.527  1.00  0.00    -0.404 A  
ENDBRANCH  22  23
BRANCH  22  29
HETATM   29  C   UNL     2     -10.501  12.064  65.422  1.00  0.00    -0.313 A  
HETATM   30  C   UNL     2     -12.456  12.657  63.479  1.00  0.00    -0.516 A  
HETATM   31  C   UNL     2     -11.257  12.062  63.102  1.00  0.00    -0.261 A  
HETATM   32  C   UNL     2     -11.701  12.703  65.777  1.00  0.00    -0.466 A  
HETATM   33  C   UNL     2     -10.299  11.752  64.068  1.00  0.00    -0.401 A  
HETATM   34  C   UNL     2     -12.678  12.981  64.814  1.00  0.00    -0.409 A  
ENDBRANCH  22  29
ENDBRANCH  21  22
ENDBRANCH  20  21
ENDBRANCH  19  20
ENDBRANCH   4  19
TORSDOF 6
ENDMDL
MODEL      134
REMARK 921   NORMALIZED FREE ENERGY PREDICTED BY IDOCK:   -4.07 KCAL/MOL
REMARK 922        TOTAL FREE ENERGY PREDICTED BY IDOCK:   -3.88 KCAL/MOL
REMARK 923 INTER-LIGAND FREE ENERGY PREDICTED BY IDOCK:   -6.18 KCAL/MOL
REMARK 924 INTRA-LIGAND FREE ENERGY PREDICTED BY IDOCK:    2.29 KCAL/MOL
REMARK 927      BINDING AFFINITY PREDICTED BY RF-SCORE:    0.00 PKD
ROOT
HETATM    1  C   UNL     1      -7.251  13.188  67.743  1.00  0.00    -0.147 C  
HETATM    2  N   UNL     1      -8.142  12.032  67.594  1.00  0.00    -0.144 N  
HETATM    3  C   UNL     2      -9.486  12.515  65.845  1.00  0.00    -0.107 C  
HETATM    4  N   UNL     2      -9.619  11.042  66.488  1.00  0.00    -0.191 NA 
HETATM    5  C   UNL     1      -9.744  11.891  68.382  1.00  0.00    -0.201 A  
HETATM    6  O   UNL     1      -6.576  10.930  65.683  1.00  0.00    -0.074 OA 
HETATM    7  C   UNL     1     -10.687  10.540  68.212  1.00  0.00    -0.229 A  
HETATM    8  C   UNL     2     -10.557  10.482  65.291  1.00  0.00    -0.067 C  
HETATM    9  C   UNL     1      -8.109   8.183  65.509  1.00  0.00    -0.130 C  
HETATM   10  N   UNL     1     -11.812  10.714  68.955  1.00  0.00    -0.603 NA 
HETATM   11  C   UNL     1     -10.182   9.107  67.125  1.00  0.00    -0.261 C  
HETATM   12  H   UNL     1     -12.575  10.054  69.103  1.00  0.00     0.000 HD 
HETATM   13  O   UNL     1     -10.837   8.063  67.070  1.00  0.00    -0.283 OA 
HETATM   14  N   UNL     1      -8.634   9.298  66.249  1.00  0.00    -0.125 N  
HETATM   15  C   UNL     1     -11.688  11.935  69.441  1.00  0.00    -0.339 A  
HETATM   16  C   UNL     1      -7.624  10.750  66.281  1.00  0.00    -0.142 C  
HETATM   17 CL   UNL     1     -12.888  12.731  70.356  1.00  0.00     0.040 Cl 
HETATM   18  N   UNL     1     -10.536  12.656  69.181  1.00  0.00    -0.036 NA 
ENDROOT
BRANCH   4  19
HETATM   19  C   UNL     2      -8.582  10.130  68.047  1.00  0.00    -0.118 C  
BRANCH  19  20
HETATM   20  C   UNL     2      -8.779  10.088  69.787  1.00  0.00    -0.179 C  
BRANCH  20  21
HETATM   21  O   UNL     2      -8.502   8.781  70.309  1.00  0.00    -0.128 OA 
BRANCH  21  22
HETATM   22  C   UNL     2      -9.011   8.631  71.671  1.00  0.00    -0.235 C  
BRANCH  22  23
HETATM   23  C   UNL     2     -10.448   8.089  71.659  1.00  0.00    -0.272 A  
HETATM   24  C   UNL     2     -11.491   8.903  72.150  1.00  0.00    -0.387 A  
HETATM   25  C   UNL     2     -10.808   6.925  70.960  1.00  0.00    -0.272 A  
HETATM   26  C   UNL     2     -12.831   8.608  71.868  1.00  0.00    -0.411 A  
HETATM   27  C   UNL     2     -13.155   7.478  71.124  1.00  0.00    -0.240 A  
HETATM   28  C   UNL     2     -12.147   6.623  70.696  1.00  0.00    -0.342 A  
ENDBRANCH  22  23
BRANCH  22  29
HETATM   29  C   UNL     2      -7.960   7.844  72.438  1.00  0.00    -0.151 A  
HETATM   30  C   UNL     2      -6.008   6.630  74.072  1.00  0.00    -0.063 A  
HETATM   31  C   UNL     2      -5.623   7.361  72.953  1.00  0.00    -0.040 A  
HETATM   32  C   UNL     2      -8.330   7.067  73.550  1.00  0.00    -0.139 A  
HETATM   33  C   UNL     2      -6.590   7.976  72.157  1.00  0.00    -0.067 A  
HETATM   34  C   UNL     2      -7.359   6.480  74.369  1.00  0.00    -0.099 A  
ENDBRANCH  22  29
ENDBRANCH  21  22
ENDBRANCH  20  21
ENDBRANCH  19  20
ENDBRANCH   4  19
TORSDOF 6
ENDMDL
MODEL      135
REMARK 921   NORMALIZED FREE ENERGY PREDICTED BY IDOCK:   -4.05 KCAL/MOL
REMARK 922        TOTAL FREE ENERGY PREDICTED BY IDOCK:   -3.85 KCAL/MOL
REMARK 923 INTER-LIGAND FREE ENERGY PREDICTED BY IDOCK:   -8.16 KCAL/MOL
REMARK 924 INTRA-LIGAND FREE ENERGY PREDICTED BY IDOCK:    4.30 KCAL/MOL
REMARK 927      BINDING AFFINITY PREDICTED BY RF-SCORE:    0.00 PKD
ROOT
HETATM    1  C   UNL     1      -5.140  18.076  66.538  1.00  0.00    -0.148 C  
HETATM    2  N   UNL     1      -6.453  17.638  67.024  1.00  0.00    -0.151 N  
HETATM    3  C   UNL     2      -7.020  19.094  68.654  1.00  0.00    -0.301 C  
HETATM    4  N   UNL     2      -8.127  18.001  68.229  1.00  0.00    -0.283 NA 
HETATM    5  C   UNL     1      -6.693  16.503  68.388  1.00  0.00    -0.143 A  
HETATM    6  O   UNL     1      -7.751  19.399  65.432  1.00  0.00    -0.370 OA 
HETATM    7  C   UNL     1      -8.202  16.011  68.862  1.00  0.00    -0.223 A  
HETATM    8  C   UNL     2      -9.313  18.708  69.076  1.00  0.00    -0.152 C  
HETATM    9  C   UNL     1     -10.656  18.329  66.014  1.00  0.00    -0.296 C  
HETATM   10  N   UNL     1      -8.056  15.127  69.885  1.00  0.00    -0.337 NA 
HETATM   11  C   UNL     1      -9.758  16.666  68.061  1.00  0.00    -0.241 C  
HETATM   12  H   UNL     1      -8.784  14.606  70.372  1.00  0.00     0.000 HD 
HETATM   13  O   UNL     1     -10.876  16.233  68.349  1.00  0.00    -0.301 OA 
HETATM   14  N   UNL     1      -9.519  17.886  66.774  1.00  0.00    -0.278 N  
HETATM   15  C   UNL     1      -6.755  15.100  70.100  1.00  0.00    -0.072 A  
HETATM   16  C   UNL     1      -7.955  18.552  66.286  1.00  0.00    -0.246 C  
HETATM   17 CL   UNL     1      -6.009  14.240  71.371  1.00  0.00    -0.171 Cl 
HETATM   18  N   UNL     1      -5.915  15.833  69.280  1.00  0.00    -0.116 NA 
ENDROOT
BRANCH   4  19
HETATM   19  C   UNL     2      -8.092  16.512  66.773  1.00  0.00    -0.251 C  
BRANCH  19  20
HETATM   20  C   UNL     2      -8.960  15.009  66.540  1.00  0.00    -0.274 C  
BRANCH  20  21
HETATM   21  O   UNL     2      -8.239  13.901  67.096  1.00  0.00    -0.171 OA 
BRANCH  21  22
HETATM   22  C   UNL     2      -8.918  12.634  66.830  1.00  0.00    -0.213 C  
BRANCH  22  23
HETATM   23  C   UNL     2      -8.986  11.774  68.101  1.00  0.00    -0.181 A  
HETATM   24  C   UNL     2     -10.247  11.370  68.588  1.00  0.00    -0.217 A  
HETATM   25  C   UNL     2      -7.850  11.168  68.660  1.00  0.00    -0.138 A  
HETATM   26  C   UNL     2     -10.361  10.337  69.526  1.00  0.00    -0.267 A  
HETATM   27  C   UNL     2      -9.220   9.713  70.021  1.00  0.00    -0.275 A  
HETATM   28  C   UNL     2      -7.965  10.148  69.610  1.00  0.00    -0.181 A  
ENDBRANCH  22  23
BRANCH  22  29
HETATM   29  C   UNL     2     -10.225  12.985  66.137  1.00  0.00    -0.288 A  
HETATM   30  C   UNL     2     -12.755  13.345  64.943  1.00  0.00    -0.365 A  
HETATM   31  C   UNL     2     -11.679  12.909  64.177  1.00  0.00    -0.468 A  
HETATM   32  C   UNL     2     -11.315  13.464  66.884  1.00  0.00    -0.351 A  
HETATM   33  C   UNL     2     -10.433  12.714  64.775  1.00  0.00    -0.343 A  
HETATM   34  C   UNL     2     -12.574  13.625  66.294  1.00  0.00    -0.346 A  
ENDBRANCH  22  29
ENDBRANCH  21  22
ENDBRANCH  20  21
ENDBRANCH  19  20
ENDBRANCH   4  19
TORSDOF 6
ENDMDL
MODEL      136
REMARK 921   NORMALIZED FREE ENERGY PREDICTED BY IDOCK:   -4.04 KCAL/MOL
REMARK 922        TOTAL FREE ENERGY PREDICTED BY IDOCK:   -3.84 KCAL/MOL
REMARK 923 INTER-LIGAND FREE ENERGY PREDICTED BY IDOCK:   -5.84 KCAL/MOL
REMARK 924 INTRA-LIGAND FREE ENERGY PREDICTED BY IDOCK:    2.01 KCAL/MOL
REMARK 927      BINDING AFFINITY PREDICTED BY RF-SCORE:    0.00 PKD
ROOT
HETATM    1  C   UNL     1      -9.606   3.967  67.754  1.00  0.00    -0.150 C  
HETATM    2  N   UNL     1      -8.766   5.117  67.401  1.00  0.00    -0.104 N  
HETATM    3  C   UNL     2      -6.788   4.251  66.742  1.00  0.00    -0.052 C  
HETATM    4  N   UNL     2      -6.981   5.844  66.583  1.00  0.00    -0.063 NA 
HETATM    5  C   UNL     1      -7.665   5.947  68.544  1.00  0.00    -0.094 A  
HETATM    6  O   UNL     1      -9.380   4.897  64.775  1.00  0.00    -0.113 OA 
HETATM    7  C   UNL     1      -6.775   7.269  68.096  1.00  0.00    -0.058 A  
HETATM    8  C   UNL     2      -5.632   6.033  65.705  1.00  0.00    -0.020 C  
HETATM    9  C   UNL     1      -7.989   7.573  63.861  1.00  0.00    -0.089 C  
HETATM   10  N   UNL     1      -6.077   7.696  69.183  1.00  0.00    -0.034 NA 
HETATM   11  C   UNL     1      -6.795   7.938  66.351  1.00  0.00    -0.062 C  
HETATM   12  H   UNL     1      -5.469   8.510  69.258  1.00  0.00     0.000 HD 
HETATM   13  O   UNL     1      -6.206   8.975  66.039  1.00  0.00    -0.058 OA 
HETATM   14  N   UNL     1      -7.808   7.038  65.183  1.00  0.00    -0.117 N  
HETATM   15  C   UNL     1      -6.369   6.810  70.116  1.00  0.00    -0.039 A  
HETATM   16  C   UNL     1      -8.697   5.552  65.545  1.00  0.00    -0.154 C  
HETATM   17 CL   UNL     1      -5.663   6.785  71.670  1.00  0.00    -0.036 Cl 
HETATM   18  N   UNL     1      -7.278   5.805  69.840  1.00  0.00    -0.067 NA 
ENDROOT
BRANCH   4  19
HETATM   19  C   UNL     2      -8.612   7.073  66.994  1.00  0.00    -0.122 C  
BRANCH  19  20
HETATM   20  C   UNL     2      -9.796   7.142  68.282  1.00  0.00    -0.151 C  
BRANCH  20  21
HETATM   21  O   UNL     2      -9.917   8.473  68.805  1.00  0.00    -0.176 OA 
BRANCH  21  22
HETATM   22  C   UNL     2     -10.890   8.533  69.895  1.00  0.00    -0.205 C  
BRANCH  22  23
HETATM   23  C   UNL     2     -10.281   7.998  71.199  1.00  0.00    -0.225 A  
HETATM   24  C   UNL     2      -9.055   8.531  71.651  1.00  0.00    -0.296 A  
HETATM   25  C   UNL     2     -11.001   7.184  72.088  1.00  0.00    -0.274 A  
HETATM   26  C   UNL     2      -8.622   8.331  72.967  1.00  0.00    -0.275 A  
HETATM   27  C   UNL     2      -9.386   7.567  73.845  1.00  0.00    -0.301 A  
HETATM   28  C   UNL     2     -10.558   6.971  73.397  1.00  0.00    -0.399 A  
ENDBRANCH  22  23
BRANCH  22  29
HETATM   29  C   UNL     2     -11.447   9.948  69.896  1.00  0.00    -0.234 A  
HETATM   30  C   UNL     2     -12.188  12.667  69.998  1.00  0.00    -0.267 A  
HETATM   31  C   UNL     2     -12.478  11.825  71.066  1.00  0.00    -0.411 A  
HETATM   32  C   UNL     2     -11.199  10.805  68.810  1.00  0.00    -0.331 A  
HETATM   33  C   UNL     2     -12.094  10.484  71.020  1.00  0.00    -0.492 A  
HETATM   34  C   UNL     2     -11.552  12.158  68.869  1.00  0.00    -0.377 A  
ENDBRANCH  22  29
ENDBRANCH  21  22
ENDBRANCH  20  21
ENDBRANCH  19  20
ENDBRANCH   4  19
TORSDOF 6
ENDMDL
MODEL      137
REMARK 921   NORMALIZED FREE ENERGY PREDICTED BY IDOCK:   -4.04 KCAL/MOL
REMARK 922        TOTAL FREE ENERGY PREDICTED BY IDOCK:   -3.84 KCAL/MOL
REMARK 923 INTER-LIGAND FREE ENERGY PREDICTED BY IDOCK:   -6.06 KCAL/MOL
REMARK 924 INTRA-LIGAND FREE ENERGY PREDICTED BY IDOCK:    2.22 KCAL/MOL
REMARK 927      BINDING AFFINITY PREDICTED BY RF-SCORE:    0.00 PKD
ROOT
HETATM    1  C   UNL     1      -8.490   7.565  66.241  1.00  0.00    -0.140 C  
HETATM    2  N   UNL     1      -8.879   7.871  67.623  1.00  0.00    -0.128 N  
HETATM    3  C   UNL     2     -10.105   9.764  67.510  1.00  0.00    -0.197 C  
HETATM    4  N   UNL     2      -9.999   9.043  68.949  1.00  0.00    -0.183 NA 
HETATM    5  C   UNL     1      -7.935   8.921  68.724  1.00  0.00    -0.102 A  
HETATM    6  O   UNL     1     -11.285   6.668  67.327  1.00  0.00    -0.366 OA 
HETATM    7  C   UNL     1      -8.403   9.192  70.289  1.00  0.00    -0.173 A  
HETATM    8  C   UNL     2     -11.142   9.971  69.624  1.00  0.00    -0.259 C  
HETATM    9  C   UNL     1     -12.141   6.842  70.354  1.00  0.00    -0.211 C  
HETATM   10  N   UNL     1      -7.471   9.988  70.877  1.00  0.00    -0.354 NA 
HETATM   11  C   UNL     1      -9.987   8.489  70.989  1.00  0.00    -0.203 C  
HETATM   12  H   UNL     1      -7.436  10.304  71.845  1.00  0.00     0.000 HD 
HETATM   13  O   UNL     1     -10.290   8.613  72.178  1.00  0.00    -0.316 OA 
HETATM   14  N   UNL     1     -10.986   7.534  69.853  1.00  0.00    -0.240 N  
HETATM   15  C   UNL     1      -6.620  10.255  69.904  1.00  0.00    -0.114 A  
HETATM   16  C   UNL     1     -10.621   7.292  68.139  1.00  0.00    -0.177 C  
HETATM   17 CL   UNL     1      -5.301  11.328  70.049  1.00  0.00    -0.061 Cl 
HETATM   18  N   UNL     1      -6.801   9.670  68.663  1.00  0.00    -0.056 NA 
ENDROOT
BRANCH   4  19
HETATM   19  C   UNL     2      -9.046   7.285  69.532  1.00  0.00    -0.143 C  
BRANCH  19  20
HETATM   20  C   UNL     2      -8.159   6.790  70.958  1.00  0.00    -0.115 C  
BRANCH  20  21
HETATM   21  O   UNL     2      -7.945   5.371  70.971  1.00  0.00    -0.100 OA 
BRANCH  21  22
HETATM   22  C   UNL     2      -9.058   4.658  70.345  1.00  0.00    -0.113 C  
BRANCH  22  23
HETATM   23  C   UNL     2      -8.559   3.764  69.202  1.00  0.00    -0.115 A  
HETATM   24  C   UNL     2      -7.276   3.184  69.295  1.00  0.00    -0.045 A  
HETATM   25  C   UNL     2      -9.409   3.297  68.186  1.00  0.00    -0.244 A  
HETATM   26  C   UNL     2      -6.902   2.121  68.465  1.00  0.00    -0.039 A  
HETATM   27  C   UNL     2      -7.787   1.640  67.504  1.00  0.00    -0.059 A  
HETATM   28  C   UNL     2      -9.027   2.247  67.346  1.00  0.00    -0.180 A  
ENDBRANCH  22  23
BRANCH  22  29
HETATM   29  C   UNL     2      -9.836   4.002  71.476  1.00  0.00    -0.251 A  
HETATM   30  C   UNL     2     -11.008   2.812  73.748  1.00  0.00    -0.308 A  
HETATM   31  C   UNL     2     -10.481   2.015  72.738  1.00  0.00    -0.238 A  
HETATM   32  C   UNL     2     -10.411   4.790  72.488  1.00  0.00    -0.264 A  
HETATM   33  C   UNL     2      -9.885   2.607  71.624  1.00  0.00    -0.213 A  
HETATM   34  C   UNL     2     -10.976   4.198  73.623  1.00  0.00    -0.351 A  
ENDBRANCH  22  29
ENDBRANCH  21  22
ENDBRANCH  20  21
ENDBRANCH  19  20
ENDBRANCH   4  19
TORSDOF 6
ENDMDL
MODEL      138
REMARK 921   NORMALIZED FREE ENERGY PREDICTED BY IDOCK:   -4.01 KCAL/MOL
REMARK 922        TOTAL FREE ENERGY PREDICTED BY IDOCK:   -3.80 KCAL/MOL
REMARK 923 INTER-LIGAND FREE ENERGY PREDICTED BY IDOCK:   -7.16 KCAL/MOL
REMARK 924 INTRA-LIGAND FREE ENERGY PREDICTED BY IDOCK:    3.35 KCAL/MOL
REMARK 927      BINDING AFFINITY PREDICTED BY RF-SCORE:    0.00 PKD
ROOT
HETATM    1  C   UNL     1      -7.617   9.546  71.012  1.00  0.00     0.097 C  
HETATM    2  N   UNL     1      -8.169   9.687  69.660  1.00  0.00    -0.128 N  
HETATM    3  C   UNL     2      -6.583   8.890  68.265  1.00  0.00    -0.060 C  
HETATM    4  N   UNL     2      -7.996   9.305  67.608  1.00  0.00    -0.103 NA 
HETATM    5  C   UNL     1      -7.919  11.122  68.617  1.00  0.00    -0.145 A  
HETATM    6  O   UNL     1      -9.040   7.126  69.629  1.00  0.00    -0.141 OA 
HETATM    7  C   UNL     1      -8.605  11.242  67.115  1.00  0.00    -0.147 A  
HETATM    8  C   UNL     2      -7.650   8.644  66.170  1.00  0.00    -0.093 C  
HETATM    9  C   UNL     1     -10.654   7.334  66.931  1.00  0.00    -0.305 C  
HETATM   10  N   UNL     1      -8.270  12.451  66.593  1.00  0.00    -0.401 NA 
HETATM   11  C   UNL     1      -9.620   9.859  66.372  1.00  0.00    -0.200 C  
HETATM   12  H   UNL     1      -8.566  12.855  65.705  1.00  0.00     0.000 HD 
HETATM   13  O   UNL     1     -10.207   9.982  65.295  1.00  0.00    -0.296 OA 
HETATM   14  N   UNL     1      -9.773   8.381  67.369  1.00  0.00    -0.159 N  
HETATM   15  C   UNL     1      -7.473  12.981  67.501  1.00  0.00    -0.156 A  
HETATM   16  C   UNL     1      -8.980   8.124  68.929  1.00  0.00    -0.141 C  
HETATM   17 CL   UNL     1      -6.647  14.462  67.309  1.00  0.00     0.069 Cl 
HETATM   18  N   UNL     1      -7.244  12.301  68.684  1.00  0.00    -0.103 NA 
ENDROOT
BRANCH   4  19
HETATM   19  C   UNL     2      -9.748  10.027  68.474  1.00  0.00    -0.155 C  
BRANCH  19  20
HETATM   20  C   UNL     2     -10.330  11.620  68.909  1.00  0.00    -0.153 C  
BRANCH  20  21
HETATM   21  O   UNL     2     -11.728  11.591  69.233  1.00  0.00    -0.272 OA 
BRANCH  21  22
HETATM   22  C   UNL     2     -12.364  12.881  68.971  1.00  0.00     0.156 C  
BRANCH  22  23
HETATM   23  C   UNL     2     -12.329  13.770  70.223  1.00  0.00    -0.407 A  
HETATM   24  C   UNL     2     -12.973  13.325  71.397  1.00  0.00    -0.398 A  
HETATM   25  C   UNL     2     -11.484  14.886  70.330  1.00  0.00    -0.312 A  
HETATM   26  C   UNL     2     -12.704  13.917  72.637  1.00  0.00    -0.259 A  
HETATM   27  C   UNL     2     -11.816  14.986  72.723  1.00  0.00    -0.391 A  
HETATM   28  C   UNL     2     -11.230  15.488  71.566  1.00  0.00    -0.399 A  
ENDBRANCH  22  23
BRANCH  22  29
HETATM   29  C   UNL     2     -11.732  13.420  67.697  1.00  0.00    -0.397 A  
HETATM   30  C   UNL     2     -10.823  14.605  65.305  1.00  0.00    -0.387 A  
HETATM   31  C   UNL     2     -11.471  13.375  65.270  1.00  0.00    -0.318 A  
HETATM   32  C   UNL     2     -11.038  14.643  67.715  1.00  0.00    -0.306 A  
HETATM   33  C   UNL     2     -11.936  12.800  66.454  1.00  0.00    -0.443 A  
HETATM   34  C   UNL     2     -10.604  15.238  66.525  1.00  0.00    -0.304 A  
ENDBRANCH  22  29
ENDBRANCH  21  22
ENDBRANCH  20  21
ENDBRANCH  19  20
ENDBRANCH   4  19
TORSDOF 6
ENDMDL
MODEL      139
REMARK 921   NORMALIZED FREE ENERGY PREDICTED BY IDOCK:   -4.00 KCAL/MOL
REMARK 922        TOTAL FREE ENERGY PREDICTED BY IDOCK:   -3.79 KCAL/MOL
REMARK 923 INTER-LIGAND FREE ENERGY PREDICTED BY IDOCK:   -5.80 KCAL/MOL
REMARK 924 INTRA-LIGAND FREE ENERGY PREDICTED BY IDOCK:    2.01 KCAL/MOL
REMARK 927      BINDING AFFINITY PREDICTED BY RF-SCORE:    0.00 PKD
ROOT
HETATM    1  C   UNL     1      -6.064   7.391  71.775  1.00  0.00    -0.036 C  
HETATM    2  N   UNL     1      -7.507   7.201  71.587  1.00  0.00    -0.085 N  
HETATM    3  C   UNL     2      -8.458   7.732  73.564  1.00  0.00    -0.207 C  
HETATM    4  N   UNL     2      -9.451   7.408  72.336  1.00  0.00    -0.148 NA 
HETATM    5  C   UNL     1      -8.374   5.674  71.937  1.00  0.00    -0.120 A  
HETATM    6  O   UNL     1      -7.893   9.826  71.053  1.00  0.00    -0.267 OA 
HETATM    7  C   UNL     1      -9.999   5.508  71.661  1.00  0.00    -0.182 A  
HETATM    8  C   UNL     2     -10.772   7.920  73.122  1.00  0.00    -0.264 C  
HETATM    9  C   UNL     1     -10.914   9.571  70.194  1.00  0.00    -0.262 C  
HETATM   10  N   UNL     1     -10.354   4.235  71.982  1.00  0.00    -0.145 NA 
HETATM   11  C   UNL     1     -11.052   6.922  71.043  1.00  0.00    -0.266 C  
HETATM   12  H   UNL     1     -11.268   3.795  71.887  1.00  0.00     0.000 HD 
HETATM   13  O   UNL     1     -12.241   6.775  70.750  1.00  0.00    -0.390 OA 
HETATM   14  N   UNL     1     -10.205   8.479  70.802  1.00  0.00    -0.192 N  
HETATM   15  C   UNL     1      -9.239   3.701  72.446  1.00  0.00    -0.115 A  
HETATM   16  C   UNL     1      -8.503   8.776  71.181  1.00  0.00    -0.187 C  
HETATM   17 CL   UNL     1      -9.132   2.136  73.118  1.00  0.00    -0.078 Cl 
HETATM   18  N   UNL     1      -8.072   4.443  72.431  1.00  0.00    -0.099 NA 
ENDROOT
BRANCH   4  19
HETATM   19  C   UNL     2      -9.058   6.928  70.348  1.00  0.00    -0.156 C  
BRANCH  19  20
HETATM   20  C   UNL     2      -7.605   6.556  69.444  1.00  0.00    -0.096 C  
BRANCH  20  21
HETATM   21  O   UNL     2      -7.547   7.306  68.222  1.00  0.00    -0.112 OA 
BRANCH  21  22
HETATM   22  C   UNL     2      -8.877   7.479  67.639  1.00  0.00    -0.128 C  
BRANCH  22  23
HETATM   23  C   UNL     2      -9.086   8.929  67.179  1.00  0.00    -0.160 A  
HETATM   24  C   UNL     2      -8.083   9.884  67.450  1.00  0.00    -0.113 A  
HETATM   25  C   UNL     2     -10.109   9.296  66.290  1.00  0.00    -0.322 A  
HETATM   26  C   UNL     2      -8.062  11.116  66.784  1.00  0.00    -0.155 A  
HETATM   27  C   UNL     2      -9.058  11.431  65.864  1.00  0.00    -0.209 A  
HETATM   28  C   UNL     2     -10.096  10.534  65.640  1.00  0.00    -0.333 A  
ENDBRANCH  22  23
BRANCH  22  29
HETATM   29  C   UNL     2      -9.039   6.373  66.607  1.00  0.00    -0.155 A  
HETATM   30  C   UNL     2      -9.120   4.158  64.864  1.00  0.00    -0.144 A  
HETATM   31  C   UNL     2      -8.323   5.256  64.559  1.00  0.00    -0.138 A  
HETATM   32  C   UNL     2      -9.870   5.272  66.876  1.00  0.00    -0.191 A  
HETATM   33  C   UNL     2      -8.270   6.342  65.433  1.00  0.00    -0.142 A  
HETATM   34  C   UNL     2      -9.896   4.166  66.019  1.00  0.00    -0.206 A  
ENDBRANCH  22  29
ENDBRANCH  21  22
ENDBRANCH  20  21
ENDBRANCH  19  20
ENDBRANCH   4  19
TORSDOF 6
ENDMDL
MODEL      140
REMARK 921   NORMALIZED FREE ENERGY PREDICTED BY IDOCK:   -3.99 KCAL/MOL
REMARK 922        TOTAL FREE ENERGY PREDICTED BY IDOCK:   -3.78 KCAL/MOL
REMARK 923 INTER-LIGAND FREE ENERGY PREDICTED BY IDOCK:   -6.56 KCAL/MOL
REMARK 924 INTRA-LIGAND FREE ENERGY PREDICTED BY IDOCK:    2.78 KCAL/MOL
REMARK 927      BINDING AFFINITY PREDICTED BY RF-SCORE:    0.00 PKD
ROOT
HETATM    1  C   UNL     1     -12.211  13.135  69.999  1.00  0.00    -0.253 C  
HETATM    2  N   UNL     1     -11.210  13.709  69.094  1.00  0.00    -0.263 N  
HETATM    3  C   UNL     2     -12.144  15.588  68.260  1.00  0.00     0.119 C  
HETATM    4  N   UNL     2     -10.606  15.298  67.871  1.00  0.00    -0.254 NA 
HETATM    5  C   UNL     1     -11.117  13.353  67.341  1.00  0.00    -0.278 A  
HETATM    6  O   UNL     1     -10.288  15.390  71.003  1.00  0.00     0.037 OA 
HETATM    7  C   UNL     1      -9.934  13.999  66.379  1.00  0.00    -0.294 A  
HETATM    8  C   UNL     2     -10.376  16.764  67.221  1.00  0.00    -0.304 C  
HETATM    9  C   UNL     1      -7.809  16.451  69.374  1.00  0.00    -0.047 C  
HETATM   10  N   UNL     1     -10.103  13.513  65.120  1.00  0.00    -0.513 NA 
HETATM   11  C   UNL     1      -8.666  15.203  67.035  1.00  0.00    -0.238 C  
HETATM   12  H   UNL     1      -9.519  13.678  64.301  1.00  0.00     0.000 HD 
HETATM   13  O   UNL     1      -7.730  15.613  66.344  1.00  0.00    -0.042 OA 
HETATM   14  N   UNL     1      -8.830  15.646  68.761  1.00  0.00    -0.193 N  
HETATM   15  C   UNL     1     -11.197  12.780  65.205  1.00  0.00    -0.292 A  
HETATM   16  C   UNL     1     -10.127  15.096  69.830  1.00  0.00    -0.128 C  
HETATM   17 CL   UNL     1     -11.952  12.025  63.874  1.00  0.00    -0.528 Cl 
HETATM   18  N   UNL     1     -11.815  12.621  66.432  1.00  0.00    -0.462 NA 
ENDROOT
BRANCH   4  19
HETATM   19  C   UNL     2      -9.321  13.755  68.426  1.00  0.00    -0.190 C  
BRANCH  19  20
HETATM   20  C   UNL     2      -8.464  12.503  67.551  1.00  0.00    -0.177 C  
BRANCH  20  21
HETATM   21  O   UNL     2      -7.531  11.821  68.402  1.00  0.00    -0.091 OA 
BRANCH  21  22
HETATM   22  C   UNL     2      -7.316  10.444  67.963  1.00  0.00    -0.085 C  
BRANCH  22  23
HETATM   23  C   UNL     2      -7.738   9.451  69.055  1.00  0.00    -0.075 A  
HETATM   24  C   UNL     2      -8.525   9.911  70.133  1.00  0.00    -0.144 A  
HETATM   25  C   UNL     2      -7.588   8.062  68.909  1.00  0.00    -0.099 A  
HETATM   26  C   UNL     2      -9.205   9.014  70.965  1.00  0.00    -0.331 A  
HETATM   27  C   UNL     2      -9.084   7.643  70.761  1.00  0.00    -0.153 A  
HETATM   28  C   UNL     2      -8.253   7.168  69.753  1.00  0.00    -0.131 A  
ENDBRANCH  22  23
BRANCH  22  29
HETATM   29  C   UNL     2      -7.973  10.322  66.596  1.00  0.00    -0.116 A  
HETATM   30  C   UNL     2      -9.131   9.778  64.083  1.00  0.00    -0.289 A  
HETATM   31  C   UNL     2      -7.811  10.209  64.163  1.00  0.00    -0.145 A  
HETATM   32  C   UNL     2      -9.317   9.925  66.492  1.00  0.00    -0.206 A  
HETATM   33  C   UNL     2      -7.235  10.459  65.410  1.00  0.00    -0.121 A  
HETATM   34  C   UNL     2      -9.885   9.639  65.245  1.00  0.00    -0.269 A  
ENDBRANCH  22  29
ENDBRANCH  21  22
ENDBRANCH  20  21
ENDBRANCH  19  20
ENDBRANCH   4  19
TORSDOF 6
ENDMDL
MODEL      141
REMARK 921   NORMALIZED FREE ENERGY PREDICTED BY IDOCK:   -3.98 KCAL/MOL
REMARK 922        TOTAL FREE ENERGY PREDICTED BY IDOCK:   -3.76 KCAL/MOL
REMARK 923 INTER-LIGAND FREE ENERGY PREDICTED BY IDOCK:   -6.10 KCAL/MOL
REMARK 924 INTRA-LIGAND FREE ENERGY PREDICTED BY IDOCK:    2.34 KCAL/MOL
REMARK 927      BINDING AFFINITY PREDICTED BY RF-SCORE:    0.00 PKD
ROOT
HETATM    1  C   UNL     1     -12.125  11.400  68.652  1.00  0.00    -0.145 C  
HETATM    2  N   UNL     1     -10.837  11.937  68.201  1.00  0.00    -0.209 N  
HETATM    3  C   UNL     2     -11.301  13.207  66.393  1.00  0.00    -0.315 C  
HETATM    4  N   UNL     2      -9.780  13.223  66.930  1.00  0.00    -0.241 NA 
HETATM    5  C   UNL     1      -9.789  11.144  66.984  1.00  0.00    -0.185 A  
HETATM    6  O   UNL     1     -11.210  14.259  69.538  1.00  0.00    -0.253 OA 
HETATM    7  C   UNL     1      -8.322  11.777  66.547  1.00  0.00    -0.093 A  
HETATM    8  C   UNL     2      -9.339  14.459  65.980  1.00  0.00    -0.132 C  
HETATM    9  C   UNL     1      -8.325  15.422  69.041  1.00  0.00    -0.223 C  
HETATM   10  N   UNL     1      -7.751  10.936  65.645  1.00  0.00    -0.340 NA 
HETATM   11  C   UNL     1      -7.695  13.399  67.232  1.00  0.00    -0.079 C  
HETATM   12  H   UNL     1      -6.830  11.010  65.213  1.00  0.00     0.000 HD 
HETATM   13  O   UNL     1      -6.566  13.825  66.980  1.00  0.00    -0.031 OA 
HETATM   14  N   UNL     1      -8.795  14.245  68.362  1.00  0.00    -0.184 N  
HETATM   15  C   UNL     1      -8.663  10.001  65.459  1.00  0.00    -0.155 A  
HETATM   16  C   UNL     1     -10.422  13.702  68.792  1.00  0.00    -0.202 C  
HETATM   17 CL   UNL     1      -8.527   8.739  64.318  1.00  0.00    -0.159 Cl 
HETATM   18  N   UNL     1      -9.833  10.036  66.196  1.00  0.00    -0.230 NA 
ENDROOT
BRANCH   4  19
HETATM   19  C   UNL     2      -8.895  12.276  68.560  1.00  0.00    -0.068 C  
BRANCH  19  20
HETATM   20  C   UNL     2      -8.188  10.695  68.819  1.00  0.00    -0.142 C  
BRANCH  20  21
HETATM   21  O   UNL     2      -8.567  10.160  70.096  1.00  0.00    -0.104 OA 
BRANCH  21  22
HETATM   22  C   UNL     2      -8.867   8.732  70.009  1.00  0.00    -0.146 C  
BRANCH  22  23
HETATM   23  C   UNL     2      -7.766   7.901  70.684  1.00  0.00    -0.090 A  
HETATM   24  C   UNL     2      -7.717   7.845  72.093  1.00  0.00    -0.119 A  
HETATM   25  C   UNL     2      -6.958   7.002  69.970  1.00  0.00    -0.062 A  
HETATM   26  C   UNL     2      -6.962   6.865  72.750  1.00  0.00    -0.070 A  
HETATM   27  C   UNL     2      -6.216   5.949  72.016  1.00  0.00    -0.044 A  
HETATM   28  C   UNL     2      -6.191   6.036  70.629  1.00  0.00    -0.035 A  
ENDBRANCH  22  23
BRANCH  22  29
HETATM   29  C   UNL     2     -10.294   8.562  70.507  1.00  0.00    -0.226 A  
HETATM   30  C   UNL     2     -12.810   8.153  71.713  1.00  0.00    -0.355 A  
HETATM   31  C   UNL     2     -12.249   7.160  70.918  1.00  0.00    -0.354 A  
HETATM   32  C   UNL     2     -10.897   9.570  71.280  1.00  0.00    -0.413 A  
HETATM   33  C   UNL     2     -10.995   7.357  70.338  1.00  0.00    -0.269 A  
HETATM   34  C   UNL     2     -12.138   9.359  71.892  1.00  0.00    -0.427 A  
ENDBRANCH  22  29
ENDBRANCH  21  22
ENDBRANCH  20  21
ENDBRANCH  19  20
ENDBRANCH   4  19
TORSDOF 6
ENDMDL
MODEL      142
REMARK 921   NORMALIZED FREE ENERGY PREDICTED BY IDOCK:   -3.97 KCAL/MOL
REMARK 922        TOTAL FREE ENERGY PREDICTED BY IDOCK:   -3.75 KCAL/MOL
REMARK 923 INTER-LIGAND FREE ENERGY PREDICTED BY IDOCK:   -7.20 KCAL/MOL
REMARK 924 INTRA-LIGAND FREE ENERGY PREDICTED BY IDOCK:    3.45 KCAL/MOL
REMARK 927      BINDING AFFINITY PREDICTED BY RF-SCORE:    0.00 PKD
ROOT
HETATM    1  C   UNL     1     -11.590   6.434  69.612  1.00  0.00    -0.282 C  
HETATM    2  N   UNL     1     -10.212   6.483  69.109  1.00  0.00    -0.170 N  
HETATM    3  C   UNL     2      -9.579   4.332  68.846  1.00  0.00    -0.157 C  
HETATM    4  N   UNL     2      -8.552   5.466  68.337  1.00  0.00    -0.096 NA 
HETATM    5  C   UNL     1      -8.759   6.455  70.155  1.00  0.00    -0.139 A  
HETATM    6  O   UNL     1     -11.025   6.229  66.540  1.00  0.00    -0.234 OA 
HETATM    7  C   UNL     1      -7.229   6.558  69.529  1.00  0.00    -0.082 A  
HETATM    8  C   UNL     2      -7.587   4.410  67.577  1.00  0.00    -0.077 C  
HETATM    9  C   UNL     1      -8.206   6.737  65.226  1.00  0.00    -0.127 C  
HETATM   10  N   UNL     1      -6.348   6.553  70.565  1.00  0.00    -0.038 NA 
HETATM   11  C   UNL     1      -6.910   6.629  67.690  1.00  0.00    -0.080 C  
HETATM   12  H   UNL     1      -5.334   6.648  70.527  1.00  0.00     0.000 HD 
HETATM   13  O   UNL     1      -5.780   6.799  67.226  1.00  0.00    -0.012 OA 
HETATM   14  N   UNL     1      -8.358   6.543  66.642  1.00  0.00    -0.111 N  
HETATM   15  C   UNL     1      -7.110   6.397  71.631  1.00  0.00    -0.081 A  
HETATM   16  C   UNL     1     -10.014   6.316  67.220  1.00  0.00    -0.146 C  
HETATM   17 CL   UNL     1      -6.514   6.195  73.217  1.00  0.00    -0.067 Cl 
HETATM   18  N   UNL     1      -8.485   6.357  71.484  1.00  0.00    -0.129 NA 
ENDROOT
BRANCH   4  19
HETATM   19  C   UNL     2      -8.708   7.543  68.317  1.00  0.00    -0.123 C  
BRANCH  19  20
HETATM   20  C   UNL     2      -9.929   8.683  68.842  1.00  0.00    -0.189 C  
BRANCH  20  21
HETATM   21  O   UNL     2      -9.350   9.959  69.150  1.00  0.00    -0.171 OA 
BRANCH  21  22
HETATM   22  C   UNL     2     -10.368  10.920  69.572  1.00  0.00    -0.101 C  
BRANCH  22  23
HETATM   23  C   UNL     2     -11.082  11.527  68.356  1.00  0.00    -0.288 A  
HETATM   24  C   UNL     2     -11.707  12.786  68.486  1.00  0.00    -0.371 A  
HETATM   25  C   UNL     2     -10.935  11.007  67.060  1.00  0.00    -0.333 A  
HETATM   26  C   UNL     2     -12.079  13.527  67.358  1.00  0.00    -0.360 A  
HETATM   27  C   UNL     2     -11.868  13.012  66.082  1.00  0.00    -0.466 A  
HETATM   28  C   UNL     2     -11.324  11.741  65.935  1.00  0.00    -0.324 A  
ENDBRANCH  22  23
BRANCH  22  29
HETATM   29  C   UNL     2     -11.217  10.214  70.618  1.00  0.00    -0.418 A  
HETATM   30  C   UNL     2     -12.781   8.644  72.362  1.00  0.00    -0.423 A  
HETATM   31  C   UNL     2     -13.396   9.512  71.466  1.00  0.00    -0.470 A  
HETATM   32  C   UNL     2     -10.614   9.361  71.559  1.00  0.00    -0.331 A  
HETATM   33  C   UNL     2     -12.620  10.273  70.591  1.00  0.00    -0.391 A  
HETATM   34  C   UNL     2     -11.392   8.571  72.412  1.00  0.00    -0.412 A  
ENDBRANCH  22  29
ENDBRANCH  21  22
ENDBRANCH  20  21
ENDBRANCH  19  20
ENDBRANCH   4  19
TORSDOF 6
ENDMDL
MODEL      143
REMARK 921   NORMALIZED FREE ENERGY PREDICTED BY IDOCK:   -3.96 KCAL/MOL
REMARK 922        TOTAL FREE ENERGY PREDICTED BY IDOCK:   -3.73 KCAL/MOL
REMARK 923 INTER-LIGAND FREE ENERGY PREDICTED BY IDOCK:   -5.86 KCAL/MOL
REMARK 924 INTRA-LIGAND FREE ENERGY PREDICTED BY IDOCK:    2.13 KCAL/MOL
REMARK 927      BINDING AFFINITY PREDICTED BY RF-SCORE:    0.00 PKD
ROOT
HETATM    1  C   UNL     1      -6.458  10.511  69.172  1.00  0.00    -0.054 C  
HETATM    2  N   UNL     1      -7.577   9.738  68.623  1.00  0.00    -0.078 N  
HETATM    3  C   UNL     2      -8.690  11.153  67.260  1.00  0.00    -0.139 C  
HETATM    4  N   UNL     2      -9.181   9.617  67.283  1.00  0.00    -0.134 NA 
HETATM    5  C   UNL     1      -9.207   9.666  69.362  1.00  0.00    -0.189 A  
HETATM    6  O   UNL     1      -6.204   9.144  66.368  1.00  0.00    -0.062 OA 
HETATM    7  C   UNL     1     -10.418   8.738  68.718  1.00  0.00    -0.191 A  
HETATM    8  C   UNL     2     -10.160   9.794  66.004  1.00  0.00    -0.251 C  
HETATM    9  C   UNL     1      -8.303   7.104  65.203  1.00  0.00    -0.076 C  
HETATM   10  N   UNL     1     -11.512   8.858  69.518  1.00  0.00    -0.362 NA 
HETATM   11  C   UNL     1     -10.195   7.767  67.138  1.00  0.00    -0.295 C  
HETATM   12  H   UNL     1     -12.409   8.383  69.429  1.00  0.00     0.000 HD 
HETATM   13  O   UNL     1     -11.063   7.004  66.708  1.00  0.00    -0.289 OA 
HETATM   14  N   UNL     1      -8.601   7.930  66.340  1.00  0.00    -0.139 N  
HETATM   15  C   UNL     1     -11.142   9.731  70.435  1.00  0.00    -0.307 A  
HETATM   16  C   UNL     1      -7.294   8.987  66.893  1.00  0.00    -0.086 C  
HETATM   17 CL   UNL     1     -12.177  10.356  71.639  1.00  0.00    -0.409 Cl 
HETATM   18  N   UNL     1      -9.846  10.216  70.429  1.00  0.00    -0.009 NA 
ENDROOT
BRANCH   4  19
HETATM   19  C   UNL     2      -8.453   7.962  68.316  1.00  0.00    -0.124 C  
BRANCH  19  20
HETATM   20  C   UNL     2      -7.503   7.751  69.773  1.00  0.00    -0.089 C  
BRANCH  20  21
HETATM   21  O   UNL     2      -7.615   6.411  70.275  1.00  0.00    -0.092 OA 
BRANCH  21  22
HETATM   22  C   UNL     2      -8.809   5.745  69.758  1.00  0.00    -0.126 C  
BRANCH  22  23
HETATM   23  C   UNL     2      -8.427   4.609  68.798  1.00  0.00    -0.092 A  
HETATM   24  C   UNL     2      -7.217   3.913  69.007  1.00  0.00    -0.054 A  
HETATM   25  C   UNL     2      -9.334   4.069  67.872  1.00  0.00    -0.220 A  
HETATM   26  C   UNL     2      -6.976   2.683  68.384  1.00  0.00    -0.048 A  
HETATM   27  C   UNL     2      -7.919   2.142  67.515  1.00  0.00    -0.064 A  
HETATM   28  C   UNL     2      -9.083   2.849  67.237  1.00  0.00    -0.202 A  
ENDBRANCH  22  23
BRANCH  22  29
HETATM   29  C   UNL     2      -9.664   5.398  70.967  1.00  0.00    -0.235 A  
HETATM   30  C   UNL     2     -11.124   5.017  73.350  1.00  0.00    -0.404 A  
HETATM   31  C   UNL     2      -9.929   4.334  73.148  1.00  0.00    -0.191 A  
HETATM   32  C   UNL     2     -10.894   6.047  71.173  1.00  0.00    -0.338 A  
HETATM   33  C   UNL     2      -9.200   4.539  71.976  1.00  0.00    -0.170 A  
HETATM   34  C   UNL     2     -11.608   5.870  72.363  1.00  0.00    -0.341 A  
ENDBRANCH  22  29
ENDBRANCH  21  22
ENDBRANCH  20  21
ENDBRANCH  19  20
ENDBRANCH   4  19
TORSDOF 6
ENDMDL
MODEL      144
REMARK 921   NORMALIZED FREE ENERGY PREDICTED BY IDOCK:   -3.94 KCAL/MOL
REMARK 922        TOTAL FREE ENERGY PREDICTED BY IDOCK:   -3.71 KCAL/MOL
REMARK 923 INTER-LIGAND FREE ENERGY PREDICTED BY IDOCK:   -6.27 KCAL/MOL
REMARK 924 INTRA-LIGAND FREE ENERGY PREDICTED BY IDOCK:    2.56 KCAL/MOL
REMARK 927      BINDING AFFINITY PREDICTED BY RF-SCORE:    0.00 PKD
ROOT
HETATM    1  C   UNL     1      -7.913   9.705  64.379  1.00  0.00    -0.138 C  
HETATM    2  N   UNL     1      -7.778   9.227  65.759  1.00  0.00    -0.097 N  
HETATM    3  C   UNL     2      -5.879   8.006  65.803  1.00  0.00    -0.037 C  
HETATM    4  N   UNL     2      -6.626   8.253  67.211  1.00  0.00    -0.057 NA 
HETATM    5  C   UNL     1      -8.425   7.664  66.349  1.00  0.00    -0.137 A  
HETATM    6  O   UNL     1      -6.116  11.258  66.417  1.00  0.00    -0.140 OA 
HETATM    7  C   UNL     1      -8.280   7.199  67.932  1.00  0.00    -0.119 A  
HETATM    8  C   UNL     2      -5.398   7.669  68.092  1.00  0.00    -0.027 C  
HETATM    9  C   UNL     1      -6.028  10.656  69.509  1.00  0.00    -0.048 C  
HETATM   10  N   UNL     1      -8.899   5.998  68.077  1.00  0.00    -0.112 NA 
HETATM   11  C   UNL     1      -7.365   8.232  69.192  1.00  0.00    -0.081 C  
HETATM   12  H   UNL     1      -9.030   5.459  68.932  1.00  0.00     0.000 HD 
HETATM   13  O   UNL     1      -7.335   7.934  70.388  1.00  0.00    -0.065 OA 
HETATM   14  N   UNL     1      -6.622   9.739  68.575  1.00  0.00    -0.051 N  
HETATM   15  C   UNL     1      -9.292   5.692  66.855  1.00  0.00    -0.125 A  
HETATM   16  C   UNL     1      -6.628  10.253  66.882  1.00  0.00    -0.076 C  
HETATM   17 CL   UNL     1     -10.025   4.212  66.424  1.00  0.00    -0.220 Cl 
HETATM   18  N   UNL     1      -9.082   6.594  65.828  1.00  0.00    -0.037 NA 
ENDROOT
BRANCH   4  19
HETATM   19  C   UNL     2      -8.343   9.335  67.679  1.00  0.00    -0.116 C  
BRANCH  19  20
HETATM   20  C   UNL     2      -8.674  11.024  68.002  1.00  0.00    -0.138 C  
BRANCH  20  21
HETATM   21  O   UNL     2      -9.446  11.181  69.201  1.00  0.00    -0.117 OA 
BRANCH  21  22
HETATM   22  C   UNL     2     -10.880  11.096  68.928  1.00  0.00    -0.216 C  
BRANCH  22  23
HETATM   23  C   UNL     2     -11.564  10.130  69.906  1.00  0.00    -0.290 A  
HETATM   24  C   UNL     2     -10.780   9.170  70.582  1.00  0.00    -0.313 A  
HETATM   25  C   UNL     2     -12.885  10.314  70.345  1.00  0.00    -0.202 A  
HETATM   26  C   UNL     2     -11.275   8.496  71.706  1.00  0.00    -0.379 A  
HETATM   27  C   UNL     2     -12.569   8.741  72.154  1.00  0.00    -0.463 A  
HETATM   28  C   UNL     2     -13.383   9.627  71.456  1.00  0.00    -0.468 A  
ENDBRANCH  22  23
BRANCH  22  29
HETATM   29  C   UNL     2     -11.391  12.527  68.866  1.00  0.00    -0.346 A  
HETATM   30  C   UNL     2     -12.029  15.270  68.710  1.00  0.00    -0.279 A  
HETATM   31  C   UNL     2     -11.881  14.658  69.950  1.00  0.00    -0.372 A  
HETATM   32  C   UNL     2     -11.585  13.154  67.622  1.00  0.00    -0.392 A  
HETATM   33  C   UNL     2     -11.546  13.305  70.024  1.00  0.00    -0.212 A  
HETATM   34  C   UNL     2     -11.884  14.519  67.547  1.00  0.00    -0.404 A  
ENDBRANCH  22  29
ENDBRANCH  21  22
ENDBRANCH  20  21
ENDBRANCH  19  20
ENDBRANCH   4  19
TORSDOF 6
ENDMDL
MODEL      145
REMARK 921   NORMALIZED FREE ENERGY PREDICTED BY IDOCK:   -3.91 KCAL/MOL
REMARK 922        TOTAL FREE ENERGY PREDICTED BY IDOCK:   -3.67 KCAL/MOL
REMARK 923 INTER-LIGAND FREE ENERGY PREDICTED BY IDOCK:   -6.30 KCAL/MOL
REMARK 924 INTRA-LIGAND FREE ENERGY PREDICTED BY IDOCK:    2.64 KCAL/MOL
REMARK 927      BINDING AFFINITY PREDICTED BY RF-SCORE:    0.00 PKD
ROOT
HETATM    1  C   UNL     1     -11.422   9.944  71.122  1.00  0.00    -0.383 C  
HETATM    2  N   UNL     1     -10.280   9.472  70.330  1.00  0.00    -0.260 N  
HETATM    3  C   UNL     2     -10.547   7.239  70.138  1.00  0.00    -0.232 C  
HETATM    4  N   UNL     2      -9.331   7.906  69.315  1.00  0.00    -0.149 NA 
HETATM    5  C   UNL     1      -8.732   8.910  71.035  1.00  0.00    -0.224 A  
HETATM    6  O   UNL     1     -11.709   9.526  68.034  1.00  0.00     0.507 OA 
HETATM    7  C   UNL     1      -7.462   8.431  70.086  1.00  0.00    -0.063 A  
HETATM    8  C   UNL     2      -9.021   6.562  68.465  1.00  0.00    -0.126 C  
HETATM    9  C   UNL     1      -9.293   8.938  66.099  1.00  0.00    -0.239 C  
HETATM   10  N   UNL     1      -6.425   8.104  70.902  1.00  0.00    -0.036 NA 
HETATM   11  C   UNL     1      -7.582   8.369  68.222  1.00  0.00    -0.098 C  
HETATM   12  H   UNL     1      -5.485   7.814  70.636  1.00  0.00     0.000 HD 
HETATM   13  O   UNL     1      -6.610   8.102  67.511  1.00  0.00    -0.056 OA 
HETATM   14  N   UNL     1      -9.166   8.823  67.526  1.00  0.00    -0.136 N  
HETATM   15  C   UNL     1      -6.918   8.249  72.117  1.00  0.00    -0.088 A  
HETATM   16  C   UNL     1     -10.607   9.233  68.467  1.00  0.00    -0.183 C  
HETATM   17 CL   UNL     1      -6.079   7.848  73.548  1.00  0.00    -0.070 Cl 
HETATM   18  N   UNL     1      -8.208   8.724  72.276  1.00  0.00    -0.383 NA 
ENDROOT
BRANCH   4  19
HETATM   19  C   UNL     2      -8.726   9.890  69.136  1.00  0.00    -0.159 C  
BRANCH  19  20
HETATM   20  C   UNL     2      -9.566  11.427  69.104  1.00  0.00     0.121 C  
BRANCH  20  21
HETATM   21  O   UNL     2      -9.201  12.194  67.948  1.00  0.00    -0.175 OA 
BRANCH  21  22
HETATM   22  C   UNL     2     -10.056  13.370  67.796  1.00  0.00    -0.232 C  
BRANCH  22  23
HETATM   23  C   UNL     2      -9.220  14.658  67.820  1.00  0.00    -0.196 A  
HETATM   24  C   UNL     2      -7.869  14.605  67.417  1.00  0.00    -0.225 A  
HETATM   25  C   UNL     2      -9.798  15.927  67.987  1.00  0.00    -0.218 A  
HETATM   26  C   UNL     2      -7.162  15.773  67.106  1.00  0.00    -0.241 A  
HETATM   27  C   UNL     2      -7.778  17.015  67.225  1.00  0.00    -0.196 A  
HETATM   28  C   UNL     2      -9.085  17.093  67.693  1.00  0.00    -0.227 A  
ENDBRANCH  22  23
BRANCH  22  29
HETATM   29  C   UNL     2     -10.931  13.111  66.579  1.00  0.00    -0.303 A  
HETATM   30  C   UNL     2     -12.324  12.780  64.150  1.00  0.00    -0.485 A  
HETATM   31  C   UNL     2     -12.636  13.842  64.992  1.00  0.00    -0.427 A  
HETATM   32  C   UNL     2     -10.660  12.021  65.734  1.00  0.00    -0.301 A  
HETATM   33  C   UNL     2     -11.931  14.014  66.185  1.00  0.00    -0.440 A  
HETATM   34  C   UNL     2     -11.340  11.868  64.520  1.00  0.00    -0.382 A  
ENDBRANCH  22  29
ENDBRANCH  21  22
ENDBRANCH  20  21
ENDBRANCH  19  20
ENDBRANCH   4  19
TORSDOF 6
ENDMDL
MODEL      146
REMARK 921   NORMALIZED FREE ENERGY PREDICTED BY IDOCK:   -3.91 KCAL/MOL
REMARK 922        TOTAL FREE ENERGY PREDICTED BY IDOCK:   -3.66 KCAL/MOL
REMARK 923 INTER-LIGAND FREE ENERGY PREDICTED BY IDOCK:   -6.73 KCAL/MOL
REMARK 924 INTRA-LIGAND FREE ENERGY PREDICTED BY IDOCK:    3.07 KCAL/MOL
REMARK 927      BINDING AFFINITY PREDICTED BY RF-SCORE:    0.00 PKD
ROOT
HETATM    1  C   UNL     1      -9.646  15.353  69.108  1.00  0.00    -0.253 C  
HETATM    2  N   UNL     1     -10.074  14.210  68.293  1.00  0.00    -0.234 N  
HETATM    3  C   UNL     2     -12.085  14.782  67.441  1.00  0.00    -0.091 C  
HETATM    4  N   UNL     2     -11.441  13.393  66.933  1.00  0.00    -0.327 NA 
HETATM    5  C   UNL     1     -11.071  12.855  68.908  1.00  0.00    -0.255 A  
HETATM    6  O   UNL     1      -9.139  15.340  66.019  1.00  0.00    -0.310 OA 
HETATM    7  C   UNL     1     -11.485  11.569  67.950  1.00  0.00    -0.301 A  
HETATM    8  C   UNL     2     -12.532  13.190  65.753  1.00  0.00    -0.377 C  
HETATM    9  C   UNL     1      -9.586  12.830  64.168  1.00  0.00     0.412 C  
HETATM   10  N   UNL     1     -12.201  10.694  68.704  1.00  0.00    -0.814 NA 
HETATM   11  C   UNL     1     -11.010  11.480  66.145  1.00  0.00    -0.266 C  
HETATM   12  H   UNL     1     -12.567   9.783  68.431  1.00  0.00     0.000 HD 
HETATM   13  O   UNL     1     -11.237  10.483  65.455  1.00  0.00     0.307 OA 
HETATM   14  N   UNL     1     -10.111  12.888  65.504  1.00  0.00    -0.276 N  
HETATM   15  C   UNL     1     -12.313  11.297  69.873  1.00  0.00    -0.233 A  
HETATM   16  C   UNL     1      -9.729  14.351  66.423  1.00  0.00    -0.302 C  
HETATM   17 CL   UNL     1     -13.233  10.698  71.179  1.00  0.00    -0.386 Cl 
HETATM   18  N   UNL     1     -11.681  12.511  70.074  1.00  0.00    -0.270 NA 
ENDROOT
BRANCH   4  19
HETATM   19  C   UNL     2      -9.623  12.483  67.382  1.00  0.00    -0.192 C  
BRANCH  19  20
HETATM   20  C   UNL     2      -9.018  10.842  67.279  1.00  0.00    -0.137 C  
BRANCH  20  21
HETATM   21  O   UNL     2      -9.428  10.066  68.414  1.00  0.00    -0.138 OA 
BRANCH  21  22
HETATM   22  C   UNL     2      -8.340   9.221  68.904  1.00  0.00    -0.120 C  
BRANCH  22  23
HETATM   23  C   UNL     2      -8.428   9.048  70.427  1.00  0.00    -0.201 A  
HETATM   24  C   UNL     2      -9.693   9.107  71.051  1.00  0.00    -0.359 A  
HETATM   25  C   UNL     2      -7.346   8.591  71.196  1.00  0.00    -0.080 A  
HETATM   26  C   UNL     2      -9.875   8.639  72.358  1.00  0.00    -0.315 A  
HETATM   27  C   UNL     2      -8.794   8.137  73.078  1.00  0.00    -0.316 A  
HETATM   28  C   UNL     2      -7.526   8.141  72.507  1.00  0.00    -0.149 A  
ENDBRANCH  22  23
BRANCH  22  29
HETATM   29  C   UNL     2      -8.350   7.967  68.043  1.00  0.00    -0.126 A  
HETATM   30  C   UNL     2      -8.364   5.842  66.190  1.00  0.00    -0.122 A  
HETATM   31  C   UNL     2      -9.558   6.289  66.745  1.00  0.00    -0.183 A  
HETATM   32  C   UNL     2      -7.150   7.473  67.501  1.00  0.00    -0.085 A  
HETATM   33  C   UNL     2      -9.549   7.354  67.647  1.00  0.00    -0.164 A  
HETATM   34  C   UNL     2      -7.161   6.430  66.569  1.00  0.00    -0.068 A  
ENDBRANCH  22  29
ENDBRANCH  21  22
ENDBRANCH  20  21
ENDBRANCH  19  20
ENDBRANCH   4  19
TORSDOF 6
ENDMDL
MODEL      147
REMARK 921   NORMALIZED FREE ENERGY PREDICTED BY IDOCK:   -3.91 KCAL/MOL
REMARK 922        TOTAL FREE ENERGY PREDICTED BY IDOCK:   -3.66 KCAL/MOL
REMARK 923 INTER-LIGAND FREE ENERGY PREDICTED BY IDOCK:   -6.54 KCAL/MOL
REMARK 924 INTRA-LIGAND FREE ENERGY PREDICTED BY IDOCK:    2.88 KCAL/MOL
REMARK 927      BINDING AFFINITY PREDICTED BY RF-SCORE:    0.00 PKD
ROOT
HETATM    1  C   UNL     1      -9.165  15.257  69.276  1.00  0.00    -0.233 C  
HETATM    2  N   UNL     1      -9.873  14.270  68.454  1.00  0.00    -0.228 N  
HETATM    3  C   UNL     2     -11.868  15.203  67.958  1.00  0.00    -0.202 C  
HETATM    4  N   UNL     2     -11.525  13.790  67.259  1.00  0.00    -0.324 NA 
HETATM    5  C   UNL     1     -10.975  13.020  69.111  1.00  0.00    -0.140 A  
HETATM    6  O   UNL     1      -9.095  15.464  66.154  1.00  0.00    -0.306 OA 
HETATM    7  C   UNL     1     -11.712  11.903  68.136  1.00  0.00    -0.320 A  
HETATM    8  C   UNL     2     -12.785  13.858  66.244  1.00  0.00    -0.213 C  
HETATM    9  C   UNL     1     -10.177  13.230  64.213  1.00  0.00    -0.196 C  
HETATM   10  N   UNL     1     -12.445  11.073  68.924  1.00  0.00    -0.652 NA 
HETATM   11  C   UNL     1     -11.509  11.918  66.278  1.00  0.00    -0.301 C  
HETATM   12  H   UNL     1     -12.983  10.254  68.643  1.00  0.00     0.000 HD 
HETATM   13  O   UNL     1     -11.981  11.034  65.560  1.00  0.00     0.555 OA 
HETATM   14  N   UNL     1     -10.498  13.236  65.614  1.00  0.00    -0.276 N  
HETATM   15  C   UNL     1     -12.299  11.573  70.136  1.00  0.00    -0.245 A  
HETATM   16  C   UNL     1      -9.771  14.536  66.569  1.00  0.00    -0.285 C  
HETATM   17 CL   UNL     1     -13.114  10.992  71.519  1.00  0.00    -0.523 Cl 
HETATM   18  N   UNL     1     -11.465  12.659  70.328  1.00  0.00     0.052 NA 
ENDROOT
BRANCH   4  19
HETATM   19  C   UNL     2      -9.826  12.590  67.362  1.00  0.00    -0.201 C  
BRANCH  19  20
HETATM   20  C   UNL     2      -9.541  10.904  67.744  1.00  0.00    -0.164 C  
BRANCH  20  21
HETATM   21  O   UNL     2      -8.181  10.534  67.476  1.00  0.00    -0.114 OA 
BRANCH  21  22
HETATM   22  C   UNL     2      -8.029   9.083  67.388  1.00  0.00    -0.100 C  
BRANCH  22  23
HETATM   23  C   UNL     2      -9.131   8.370  68.186  1.00  0.00    -0.138 A  
HETATM   24  C   UNL     2     -10.156   7.697  67.488  1.00  0.00    -0.264 A  
HETATM   25  C   UNL     2      -9.033   8.148  69.569  1.00  0.00    -0.151 A  
HETATM   26  C   UNL     2     -10.983   6.772  68.136  1.00  0.00    -0.277 A  
HETATM   27  C   UNL     2     -10.826   6.528  69.497  1.00  0.00    -0.360 A  
HETATM   28  C   UNL     2      -9.872   7.237  70.218  1.00  0.00    -0.179 A  
ENDBRANCH  22  23
BRANCH  22  29
HETATM   29  C   UNL     2      -7.896   8.755  65.908  1.00  0.00    -0.102 A  
HETATM   30  C   UNL     2      -7.966   8.089  63.169  1.00  0.00    -0.143 A  
HETATM   31  C   UNL     2      -7.599   7.133  64.109  1.00  0.00    -0.109 A  
HETATM   32  C   UNL     2      -8.225   9.719  64.939  1.00  0.00    -0.142 A  
HETATM   33  C   UNL     2      -7.583   7.460  65.466  1.00  0.00    -0.094 A  
HETATM   34  C   UNL     2      -8.276   9.382  63.582  1.00  0.00    -0.169 A  
ENDBRANCH  22  29
ENDBRANCH  21  22
ENDBRANCH  20  21
ENDBRANCH  19  20
ENDBRANCH   4  19
TORSDOF 6
ENDMDL
MODEL      148
REMARK 921   NORMALIZED FREE ENERGY PREDICTED BY IDOCK:   -3.91 KCAL/MOL
REMARK 922        TOTAL FREE ENERGY PREDICTED BY IDOCK:   -3.66 KCAL/MOL
REMARK 923 INTER-LIGAND FREE ENERGY PREDICTED BY IDOCK:   -5.97 KCAL/MOL
REMARK 924 INTRA-LIGAND FREE ENERGY PREDICTED BY IDOCK:    2.32 KCAL/MOL
REMARK 927      BINDING AFFINITY PREDICTED BY RF-SCORE:    0.00 PKD
ROOT
HETATM    1  C   UNL     1     -11.270   9.267  70.642  1.00  0.00    -0.276 C  
HETATM    2  N   UNL     1     -10.207   8.271  70.818  1.00  0.00    -0.190 N  
HETATM    3  C   UNL     2      -9.889   8.101  73.047  1.00  0.00    -0.249 C  
HETATM    4  N   UNL     2      -9.071   7.075  72.108  1.00  0.00    -0.131 NA 
HETATM    5  C   UNL     1      -8.464   8.667  70.916  1.00  0.00    -0.166 A  
HETATM    6  O   UNL     1     -11.992   6.281  71.238  1.00  0.00    -0.279 OA 
HETATM    7  C   UNL     1      -7.307   7.492  71.070  1.00  0.00    -0.071 A  
HETATM    8  C   UNL     2      -8.568   6.165  73.350  1.00  0.00    -0.122 C  
HETATM    9  C   UNL     1      -9.903   3.923  71.225  1.00  0.00    -0.157 C  
HETATM   10  N   UNL     1      -6.089   8.097  71.075  1.00  0.00    -0.033 NA 
HETATM   11  C   UNL     1      -7.743   5.683  71.232  1.00  0.00    -0.109 C  
HETATM   12  H   UNL     1      -5.170   7.657  71.110  1.00  0.00     0.000 HD 
HETATM   13  O   UNL     1      -6.882   4.800  71.254  1.00  0.00    -0.039 OA 
HETATM   14  N   UNL     1      -9.491   5.300  71.249  1.00  0.00    -0.147 N  
HETATM   15  C   UNL     1      -6.372   9.385  71.022  1.00  0.00    -0.082 A  
HETATM   16  C   UNL     1     -10.792   6.498  71.206  1.00  0.00    -0.249 C  
HETATM   17 CL   UNL     1      -5.209  10.629  71.128  1.00  0.00    -0.097 Cl 
HETATM   18  N   UNL     1      -7.691   9.787  70.906  1.00  0.00    -0.266 NA 
ENDROOT
BRANCH   4  19
HETATM   19  C   UNL     2      -9.071   6.815  70.042  1.00  0.00    -0.148 C  
BRANCH  19  20
HETATM   20  C   UNL     2      -7.838   6.432  68.858  1.00  0.00    -0.110 C  
BRANCH  20  21
HETATM   21  O   UNL     2      -7.856   7.368  67.770  1.00  0.00    -0.110 OA 
BRANCH  21  22
HETATM   22  C   UNL     2      -9.179   7.444  67.152  1.00  0.00    -0.136 C  
BRANCH  22  23
HETATM   23  C   UNL     2      -9.477   8.872  66.675  1.00  0.00    -0.261 A  
HETATM   24  C   UNL     2      -9.137   9.239  65.356  1.00  0.00    -0.277 A  
HETATM   25  C   UNL     2     -10.291   9.754  67.404  1.00  0.00    -0.297 A  
HETATM   26  C   UNL     2      -9.669  10.393  64.768  1.00  0.00    -0.383 A  
HETATM   27  C   UNL     2     -10.520  11.219  65.495  1.00  0.00    -0.323 A  
HETATM   28  C   UNL     2     -10.807  10.915  66.821  1.00  0.00    -0.283 A  
ENDBRANCH  22  23
BRANCH  22  29
HETATM   29  C   UNL     2      -9.237   6.323  66.125  1.00  0.00    -0.143 A  
HETATM   30  C   UNL     2      -9.217   4.054  64.450  1.00  0.00    -0.151 A  
HETATM   31  C   UNL     2      -8.179   4.978  64.385  1.00  0.00    -0.128 A  
HETATM   32  C   UNL     2     -10.297   5.400  66.147  1.00  0.00    -0.191 A  
HETATM   33  C   UNL     2      -8.182   6.089  65.229  1.00  0.00    -0.138 A  
HETATM   34  C   UNL     2     -10.277   4.266  65.327  1.00  0.00    -0.234 A  
ENDBRANCH  22  29
ENDBRANCH  21  22
ENDBRANCH  20  21
ENDBRANCH  19  20
ENDBRANCH   4  19
TORSDOF 6
ENDMDL
MODEL      149
REMARK 921   NORMALIZED FREE ENERGY PREDICTED BY IDOCK:   -3.87 KCAL/MOL
REMARK 922        TOTAL FREE ENERGY PREDICTED BY IDOCK:   -3.61 KCAL/MOL
REMARK 923 INTER-LIGAND FREE ENERGY PREDICTED BY IDOCK:   -6.73 KCAL/MOL
REMARK 924 INTRA-LIGAND FREE ENERGY PREDICTED BY IDOCK:    3.11 KCAL/MOL
REMARK 927      BINDING AFFINITY PREDICTED BY RF-SCORE:    0.00 PKD
ROOT
HETATM    1  C   UNL     1      -7.174  12.873  67.745  1.00  0.00    -0.134 C  
HETATM    2  N   UNL     1      -8.127  11.772  67.566  1.00  0.00    -0.143 N  
HETATM    3  C   UNL     2      -9.345  12.306  65.742  1.00  0.00    -0.046 C  
HETATM    4  N   UNL     2      -9.602  10.855  66.398  1.00  0.00    -0.191 NA 
HETATM    5  C   UNL     1      -9.773  11.743  68.271  1.00  0.00    -0.199 A  
HETATM    6  O   UNL     1      -6.534  10.543  65.756  1.00  0.00    -0.115 OA 
HETATM    7  C   UNL     1     -10.787  10.449  68.070  1.00  0.00    -0.270 A  
HETATM    8  C   UNL     2     -10.510  10.333  65.161  1.00  0.00     0.001 C  
HETATM    9  C   UNL     1      -8.225   7.892  65.540  1.00  0.00    -0.140 C  
HETATM   10  N   UNL     1     -11.937  10.705  68.750  1.00  0.00    -0.736 NA 
HETATM   11  C   UNL     1     -10.317   8.969  67.031  1.00  0.00    -0.269 C  
HETATM   12  H   UNL     1     -12.745  10.095  68.866  1.00  0.00     0.000 HD 
HETATM   13  O   UNL     1     -11.032   7.967  66.956  1.00  0.00    -0.219 OA 
HETATM   14  N   UNL     1      -8.717   9.050  66.236  1.00  0.00    -0.129 N  
HETATM   15  C   UNL     1     -11.762  11.924  69.224  1.00  0.00    -0.328 A  
HETATM   16  C   UNL     1      -7.621  10.438  66.301  1.00  0.00    -0.127 C  
HETATM   17 CL   UNL     1     -12.957  12.808  70.063  1.00  0.00     0.491 Cl 
HETATM   18  N   UNL     1     -10.556  12.568  69.016  1.00  0.00    -0.113 NA 
ENDROOT
BRANCH   4  19
HETATM   19  C   UNL     2      -8.706   9.908  68.022  1.00  0.00    -0.125 C  
BRANCH  19  20
HETATM   20  C   UNL     2      -9.273   9.370  69.589  1.00  0.00    -0.185 C  
BRANCH  20  21
HETATM   21  O   UNL     2      -9.090   7.956  69.750  1.00  0.00    -0.146 OA 
BRANCH  21  22
HETATM   22  C   UNL     2      -9.521   7.509  71.073  1.00  0.00    -0.160 C  
BRANCH  22  23
HETATM   23  C   UNL     2      -8.565   8.020  72.160  1.00  0.00    -0.206 A  
HETATM   24  C   UNL     2      -8.903   7.825  73.517  1.00  0.00    -0.312 A  
HETATM   25  C   UNL     2      -7.261   8.452  71.872  1.00  0.00    -0.111 A  
HETATM   26  C   UNL     2      -7.944   7.967  74.527  1.00  0.00    -0.280 A  
HETATM   27  C   UNL     2      -6.642   8.339  74.207  1.00  0.00    -0.152 A  
HETATM   28  C   UNL     2      -6.309   8.610  72.884  1.00  0.00    -0.067 A  
ENDBRANCH  22  23
BRANCH  22  29
HETATM   29  C   UNL     2     -10.994   7.873  71.190  1.00  0.00    -0.262 A  
HETATM   30  C   UNL     2     -13.704   8.450  71.714  1.00  0.00    -0.432 A  
HETATM   31  C   UNL     2     -13.351   7.241  71.124  1.00  0.00    -0.256 A  
HETATM   32  C   UNL     2     -11.375   9.105  71.748  1.00  0.00    -0.451 A  
HETATM   33  C   UNL     2     -12.007   6.951  70.883  1.00  0.00    -0.430 A  
HETATM   34  C   UNL     2     -12.718   9.383  72.024  1.00  0.00    -0.483 A  
ENDBRANCH  22  29
ENDBRANCH  21  22
ENDBRANCH  20  21
ENDBRANCH  19  20
ENDBRANCH   4  19
TORSDOF 6
ENDMDL
MODEL      150
REMARK 921   NORMALIZED FREE ENERGY PREDICTED BY IDOCK:   -3.77 KCAL/MOL
REMARK 922        TOTAL FREE ENERGY PREDICTED BY IDOCK:   -3.48 KCAL/MOL
REMARK 923 INTER-LIGAND FREE ENERGY PREDICTED BY IDOCK:   -6.23 KCAL/MOL
REMARK 924 INTRA-LIGAND FREE ENERGY PREDICTED BY IDOCK:    2.75 KCAL/MOL
REMARK 927      BINDING AFFINITY PREDICTED BY RF-SCORE:    0.00 PKD
ROOT
HETATM    1  C   UNL     1      -8.157  10.333  69.363  1.00  0.00    -0.163 C  
HETATM    2  N   UNL     1      -8.218  10.095  67.916  1.00  0.00    -0.109 N  
HETATM    3  C   UNL     2      -6.385  11.092  67.054  1.00  0.00    -0.088 C  
HETATM    4  N   UNL     2      -7.296  10.229  66.041  1.00  0.00    -0.122 NA 
HETATM    5  C   UNL     1      -8.989  11.210  66.746  1.00  0.00    -0.165 A  
HETATM    6  O   UNL     1      -6.583   7.946  68.090  1.00  0.00    -0.056 OA 
HETATM    7  C   UNL     1      -9.065  10.864  65.128  1.00  0.00    -0.196 A  
HETATM    8  C   UNL     2      -6.213  10.288  64.838  1.00  0.00    -0.125 C  
HETATM    9  C   UNL     1      -6.913   7.007  65.101  1.00  0.00    -0.052 C  
HETATM   10  N   UNL     1      -9.740  11.871  64.512  1.00  0.00    -0.428 NA 
HETATM   11  C   UNL     1      -8.283   9.330  64.402  1.00  0.00    -0.151 C  
HETATM   12  H   UNL     1      -9.999  11.943  63.529  1.00  0.00     0.000 HD 
HETATM   13  O   UNL     1      -8.418   9.025  63.214  1.00  0.00    -0.193 OA 
HETATM   14  N   UNL     1      -7.415   8.275  65.557  1.00  0.00    -0.075 N  
HETATM   15  C   UNL     1      -9.984  12.731  65.483  1.00  0.00    -0.221 A  
HETATM   16  C   UNL     1      -7.186   8.626  67.275  1.00  0.00    -0.080 C  
HETATM   17 CL   UNL     1     -10.707  14.259  65.252  1.00  0.00    -0.349 Cl 
HETATM   18  N   UNL     1      -9.612  12.419  66.778  1.00  0.00    -0.219 NA 
ENDROOT
BRANCH   4  19
HETATM   19  C   UNL     2      -9.020   9.107  66.368  1.00  0.00    -0.149 C  
BRANCH  19  20
HETATM   20  C   UNL     2      -9.399   7.707  67.351  1.00  0.00    -0.141 C  
BRANCH  20  21
HETATM   21  O   UNL     2     -10.649   7.877  68.035  1.00  0.00    -0.200 OA 
BRANCH  21  22
HETATM   22  C   UNL     2     -10.882   6.801  68.997  1.00  0.00    -0.249 C  
BRANCH  22  23
HETATM   23  C   UNL     2      -9.620   5.945  69.173  1.00  0.00    -0.166 A  
HETATM   24  C   UNL     2      -8.625   6.369  70.079  1.00  0.00    -0.135 A  
HETATM   25  C   UNL     2      -9.518   4.641  68.662  1.00  0.00    -0.213 A  
HETATM   26  C   UNL     2      -7.629   5.489  70.522  1.00  0.00    -0.084 A  
HETATM   27  C   UNL     2      -7.587   4.184  70.042  1.00  0.00    -0.052 A  
HETATM   28  C   UNL     2      -8.512   3.770  69.091  1.00  0.00    -0.100 A  
ENDBRANCH  22  23
BRANCH  22  29
HETATM   29  C   UNL     2     -11.478   7.455  70.235  1.00  0.00    -0.206 A  
HETATM   30  C   UNL     2     -12.843   8.730  72.347  1.00  0.00    -0.434 A  
HETATM   31  C   UNL     2     -11.919   9.439  71.587  1.00  0.00    -0.465 A  
HETATM   32  C   UNL     2     -12.384   6.745  71.041  1.00  0.00    -0.370 A  
HETATM   33  C   UNL     2     -11.259   8.810  70.530  1.00  0.00    -0.278 A  
HETATM   34  C   UNL     2     -13.074   7.384  72.078  1.00  0.00    -0.192 A  
ENDBRANCH  22  29
ENDBRANCH  21  22
ENDBRANCH  20  21
ENDBRANCH  19  20
ENDBRANCH   4  19
TORSDOF 6
ENDMDL
MODEL      151
REMARK 921   NORMALIZED FREE ENERGY PREDICTED BY IDOCK:   -3.74 KCAL/MOL
REMARK 922        TOTAL FREE ENERGY PREDICTED BY IDOCK:   -3.44 KCAL/MOL
REMARK 923 INTER-LIGAND FREE ENERGY PREDICTED BY IDOCK:   -6.26 KCAL/MOL
REMARK 924 INTRA-LIGAND FREE ENERGY PREDICTED BY IDOCK:    2.82 KCAL/MOL
REMARK 927      BINDING AFFINITY PREDICTED BY RF-SCORE:    0.00 PKD
ROOT
HETATM    1  C   UNL     1      -6.895  10.246  70.203  1.00  0.00    -0.151 C  
HETATM    2  N   UNL     1      -7.923   9.480  69.489  1.00  0.00    -0.099 N  
HETATM    3  C   UNL     2      -9.170  11.006  68.387  1.00  0.00    -0.175 C  
HETATM    4  N   UNL     2      -9.497   9.452  68.108  1.00  0.00    -0.133 NA 
HETATM    5  C   UNL     1      -9.541   9.103  70.158  1.00  0.00    -0.206 A  
HETATM    6  O   UNL     1      -6.480   9.469  67.200  1.00  0.00    -0.065 OA 
HETATM    7  C   UNL     1     -10.644   8.195  69.320  1.00  0.00    -0.182 A  
HETATM    8  C   UNL     2     -10.480   9.767  66.860  1.00  0.00    -0.211 C  
HETATM    9  C   UNL     1      -8.345   7.482  65.618  1.00  0.00    -0.140 C  
HETATM   10  N   UNL     1     -11.749   8.048  70.099  1.00  0.00    -0.464 NA 
HETATM   11  C   UNL     1     -10.308   7.569  67.592  1.00  0.00    -0.229 C  
HETATM   12  H   UNL     1     -12.590   7.509  69.899  1.00  0.00     0.000 HD 
HETATM   13  O   UNL     1     -11.088   6.817  67.004  1.00  0.00    -0.403 OA 
HETATM   14  N   UNL     1      -8.736   8.043  66.882  1.00  0.00    -0.127 N  
HETATM   15  C   UNL     1     -11.479   8.765  71.173  1.00  0.00    -0.286 A  
HETATM   16  C   UNL     1      -7.552   9.104  67.657  1.00  0.00    -0.085 C  
HETATM   17 CL   UNL     1     -12.582   9.042  72.445  1.00  0.00    -0.433 Cl 
HETATM   18  N   UNL     1     -10.242   9.373  71.292  1.00  0.00    -0.308 NA 
ENDROOT
BRANCH   4  19
HETATM   19  C   UNL     2      -8.605   7.714  68.832  1.00  0.00    -0.129 C  
BRANCH  19  20
HETATM   20  C   UNL     2      -8.172   7.136  70.427  1.00  0.00    -0.126 C  
BRANCH  20  21
HETATM   21  O   UNL     2      -7.214   6.070  70.350  1.00  0.00    -0.077 OA 
BRANCH  21  22
HETATM   22  C   UNL     2      -7.703   4.863  71.016  1.00  0.00    -0.082 C  
BRANCH  22  23
HETATM   23  C   UNL     2      -8.681   5.222  72.144  1.00  0.00    -0.131 A  
HETATM   24  C   UNL     2      -8.183   5.832  73.315  1.00  0.00    -0.117 A  
HETATM   25  C   UNL     2     -10.074   5.197  71.968  1.00  0.00    -0.253 A  
HETATM   26  C   UNL     2      -9.042   6.470  74.218  1.00  0.00    -0.198 A  
HETATM   27  C   UNL     2     -10.414   6.480  73.989  1.00  0.00    -0.306 A  
HETATM   28  C   UNL     2     -10.932   5.819  72.881  1.00  0.00    -0.312 A  
ENDBRANCH  22  23
BRANCH  22  29
HETATM   29  C   UNL     2      -8.194   3.935  69.916  1.00  0.00    -0.068 A  
HETATM   30  C   UNL     2      -9.390   2.360  67.905  1.00  0.00    -0.237 A  
HETATM   31  C   UNL     2      -9.302   1.879  69.207  1.00  0.00    -0.176 A  
HETATM   32  C   UNL     2      -8.255   4.386  68.586  1.00  0.00    -0.083 A  
HETATM   33  C   UNL     2      -8.727   2.668  70.204  1.00  0.00    -0.126 A  
HETATM   34  C   UNL     2      -8.864   3.611  67.593  1.00  0.00    -0.143 A  
ENDBRANCH  22  29
ENDBRANCH  21  22
ENDBRANCH  20  21
ENDBRANCH  19  20
ENDBRANCH   4  19
TORSDOF 6
ENDMDL
MODEL      152
REMARK 921   NORMALIZED FREE ENERGY PREDICTED BY IDOCK:   -3.74 KCAL/MOL
REMARK 922        TOTAL FREE ENERGY PREDICTED BY IDOCK:   -3.43 KCAL/MOL
REMARK 923 INTER-LIGAND FREE ENERGY PREDICTED BY IDOCK:   -6.10 KCAL/MOL
REMARK 924 INTRA-LIGAND FREE ENERGY PREDICTED BY IDOCK:    2.67 KCAL/MOL
REMARK 927      BINDING AFFINITY PREDICTED BY RF-SCORE:    0.00 PKD
ROOT
HETATM    1  C   UNL     1      -6.516  13.221  67.488  1.00  0.00    -0.134 C  
HETATM    2  N   UNL     1      -7.880  12.706  67.646  1.00  0.00    -0.149 N  
HETATM    3  C   UNL     2      -9.070  13.587  65.941  1.00  0.00     0.363 C  
HETATM    4  N   UNL     2      -9.819  12.510  66.879  1.00  0.00    -0.223 NA 
HETATM    5  C   UNL     1      -9.171  13.542  68.564  1.00  0.00    -0.101 A  
HETATM    6  O   UNL     1      -7.442  10.697  65.887  1.00  0.00    -0.145 OA 
HETATM    7  C   UNL     1     -10.681  12.887  68.744  1.00  0.00    -0.218 A  
HETATM    8  C   UNL     2     -11.099  12.377  65.895  1.00  0.00    -0.313 C  
HETATM    9  C   UNL     1     -10.160   9.185  66.393  1.00  0.00    -0.274 C  
HETATM   10  N   UNL     1     -11.416  13.728  69.519  1.00  0.00    -0.327 NA 
HETATM   11  C   UNL     1     -11.167  11.273  67.938  1.00  0.00    -0.290 C  
HETATM   12  H   UNL     1     -12.370  13.599  69.855  1.00  0.00     0.000 HD 
HETATM   13  O   UNL     1     -12.259  10.738  68.146  1.00  0.00    -0.399 OA 
HETATM   14  N   UNL     1      -9.911  10.496  66.927  1.00  0.00    -0.193 N  
HETATM   15  C   UNL     1     -10.610  14.750  69.734  1.00  0.00    -0.112 A  
HETATM   16  C   UNL     1      -8.317  11.181  66.587  1.00  0.00    -0.160 C  
HETATM   17 CL   UNL     1     -11.064  16.175  70.556  1.00  0.00    -0.356 Cl 
HETATM   18  N   UNL     1      -9.315  14.709  69.248  1.00  0.00    -0.053 NA 
ENDROOT
BRANCH   4  19
HETATM   19  C   UNL     2      -9.138  11.406  68.509  1.00  0.00    -0.169 C  
BRANCH  19  20
HETATM   20  C   UNL     2      -9.865  10.216  69.569  1.00  0.00    -0.232 C  
BRANCH  20  21
HETATM   21  O   UNL     2      -9.032   9.055  69.693  1.00  0.00    -0.142 OA 
BRANCH  21  22
HETATM   22  C   UNL     2      -9.583   8.103  70.657  1.00  0.00    -0.166 C  
BRANCH  22  23
HETATM   23  C   UNL     2      -9.791   6.727  70.007  1.00  0.00    -0.179 A  
HETATM   24  C   UNL     2      -9.546   6.579  68.625  1.00  0.00    -0.125 A  
HETATM   25  C   UNL     2      -9.975   5.558  70.762  1.00  0.00    -0.263 A  
HETATM   26  C   UNL     2      -9.399   5.310  68.050  1.00  0.00    -0.135 A  
HETATM   27  C   UNL     2      -9.529   4.169  68.835  1.00  0.00    -0.238 A  
HETATM   28  C   UNL     2      -9.846   4.292  70.183  1.00  0.00    -0.271 A  
ENDBRANCH  22  23
BRANCH  22  29
HETATM   29  C   UNL     2      -8.698   8.182  71.891  1.00  0.00    -0.206 A  
HETATM   30  C   UNL     2      -7.039   8.004  74.165  1.00  0.00    -0.180 A  
HETATM   31  C   UNL     2      -8.418   8.101  74.315  1.00  0.00    -0.192 A  
HETATM   32  C   UNL     2      -7.299   8.124  71.762  1.00  0.00    -0.094 A  
HETATM   33  C   UNL     2      -9.238   8.170  73.187  1.00  0.00    -0.336 A  
HETATM   34  C   UNL     2      -6.479   8.019  72.891  1.00  0.00    -0.082 A  
ENDBRANCH  22  29
ENDBRANCH  21  22
ENDBRANCH  20  21
ENDBRANCH  19  20
ENDBRANCH   4  19
TORSDOF 6
ENDMDL
MODEL      153
REMARK 921   NORMALIZED FREE ENERGY PREDICTED BY IDOCK:   -3.71 KCAL/MOL
REMARK 922        TOTAL FREE ENERGY PREDICTED BY IDOCK:   -3.40 KCAL/MOL
REMARK 923 INTER-LIGAND FREE ENERGY PREDICTED BY IDOCK:   -6.45 KCAL/MOL
REMARK 924 INTRA-LIGAND FREE ENERGY PREDICTED BY IDOCK:    3.05 KCAL/MOL
REMARK 927      BINDING AFFINITY PREDICTED BY RF-SCORE:    0.00 PKD
ROOT
HETATM    1  C   UNL     1     -10.650  15.672  67.660  1.00  0.00    -0.294 C  
HETATM    2  N   UNL     1     -10.674  14.310  67.116  1.00  0.00    -0.279 N  
HETATM    3  C   UNL     2     -12.705  14.067  66.160  1.00  0.00    -0.265 C  
HETATM    4  N   UNL     2     -11.654  12.859  65.968  1.00  0.00    -0.354 NA 
HETATM    5  C   UNL     1     -11.272  12.879  68.012  1.00  0.00    -0.268 A  
HETATM    6  O   UNL     1      -9.964  15.166  64.649  1.00  0.00    -0.061 OA 
HETATM    7  C   UNL     1     -11.232  11.358  67.358  1.00  0.00    -0.305 A  
HETATM    8  C   UNL     2     -12.561  12.098  64.861  1.00  0.00     0.006 C  
HETATM    9  C   UNL     1      -9.541  12.308  63.391  1.00  0.00     0.266 C  
HETATM   10  N   UNL     1     -11.710  10.487  68.287  1.00  0.00    -0.744 NA 
HETATM   11  C   UNL     1     -10.636  11.040  65.616  1.00  0.00    -0.197 C  
HETATM   12  H   UNL     1     -11.777   9.472  68.219  1.00  0.00     0.000 HD 
HETATM   13  O   UNL     1     -10.518   9.899  65.161  1.00  0.00    -0.017 OA 
HETATM   14  N   UNL     1     -10.145  12.485  64.683  1.00  0.00    -0.265 N  
HETATM   15  C   UNL     1     -12.066  11.260  69.295  1.00  0.00    -0.303 A  
HETATM   16  C   UNL     1     -10.265  14.153  65.259  1.00  0.00    -0.375 C  
HETATM   17 CL   UNL     1     -12.856  10.701  70.701  1.00  0.00    -0.425 Cl 
HETATM   18  N   UNL     1     -11.829  12.621  69.226  1.00  0.00    -0.311 NA 
ENDROOT
BRANCH   4  19
HETATM   19  C   UNL     2      -9.682  12.645  66.603  1.00  0.00    -0.249 C  
BRANCH  19  20
HETATM   20  C   UNL     2      -8.719  11.296  67.168  1.00  0.00    -0.151 C  
BRANCH  20  21
HETATM   21  O   UNL     2      -7.320  11.530  66.951  1.00  0.00    -0.140 OA 
BRANCH  21  22
HETATM   22  C   UNL     2      -6.521  11.089  68.093  1.00  0.00    -0.057 C  
BRANCH  22  23
HETATM   23  C   UNL     2      -6.051  12.291  68.926  1.00  0.00    -0.073 A  
HETATM   24  C   UNL     2      -6.295  13.595  68.445  1.00  0.00    -0.098 A  
HETATM   25  C   UNL     2      -5.609  12.160  70.252  1.00  0.00    -0.152 A  
HETATM   26  C   UNL     2      -6.192  14.706  69.291  1.00  0.00    -0.111 A  
HETATM   27  C   UNL     2      -5.808  14.541  70.618  1.00  0.00    -0.179 A  
HETATM   28  C   UNL     2      -5.489  13.273  71.090  1.00  0.00    -0.197 A  
ENDBRANCH  22  23
BRANCH  22  29
HETATM   29  C   UNL     2      -7.333  10.011  68.794  1.00  0.00    -0.078 A  
HETATM   30  C   UNL     2      -9.063   8.057  69.862  1.00  0.00    -0.145 A  
HETATM   31  C   UNL     2      -9.073   9.350  70.373  1.00  0.00    -0.302 A  
HETATM   32  C   UNL     2      -7.309   8.688  68.319  1.00  0.00    -0.087 A  
HETATM   33  C   UNL     2      -8.229  10.320  69.829  1.00  0.00    -0.111 A  
HETATM   34  C   UNL     2      -8.180   7.724  68.839  1.00  0.00    -0.127 A  
ENDBRANCH  22  29
ENDBRANCH  21  22
ENDBRANCH  20  21
ENDBRANCH  19  20
ENDBRANCH   4  19
TORSDOF 6
ENDMDL
MODEL      154
REMARK 921   NORMALIZED FREE ENERGY PREDICTED BY IDOCK:   -3.70 KCAL/MOL
REMARK 922        TOTAL FREE ENERGY PREDICTED BY IDOCK:   -3.39 KCAL/MOL
REMARK 923 INTER-LIGAND FREE ENERGY PREDICTED BY IDOCK:   -5.70 KCAL/MOL
REMARK 924 INTRA-LIGAND FREE ENERGY PREDICTED BY IDOCK:    2.31 KCAL/MOL
REMARK 927      BINDING AFFINITY PREDICTED BY RF-SCORE:    0.00 PKD
ROOT
HETATM    1  C   UNL     1      -6.054   9.604  71.211  1.00  0.00    -0.035 C  
HETATM    2  N   UNL     1      -7.115   9.056  70.359  1.00  0.00    -0.056 N  
HETATM    3  C   UNL     2      -7.017   6.816  70.621  1.00  0.00    -0.063 C  
HETATM    4  N   UNL     2      -8.232   7.399  69.734  1.00  0.00    -0.128 NA 
HETATM    5  C   UNL     1      -6.879   8.553  68.657  1.00  0.00    -0.063 A  
HETATM    6  O   UNL     1      -8.851   8.907  72.430  1.00  0.00    -0.396 OA 
HETATM    7  C   UNL     1      -8.128   7.983  67.731  1.00  0.00    -0.128 A  
HETATM    8  C   UNL     2      -9.014   5.981  69.670  1.00  0.00    -0.132 C  
HETATM    9  C   UNL     1     -11.379   8.133  70.716  1.00  0.00    -0.270 C  
HETATM   10  N   UNL     1      -7.648   7.727  66.486  1.00  0.00    -0.094 NA 
HETATM   11  C   UNL     1      -9.850   7.751  68.420  1.00  0.00    -0.168 C  
HETATM   12  H   UNL     1      -8.166   7.409  65.667  1.00  0.00     0.000 HD 
HETATM   13  O   UNL     1     -10.801   7.416  67.710  1.00  0.00    -0.194 OA 
HETATM   14  N   UNL     1     -10.058   8.148  70.152  1.00  0.00    -0.192 N  
HETATM   15  C   UNL     1      -6.358   7.985  66.582  1.00  0.00    -0.054 A  
HETATM   16  C   UNL     1      -8.757   8.649  71.241  1.00  0.00    -0.194 C  
HETATM   17 CL   UNL     1      -5.228   7.712  65.332  1.00  0.00    -0.028 Cl 
HETATM   18  N   UNL     1      -5.850   8.479  67.770  1.00  0.00    -0.042 NA 
ENDROOT
BRANCH   4  19
HETATM   19  C   UNL     2      -8.764   9.356  69.261  1.00  0.00    -0.145 C  
BRANCH  19  20
HETATM   20  C   UNL     2      -7.866  10.832  68.974  1.00  0.00    -0.138 C  
BRANCH  20  21
HETATM   21  O   UNL     2      -8.382  11.540  67.837  1.00  0.00    -0.125 OA 
BRANCH  21  22
HETATM   22  C   UNL     2      -9.069  12.767  68.240  1.00  0.00    -0.180 C  
BRANCH  22  23
HETATM   23  C   UNL     2      -8.065  13.910  68.449  1.00  0.00    -0.145 A  
HETATM   24  C   UNL     2      -7.081  14.147  67.466  1.00  0.00    -0.184 A  
HETATM   25  C   UNL     2      -8.230  14.882  69.449  1.00  0.00    -0.084 A  
HETATM   26  C   UNL     2      -6.364  15.349  67.437  1.00  0.00    -0.070 A  
HETATM   27  C   UNL     2      -6.590  16.321  68.407  1.00  0.00    -0.134 A  
HETATM   28  C   UNL     2      -7.500  16.075  69.429  1.00  0.00    -0.201 A  
ENDBRANCH  22  23
BRANCH  22  29
HETATM   29  C   UNL     2     -10.191  12.979  67.235  1.00  0.00    -0.239 A  
HETATM   30  C   UNL     2     -12.070  13.575  65.218  1.00  0.00    -0.439 A  
HETATM   31  C   UNL     2     -12.109  14.256  66.430  1.00  0.00    -0.442 A  
HETATM   32  C   UNL     2     -10.193  12.273  66.019  1.00  0.00    -0.267 A  
HETATM   33  C   UNL     2     -11.166  13.973  67.419  1.00  0.00    -0.328 A  
HETATM   34  C   UNL     2     -11.116  12.582  65.013  1.00  0.00    -0.335 A  
ENDBRANCH  22  29
ENDBRANCH  21  22
ENDBRANCH  20  21
ENDBRANCH  19  20
ENDBRANCH   4  19
TORSDOF 6
ENDMDL
MODEL      155
REMARK 921   NORMALIZED FREE ENERGY PREDICTED BY IDOCK:   -3.69 KCAL/MOL
REMARK 922        TOTAL FREE ENERGY PREDICTED BY IDOCK:   -3.36 KCAL/MOL
REMARK 923 INTER-LIGAND FREE ENERGY PREDICTED BY IDOCK:   -5.86 KCAL/MOL
REMARK 924 INTRA-LIGAND FREE ENERGY PREDICTED BY IDOCK:    2.50 KCAL/MOL
REMARK 927      BINDING AFFINITY PREDICTED BY RF-SCORE:    0.00 PKD
ROOT
HETATM    1  C   UNL     1      -5.273   5.758  68.520  1.00  0.00    -0.003 C  
HETATM    2  N   UNL     1      -6.644   5.978  68.045  1.00  0.00    -0.053 N  
HETATM    3  C   UNL     2      -7.364   3.972  67.300  1.00  0.00    -0.068 C  
HETATM    4  N   UNL     2      -8.438   5.175  67.324  1.00  0.00    -0.106 NA 
HETATM    5  C   UNL     1      -7.067   6.405  66.358  1.00  0.00    -0.068 A  
HETATM    6  O   UNL     1      -7.707   5.138  70.388  1.00  0.00    -0.071 OA 
HETATM    7  C   UNL     1      -8.631   6.685  65.893  1.00  0.00    -0.148 A  
HETATM    8  C   UNL     2      -9.698   4.205  67.016  1.00  0.00    -0.197 C  
HETATM    9  C   UNL     1     -10.684   5.933  69.730  1.00  0.00    -0.340 C  
HETATM   10  N   UNL     1      -8.625   7.024  64.576  1.00  0.00    -0.333 NA 
HETATM   11  C   UNL     1     -10.068   6.498  67.073  1.00  0.00    -0.179 C  
HETATM   12  H   UNL     1      -9.417   7.301  63.996  1.00  0.00     0.000 HD 
HETATM   13  O   UNL     1     -11.222   6.794  66.754  1.00  0.00    -0.312 OA 
HETATM   14  N   UNL     1      -9.653   5.961  68.728  1.00  0.00    -0.125 N  
HETATM   15  C   UNL     1      -7.359   6.913  64.224  1.00  0.00    -0.085 A  
HETATM   16  C   UNL     1      -8.028   5.529  69.277  1.00  0.00    -0.095 C  
HETATM   17 CL   UNL     1      -6.786   7.103  62.628  1.00  0.00    -0.052 Cl 
HETATM   18  N   UNL     1      -6.413   6.591  65.180  1.00  0.00    -0.038 NA 
ENDROOT
BRANCH   4  19
HETATM   19  C   UNL     2      -8.267   7.151  67.961  1.00  0.00    -0.120 C  
BRANCH  19  20
HETATM   20  C   UNL     2      -9.293   8.565  67.847  1.00  0.00    -0.135 C  
BRANCH  20  21
HETATM   21  O   UNL     2      -8.613   9.648  67.194  1.00  0.00    -0.130 OA 
BRANCH  21  22
HETATM   22  C   UNL     2      -9.281  10.925  67.442  1.00  0.00    -0.147 C  
BRANCH  22  23
HETATM   23  C   UNL     2      -8.303  11.945  68.042  1.00  0.00    -0.160 A  
HETATM   24  C   UNL     2      -7.434  11.534  69.075  1.00  0.00    -0.073 A  
HETATM   25  C   UNL     2      -8.061  13.194  67.448  1.00  0.00    -0.181 A  
HETATM   26  C   UNL     2      -6.318  12.304  69.428  1.00  0.00    -0.118 A  
HETATM   27  C   UNL     2      -6.070  13.511  68.782  1.00  0.00    -0.086 A  
HETATM   28  C   UNL     2      -6.956  13.969  67.815  1.00  0.00    -0.188 A  
ENDBRANCH  22  23
BRANCH  22  29
HETATM   29  C   UNL     2      -9.992  11.294  66.149  1.00  0.00    -0.268 A  
HETATM   30  C   UNL     2     -11.497  11.719  63.802  1.00  0.00    -0.510 A  
HETATM   31  C   UNL     2     -10.278  11.053  63.737  1.00  0.00    -0.425 A  
HETATM   32  C   UNL     2     -11.207  12.001  66.188  1.00  0.00    -0.394 A  
HETATM   33  C   UNL     2      -9.544  10.828  64.903  1.00  0.00    -0.307 A  
HETATM   34  C   UNL     2     -11.960  12.196  65.025  1.00  0.00    -0.343 A  
ENDBRANCH  22  29
ENDBRANCH  21  22
ENDBRANCH  20  21
ENDBRANCH  19  20
ENDBRANCH   4  19
TORSDOF 6
ENDMDL
MODEL      156
REMARK 921   NORMALIZED FREE ENERGY PREDICTED BY IDOCK:   -3.67 KCAL/MOL
REMARK 922        TOTAL FREE ENERGY PREDICTED BY IDOCK:   -3.34 KCAL/MOL
REMARK 923 INTER-LIGAND FREE ENERGY PREDICTED BY IDOCK:   -6.89 KCAL/MOL
REMARK 924 INTRA-LIGAND FREE ENERGY PREDICTED BY IDOCK:    3.55 KCAL/MOL
REMARK 927      BINDING AFFINITY PREDICTED BY RF-SCORE:    0.00 PKD
ROOT
HETATM    1  C   UNL     1      -6.166  13.774  70.639  1.00  0.00    -0.031 C  
HETATM    2  N   UNL     1      -6.753  13.065  69.496  1.00  0.00    -0.031 N  
HETATM    3  C   UNL     2      -5.161  13.058  67.895  1.00  0.00    -0.109 C  
HETATM    4  N   UNL     2      -6.507  12.221  67.596  1.00  0.00    -0.104 NA 
HETATM    5  C   UNL     1      -7.645  13.866  68.166  1.00  0.00    -0.134 A  
HETATM    6  O   UNL     1      -5.597  10.726  70.215  1.00  0.00    -0.060 OA 
HETATM    7  C   UNL     1      -8.324  13.004  66.925  1.00  0.00    -0.022 A  
HETATM    8  C   UNL     2      -5.900  11.502  66.277  1.00  0.00     0.031 C  
HETATM    9  C   UNL     1      -7.084   8.931  68.095  1.00  0.00    -0.078 C  
HETATM   10  N   UNL     1      -8.961  13.880  66.103  1.00  0.00    -0.455 NA 
HETATM   11  C   UNL     1      -8.139  11.150  66.784  1.00  0.00    -0.155 C  
HETATM   12  H   UNL     1      -9.516  13.671  65.273  1.00  0.00     0.000 HD 
HETATM   13  O   UNL     1      -8.720  10.498  65.914  1.00  0.00    -0.155 OA 
HETATM   14  N   UNL     1      -7.152  10.366  68.053  1.00  0.00    -0.081 N  
HETATM   15  C   UNL     1      -8.696  15.061  66.628  1.00  0.00    -0.254 A  
HETATM   16  C   UNL     1      -6.296  11.219  69.345  1.00  0.00    -0.092 C  
HETATM   17 CL   UNL     1      -9.149  16.548  65.924  1.00  0.00    -0.272 Cl 
HETATM   18  N   UNL     1      -7.978  15.135  67.808  1.00  0.00    -0.132 NA 
ENDROOT
BRANCH   4  19
HETATM   19  C   UNL     2      -8.201  11.891  68.761  1.00  0.00     0.000 C  
BRANCH  19  20
HETATM   20  C   UNL     2      -9.902  11.663  68.410  1.00  0.00    -0.202 C  
BRANCH  20  21
HETATM   21  O   UNL     2     -10.690  11.706  69.608  1.00  0.00    -0.046 OA 
BRANCH  21  22
HETATM   22  C   UNL     2     -11.951  12.414  69.393  1.00  0.00    -0.260 C  
BRANCH  22  23
HETATM   23  C   UNL     2     -12.172  13.476  70.480  1.00  0.00    -0.433 A  
HETATM   24  C   UNL     2     -11.319  14.599  70.523  1.00  0.00    -0.209 A  
HETATM   25  C   UNL     2     -13.328  13.507  71.276  1.00  0.00    -0.227 A  
HETATM   26  C   UNL     2     -11.664  15.738  71.261  1.00  0.00    -0.496 A  
HETATM   27  C   UNL     2     -12.845  15.764  71.996  1.00  0.00    -0.511 A  
HETATM   28  C   UNL     2     -13.661  14.639  72.027  1.00  0.00    -0.527 A  
ENDBRANCH  22  23
BRANCH  22  29
HETATM   29  C   UNL     2     -11.944  12.870  67.942  1.00  0.00    -0.333 A  
HETATM   30  C   UNL     2     -12.256  13.700  65.265  1.00  0.00    -0.466 A  
HETATM   31  C   UNL     2     -12.007  12.363  65.555  1.00  0.00    -0.453 A  
HETATM   32  C   UNL     2     -12.156  14.223  67.625  1.00  0.00    -0.332 A  
HETATM   33  C   UNL     2     -11.872  11.952  66.882  1.00  0.00    -0.177 A  
HETATM   34  C   UNL     2     -12.328  14.630  66.298  1.00  0.00    -0.085 A  
ENDBRANCH  22  29
ENDBRANCH  21  22
ENDBRANCH  20  21
ENDBRANCH  19  20
ENDBRANCH   4  19
TORSDOF 6
ENDMDL
MODEL      157
REMARK 921   NORMALIZED FREE ENERGY PREDICTED BY IDOCK:   -3.64 KCAL/MOL
REMARK 922        TOTAL FREE ENERGY PREDICTED BY IDOCK:   -3.30 KCAL/MOL
REMARK 923 INTER-LIGAND FREE ENERGY PREDICTED BY IDOCK:   -6.86 KCAL/MOL
REMARK 924 INTRA-LIGAND FREE ENERGY PREDICTED BY IDOCK:    3.56 KCAL/MOL
REMARK 927      BINDING AFFINITY PREDICTED BY RF-SCORE:    0.00 PKD
ROOT
HETATM    1  C   UNL     1      -5.369   5.613  68.709  1.00  0.00     0.000 C  
HETATM    2  N   UNL     1      -6.720   5.904  68.218  1.00  0.00    -0.055 N  
HETATM    3  C   UNL     2      -7.390   4.044  67.127  1.00  0.00    -0.068 C  
HETATM    4  N   UNL     2      -8.475   5.224  67.299  1.00  0.00    -0.107 NA 
HETATM    5  C   UNL     1      -7.076   6.598  66.605  1.00  0.00    -0.068 A  
HETATM    6  O   UNL     1      -7.873   4.692  70.345  1.00  0.00    -0.053 OA 
HETATM    7  C   UNL     1      -8.622   6.946  66.125  1.00  0.00    -0.143 A  
HETATM    8  C   UNL     2      -9.713   4.314  66.785  1.00  0.00    -0.219 C  
HETATM    9  C   UNL     1     -10.827   5.577  69.698  1.00  0.00    -0.209 C  
HETATM   10  N   UNL     1      -8.564   7.495  64.882  1.00  0.00    -0.365 NA 
HETATM   11  C   UNL     1     -10.105   6.567  67.196  1.00  0.00    -0.170 C  
HETATM   12  H   UNL     1      -9.333   7.860  64.321  1.00  0.00     0.000 HD 
HETATM   13  O   UNL     1     -11.247   6.909  66.880  1.00  0.00    -0.353 OA 
HETATM   14  N   UNL     1      -9.756   5.769  68.759  1.00  0.00    -0.126 N  
HETATM   15  C   UNL     1      -7.283   7.445  64.571  1.00  0.00    -0.073 A  
HETATM   16  C   UNL     1      -8.151   5.257  69.300  1.00  0.00    -0.092 C  
HETATM   17 CL   UNL     1      -6.646   7.893  63.053  1.00  0.00    -0.078 Cl 
HETATM   18  N   UNL     1      -6.375   6.973  65.502  1.00  0.00    -0.042 NA 
ENDROOT
BRANCH   4  19
HETATM   19  C   UNL     2      -8.349   7.071  68.255  1.00  0.00    -0.123 C  
BRANCH  19  20
HETATM   20  C   UNL     2      -9.360   8.500  68.291  1.00  0.00    -0.137 C  
BRANCH  20  21
HETATM   21  O   UNL     2      -8.851   9.472  69.216  1.00  0.00    -0.136 OA 
BRANCH  21  22
HETATM   22  C   UNL     2      -9.671  10.683  69.223  1.00  0.00    -0.160 C  
BRANCH  22  23
HETATM   23  C   UNL     2      -9.898  11.196  67.793  1.00  0.00    -0.186 A  
HETATM   24  C   UNL     2      -8.825  11.170  66.878  1.00  0.00    -0.157 A  
HETATM   25  C   UNL     2     -11.180  11.460  67.284  1.00  0.00    -0.370 A  
HETATM   26  C   UNL     2      -9.046  11.309  65.502  1.00  0.00    -0.184 A  
HETATM   27  C   UNL     2     -10.335  11.511  65.019  1.00  0.00    -0.333 A  
HETATM   28  C   UNL     2     -11.396  11.616  65.911  1.00  0.00    -0.262 A  
ENDBRANCH  22  23
BRANCH  22  29
HETATM   29  C   UNL     2     -10.894  10.368  70.070  1.00  0.00    -0.348 A  
HETATM   30  C   UNL     2     -13.005   9.924  71.886  1.00  0.00    -0.545 A  
HETATM   31  C   UNL     2     -12.079   8.917  71.635  1.00  0.00    -0.415 A  
HETATM   32  C   UNL     2     -11.864  11.358  70.306  1.00  0.00    -0.438 A  
HETATM   33  C   UNL     2     -11.025   9.147  70.750  1.00  0.00    -0.332 A  
HETATM   34  C   UNL     2     -12.901  11.142  71.221  1.00  0.00    -0.515 A  
ENDBRANCH  22  29
ENDBRANCH  21  22
ENDBRANCH  20  21
ENDBRANCH  19  20
ENDBRANCH   4  19
TORSDOF 6
ENDMDL
MODEL      158
REMARK 921   NORMALIZED FREE ENERGY PREDICTED BY IDOCK:   -3.60 KCAL/MOL
REMARK 922        TOTAL FREE ENERGY PREDICTED BY IDOCK:   -3.24 KCAL/MOL
REMARK 923 INTER-LIGAND FREE ENERGY PREDICTED BY IDOCK:   -6.47 KCAL/MOL
REMARK 924 INTRA-LIGAND FREE ENERGY PREDICTED BY IDOCK:    3.23 KCAL/MOL
REMARK 927      BINDING AFFINITY PREDICTED BY RF-SCORE:    0.00 PKD
ROOT
HETATM    1  C   UNL     1     -10.406   5.058  66.322  1.00  0.00    -0.291 C  
HETATM    2  N   UNL     1      -9.791   6.089  67.167  1.00  0.00    -0.132 N  
HETATM    3  C   UNL     2      -8.545   4.975  68.684  1.00  0.00    -0.093 C  
HETATM    4  N   UNL     2      -8.439   6.584  68.687  1.00  0.00    -0.121 NA 
HETATM    5  C   UNL     1     -10.515   6.710  68.682  1.00  0.00    -0.211 A  
HETATM    6  O   UNL     1      -7.500   6.056  65.727  1.00  0.00    -0.078 OA 
HETATM    7  C   UNL     1      -9.793   7.908  69.569  1.00  0.00    -0.176 A  
HETATM    8  C   UNL     2      -7.175   6.611  69.700  1.00  0.00    -0.078 C  
HETATM    9  C   UNL     1      -6.163   8.538  67.134  1.00  0.00    -0.056 C  
HETATM   10  N   UNL     1     -10.595   8.189  70.630  1.00  0.00    -0.211 NA 
HETATM   11  C   UNL     1      -8.139   8.636  69.096  1.00  0.00    -0.116 C  
HETATM   12  H   UNL     1     -10.464   8.906  71.343  1.00  0.00     0.000 HD 
HETATM   13  O   UNL     1      -7.644   9.590  69.701  1.00  0.00    -0.082 OA 
HETATM   14  N   UNL     1      -7.363   7.934  67.644  1.00  0.00    -0.094 N  
HETATM   15  C   UNL     1     -11.583   7.321  70.522  1.00  0.00    -0.258 A  
HETATM   16  C   UNL     1      -8.006   6.578  66.707  1.00  0.00    -0.108 C  
HETATM   17 CL   UNL     1     -12.830   7.137  71.672  1.00  0.00    -0.413 Cl 
HETATM   18  N   UNL     1     -11.621   6.466  69.435  1.00  0.00    -0.315 NA 
ENDROOT
BRANCH   4  19
HETATM   19  C   UNL     2      -9.336   8.016  67.470  1.00  0.00    -0.147 C  
BRANCH  19  20
HETATM   20  C   UNL     2     -10.233   9.490  67.773  1.00  0.00    -0.216 C  
BRANCH  20  21
HETATM   21  O   UNL     2     -11.210   9.722  66.749  1.00  0.00     0.142 OA 
BRANCH  21  22
HETATM   22  C   UNL     2     -11.061  11.052  66.159  1.00  0.00    -0.012 C  
BRANCH  22  23
HETATM   23  C   UNL     2     -10.796  12.104  67.246  1.00  0.00    -0.286 A  
HETATM   24  C   UNL     2      -9.775  13.056  67.044  1.00  0.00    -0.235 A  
HETATM   25  C   UNL     2     -11.679  12.316  68.318  1.00  0.00    -0.392 A  
HETATM   26  C   UNL     2      -9.705  14.216  67.825  1.00  0.00    -0.223 A  
HETATM   27  C   UNL     2     -10.629  14.430  68.844  1.00  0.00    -0.250 A  
HETATM   28  C   UNL     2     -11.596  13.467  69.108  1.00  0.00    -0.365 A  
ENDBRANCH  22  23
BRANCH  22  29
HETATM   29  C   UNL     2     -10.040  10.912  65.040  1.00  0.00    -0.362 A  
HETATM   30  C   UNL     2      -8.322  10.398  62.864  1.00  0.00    -0.180 A  
HETATM   31  C   UNL     2      -8.010   9.910  64.128  1.00  0.00    -0.150 A  
HETATM   32  C   UNL     2     -10.317  11.431  63.763  1.00  0.00    -0.447 A  
HETATM   33  C   UNL     2      -8.872  10.150  65.199  1.00  0.00    -0.207 A  
HETATM   34  C   UNL     2      -9.472  11.160  62.681  1.00  0.00    -0.310 A  
ENDBRANCH  22  29
ENDBRANCH  21  22
ENDBRANCH  20  21
ENDBRANCH  19  20
ENDBRANCH   4  19
TORSDOF 6
ENDMDL
MODEL      159
REMARK 921   NORMALIZED FREE ENERGY PREDICTED BY IDOCK:   -3.58 KCAL/MOL
REMARK 922        TOTAL FREE ENERGY PREDICTED BY IDOCK:   -3.22 KCAL/MOL
REMARK 923 INTER-LIGAND FREE ENERGY PREDICTED BY IDOCK:   -5.85 KCAL/MOL
REMARK 924 INTRA-LIGAND FREE ENERGY PREDICTED BY IDOCK:    2.63 KCAL/MOL
REMARK 927      BINDING AFFINITY PREDICTED BY RF-SCORE:    0.00 PKD
ROOT
HETATM    1  C   UNL     1     -11.292   8.968  70.379  1.00  0.00    -0.210 C  
HETATM    2  N   UNL     1     -10.174   8.066  70.083  1.00  0.00    -0.199 N  
HETATM    3  C   UNL     2     -10.462   6.271  71.421  1.00  0.00    -0.219 C  
HETATM    4  N   UNL     2      -9.262   6.199  70.346  1.00  0.00    -0.153 NA 
HETATM    5  C   UNL     1      -8.613   8.077  70.962  1.00  0.00    -0.133 A  
HETATM    6  O   UNL     1     -11.659   6.617  68.346  1.00  0.00     0.004 OA 
HETATM    7  C   UNL     1      -7.371   7.063  70.550  1.00  0.00    -0.076 A  
HETATM    8  C   UNL     2      -8.982   4.623  70.595  1.00  0.00    -0.117 C  
HETATM    9  C   UNL     1      -9.295   4.844  67.252  1.00  0.00    -0.131 C  
HETATM   10  N   UNL     1      -6.316   7.335  71.364  1.00  0.00    -0.037 NA 
HETATM   11  C   UNL     1      -7.536   5.785  69.197  1.00  0.00    -0.089 C  
HETATM   12  H   UNL     1      -5.385   6.922  71.345  1.00  0.00     0.000 HD 
HETATM   13  O   UNL     1      -6.584   5.094  68.828  1.00  0.00    -0.045 OA 
HETATM   14  N   UNL     1      -9.134   5.699  68.396  1.00  0.00    -0.117 N  
HETATM   15  C   UNL     1      -6.778   8.259  72.186  1.00  0.00    -0.081 A  
HETATM   16  C   UNL     1     -10.548   6.661  68.849  1.00  0.00    -0.230 C  
HETATM   17 CL   UNL     1      -5.907   8.887  73.512  1.00  0.00    -0.108 Cl 
HETATM   18  N   UNL     1      -8.060   8.748  72.007  1.00  0.00    -0.355 NA 
ENDROOT
BRANCH   4  19
HETATM   19  C   UNL     2      -8.646   7.555  68.890  1.00  0.00    -0.129 C  
BRANCH  19  20
HETATM   20  C   UNL     2      -8.989   7.757  67.184  1.00  0.00    -0.126 C  
BRANCH  20  21
HETATM   21  O   UNL     2      -9.094   9.145  66.837  1.00  0.00    -0.130 OA 
BRANCH  21  22
HETATM   22  C   UNL     2      -9.477   9.318  65.436  1.00  0.00    -0.210 C  
BRANCH  22  23
HETATM   23  C   UNL     2     -10.460  10.486  65.280  1.00  0.00    -0.232 A  
HETATM   24  C   UNL     2     -10.949  11.129  66.437  1.00  0.00    -0.248 A  
HETATM   25  C   UNL     2     -10.706  11.103  64.042  1.00  0.00    -0.409 A  
HETATM   26  C   UNL     2     -11.572  12.381  66.358  1.00  0.00    -0.442 A  
HETATM   27  C   UNL     2     -11.751  12.996  65.123  1.00  0.00    -0.379 A  
HETATM   28  C   UNL     2     -11.344  12.344  63.964  1.00  0.00    -0.465 A  
ENDBRANCH  22  23
BRANCH  22  29
HETATM   29  C   UNL     2      -8.182   9.365  64.640  1.00  0.00    -0.148 A  
HETATM   30  C   UNL     2      -5.889   9.731  63.039  1.00  0.00    -0.105 A  
HETATM   31  C   UNL     2      -6.927   8.920  62.593  1.00  0.00    -0.093 A  
HETATM   32  C   UNL     2      -7.104  10.147  65.090  1.00  0.00    -0.137 A  
HETATM   33  C   UNL     2      -8.069   8.757  63.380  1.00  0.00    -0.170 A  
HETATM   34  C   UNL     2      -5.974  10.341  64.287  1.00  0.00    -0.133 A  
ENDBRANCH  22  29
ENDBRANCH  21  22
ENDBRANCH  20  21
ENDBRANCH  19  20
ENDBRANCH   4  19
TORSDOF 6
ENDMDL
MODEL      160
REMARK 921   NORMALIZED FREE ENERGY PREDICTED BY IDOCK:   -3.55 KCAL/MOL
REMARK 922        TOTAL FREE ENERGY PREDICTED BY IDOCK:   -3.18 KCAL/MOL
REMARK 923 INTER-LIGAND FREE ENERGY PREDICTED BY IDOCK:   -5.91 KCAL/MOL
REMARK 924 INTRA-LIGAND FREE ENERGY PREDICTED BY IDOCK:    2.72 KCAL/MOL
REMARK 927      BINDING AFFINITY PREDICTED BY RF-SCORE:    0.00 PKD
ROOT
HETATM    1  C   UNL     1     -10.913   8.601  72.173  1.00  0.00    -0.364 C  
HETATM    2  N   UNL     1      -9.895   7.546  72.231  1.00  0.00    -0.163 N  
HETATM    3  C   UNL     2     -10.131   6.576  74.256  1.00  0.00    -0.356 C  
HETATM    4  N   UNL     2      -9.074   5.905  73.239  1.00  0.00    -0.133 NA 
HETATM    5  C   UNL     1      -8.243   7.778  72.883  1.00  0.00    -0.133 A  
HETATM    6  O   UNL     1     -11.663   5.646  71.463  1.00  0.00     0.000 OA 
HETATM    7  C   UNL     1      -7.123   6.558  72.879  1.00  0.00    -0.081 A  
HETATM    8  C   UNL     2      -8.863   4.584  74.153  1.00  0.00    -0.106 C  
HETATM    9  C   UNL     1      -9.558   3.328  71.110  1.00  0.00    -0.160 C  
HETATM   10  N   UNL     1      -5.964   7.049  73.395  1.00  0.00    -0.057 NA 
HETATM   11  C   UNL     1      -7.526   4.839  72.271  1.00  0.00    -0.084 C  
HETATM   12  H   UNL     1      -5.069   6.571  73.492  1.00  0.00     0.000 HD 
HETATM   13  O   UNL     1      -6.669   3.956  72.181  1.00  0.00    -0.021 OA 
HETATM   14  N   UNL     1      -9.211   4.579  71.725  1.00  0.00    -0.130 N  
HETATM   15  C   UNL     1      -6.267   8.285  73.742  1.00  0.00    -0.113 A  
HETATM   16  C   UNL     1     -10.499   5.788  71.803  1.00  0.00    -0.228 C  
HETATM   17 CL   UNL     1      -5.208   9.339  74.566  1.00  0.00    -0.122 Cl 
HETATM   18  N   UNL     1      -7.529   8.779  73.463  1.00  0.00    -0.378 NA 
ENDROOT
BRANCH   4  19
HETATM   19  C   UNL     2      -8.555   6.396  71.283  1.00  0.00    -0.127 C  
BRANCH  19  20
HETATM   20  C   UNL     2      -9.410   6.396  69.754  1.00  0.00    -0.146 C  
BRANCH  20  21
HETATM   21  O   UNL     2      -9.149   7.597  69.013  1.00  0.00    -0.144 OA 
BRANCH  21  22
HETATM   22  C   UNL     2     -10.159   7.816  67.979  1.00  0.00    -0.186 C  
BRANCH  22  23
HETATM   23  C   UNL     2     -10.217   9.298  67.580  1.00  0.00    -0.300 A  
HETATM   24  C   UNL     2     -11.215  10.121  68.144  1.00  0.00    -0.245 A  
HETATM   25  C   UNL     2      -9.180   9.928  66.872  1.00  0.00    -0.171 A  
HETATM   26  C   UNL     2     -11.121  11.516  68.080  1.00  0.00    -0.313 A  
HETATM   27  C   UNL     2     -10.051  12.115  67.422  1.00  0.00    -0.208 A  
HETATM   28  C   UNL     2      -9.098  11.321  66.794  1.00  0.00    -0.181 A  
ENDBRANCH  22  23
BRANCH  22  29
HETATM   29  C   UNL     2      -9.883   6.794  66.887  1.00  0.00    -0.229 A  
HETATM   30  C   UNL     2      -9.263   4.704  65.097  1.00  0.00    -0.156 A  
HETATM   31  C   UNL     2      -8.360   5.742  65.295  1.00  0.00    -0.146 A  
HETATM   32  C   UNL     2     -10.800   5.757  66.642  1.00  0.00    -0.290 A  
HETATM   33  C   UNL     2      -8.661   6.765  66.196  1.00  0.00    -0.146 A  
HETATM   34  C   UNL     2     -10.484   4.712  65.766  1.00  0.00    -0.290 A  
ENDBRANCH  22  29
ENDBRANCH  21  22
ENDBRANCH  20  21
ENDBRANCH  19  20
ENDBRANCH   4  19
TORSDOF 6
ENDMDL
MODEL      161
REMARK 921   NORMALIZED FREE ENERGY PREDICTED BY IDOCK:   -3.55 KCAL/MOL
REMARK 922        TOTAL FREE ENERGY PREDICTED BY IDOCK:   -3.18 KCAL/MOL
REMARK 923 INTER-LIGAND FREE ENERGY PREDICTED BY IDOCK:   -6.84 KCAL/MOL
REMARK 924 INTRA-LIGAND FREE ENERGY PREDICTED BY IDOCK:    3.66 KCAL/MOL
REMARK 927      BINDING AFFINITY PREDICTED BY RF-SCORE:    0.00 PKD
ROOT
HETATM    1  C   UNL     1      -6.805  14.729  67.124  1.00  0.00     0.293 C  
HETATM    2  N   UNL     1      -7.536  15.985  67.327  1.00  0.00    -0.173 N  
HETATM    3  C   UNL     2      -6.518  17.507  66.006  1.00  0.00    -0.192 C  
HETATM    4  N   UNL     2      -7.857  17.978  66.770  1.00  0.00    -0.225 NA 
HETATM    5  C   UNL     1      -7.097  17.217  68.550  1.00  0.00    -0.220 A  
HETATM    6  O   UNL     1      -9.070  15.574  65.135  1.00  0.00     0.331 OA 
HETATM    7  C   UNL     1      -7.989  18.596  68.762  1.00  0.00    -0.286 A  
HETATM    8  C   UNL     2      -7.978  19.364  65.940  1.00  0.00    -0.184 C  
HETATM    9  C   UNL     1     -11.033  17.990  65.620  1.00  0.00     0.265 C  
HETATM   10  N   UNL     1      -7.436  19.305  69.781  1.00  0.00     0.087 NA 
HETATM   11  C   UNL     1      -9.464  19.001  67.688  1.00  0.00    -0.306 C  
HETATM   12  H   UNL     1      -7.767  20.177  70.192  1.00  0.00     0.000 HD 
HETATM   13  O   UNL     1     -10.183  19.979  67.903  1.00  0.00    -0.414 OA 
HETATM   14  N   UNL     1      -9.832  17.824  66.392  1.00  0.00    -0.321 N  
HETATM   15  C   UNL     1      -6.370  18.602  70.116  1.00  0.00     0.054 A  
HETATM   16  C   UNL     1      -8.867  16.388  66.022  1.00  0.00    -0.261 C  
HETATM   17 CL   UNL     1      -5.219  19.097  71.274  1.00  0.00    -0.286 Cl 
HETATM   18  N   UNL     1      -6.124  17.397  69.483  1.00  0.00    -0.242 NA 
ENDROOT
BRANCH   4  19
HETATM   19  C   UNL     2      -9.151  16.940  68.030  1.00  0.00    -0.234 C  
BRANCH  19  20
HETATM   20  C   UNL     2      -9.962  15.391  67.942  1.00  0.00    -0.221 C  
BRANCH  20  21
HETATM   21  O   UNL     2     -11.388  15.549  67.957  1.00  0.00    -0.331 OA 
BRANCH  21  22
HETATM   22  C   UNL     2     -12.067  14.319  67.552  1.00  0.00    -0.312 C  
BRANCH  22  23
HETATM   23  C   UNL     2     -11.755  13.980  66.088  1.00  0.00    -0.395 A  
HETATM   24  C   UNL     2     -11.101  12.765  65.790  1.00  0.00    -0.316 A  
HETATM   25  C   UNL     2     -12.304  14.702  65.015  1.00  0.00    -0.289 A  
HETATM   26  C   UNL     2     -11.086  12.256  64.485  1.00  0.00    -0.368 A  
HETATM   27  C   UNL     2     -11.689  12.964  63.451  1.00  0.00    -0.526 A  
HETATM   28  C   UNL     2     -12.272  14.199  63.711  1.00  0.00    -0.183 A  
ENDBRANCH  22  23
BRANCH  22  29
HETATM   29  C   UNL     2     -11.734  13.278  68.611  1.00  0.00    -0.376 A  
HETATM   30  C   UNL     2     -11.337  11.159  70.428  1.00  0.00    -0.147 A  
HETATM   31  C   UNL     2     -12.198  12.201  70.752  1.00  0.00    -0.367 A  
HETATM   32  C   UNL     2     -10.836  12.236  68.320  1.00  0.00    -0.254 A  
HETATM   33  C   UNL     2     -12.408  13.239  69.842  1.00  0.00    -0.228 A  
HETATM   34  C   UNL     2     -10.653  11.177  69.215  1.00  0.00    -0.212 A  
ENDBRANCH  22  29
ENDBRANCH  21  22
ENDBRANCH  20  21
ENDBRANCH  19  20
ENDBRANCH   4  19
TORSDOF 6
ENDMDL
MODEL      162
REMARK 921   NORMALIZED FREE ENERGY PREDICTED BY IDOCK:   -3.51 KCAL/MOL
REMARK 922        TOTAL FREE ENERGY PREDICTED BY IDOCK:   -3.13 KCAL/MOL
REMARK 923 INTER-LIGAND FREE ENERGY PREDICTED BY IDOCK:   -6.17 KCAL/MOL
REMARK 924 INTRA-LIGAND FREE ENERGY PREDICTED BY IDOCK:    3.04 KCAL/MOL
REMARK 927      BINDING AFFINITY PREDICTED BY RF-SCORE:    0.00 PKD
ROOT
HETATM    1  C   UNL     1     -11.006   6.493  67.157  1.00  0.00    -0.408 C  
HETATM    2  N   UNL     1     -10.078   6.774  68.259  1.00  0.00    -0.154 N  
HETATM    3  C   UNL     2     -10.618   5.321  69.900  1.00  0.00    -0.221 C  
HETATM    4  N   UNL     2      -9.316   6.243  70.135  1.00  0.00    -0.156 NA 
HETATM    5  C   UNL     1     -10.419   7.921  69.592  1.00  0.00    -0.226 A  
HETATM    6  O   UNL     1      -8.396   4.798  67.492  1.00  0.00    -0.105 OA 
HETATM    7  C   UNL     1      -9.312   8.229  70.785  1.00  0.00    -0.161 A  
HETATM    8  C   UNL     2      -8.832   5.421  71.445  1.00  0.00    -0.135 C  
HETATM    9  C   UNL     1      -6.080   5.502  69.509  1.00  0.00    -0.021 C  
HETATM   10  N   UNL     1      -9.839   9.163  71.619  1.00  0.00    -0.286 NA 
HETATM   11  C   UNL     1      -7.667   7.346  70.867  1.00  0.00    -0.088 C  
HETATM   12  H   UNL     1      -9.400   9.604  72.426  1.00  0.00     0.000 HD 
HETATM   13  O   UNL     1      -6.805   7.640  71.699  1.00  0.00    -0.052 OA 
HETATM   14  N   UNL     1      -7.376   6.118  69.598  1.00  0.00    -0.077 N  
HETATM   15  C   UNL     1     -11.053   9.368  71.142  1.00  0.00    -0.362 A  
HETATM   16  C   UNL     1      -8.546   5.643  68.359  1.00  0.00    -0.111 C  
HETATM   17 CL   UNL     1     -12.220  10.367  71.883  1.00  0.00    -0.212 Cl 
HETATM   18  N   UNL     1     -11.446   8.721  69.984  1.00  0.00    -0.038 NA 
ENDROOT
BRANCH   4  19
HETATM   19  C   UNL     2      -8.408   7.666  68.915  1.00  0.00    -0.129 C  
BRANCH  19  20
HETATM   20  C   UNL     2      -8.952   9.141  68.144  1.00  0.00    -0.129 C  
BRANCH  20  21
HETATM   21  O   UNL     2      -7.912  10.129  68.122  1.00  0.00    -0.102 OA 
BRANCH  21  22
HETATM   22  C   UNL     2      -8.175  11.159  67.118  1.00  0.00    -0.137 C  
BRANCH  22  23
HETATM   23  C   UNL     2      -8.568  10.525  65.776  1.00  0.00    -0.180 A  
HETATM   24  C   UNL     2      -9.669  11.049  65.067  1.00  0.00    -0.303 A  
HETATM   25  C   UNL     2      -7.739   9.611  65.105  1.00  0.00    -0.117 A  
HETATM   26  C   UNL     2      -9.871  10.740  63.716  1.00  0.00    -0.396 A  
HETATM   27  C   UNL     2      -9.000   9.876  63.059  1.00  0.00    -0.273 A  
HETATM   28  C   UNL     2      -7.953   9.289  63.761  1.00  0.00    -0.142 A  
ENDBRANCH  22  23
BRANCH  22  29
HETATM   29  C   UNL     2      -9.147  12.141  67.754  1.00  0.00    -0.189 A  
HETATM   30  C   UNL     2     -11.076  13.998  68.638  1.00  0.00    -0.286 A  
HETATM   31  C   UNL     2      -9.788  14.424  68.334  1.00  0.00    -0.234 A  
HETATM   32  C   UNL     2     -10.443  11.724  68.106  1.00  0.00    -0.221 A  
HETATM   33  C   UNL     2      -8.841  13.505  67.878  1.00  0.00    -0.190 A  
HETATM   34  C   UNL     2     -11.404  12.649  68.528  1.00  0.00    -0.333 A  
ENDBRANCH  22  29
ENDBRANCH  21  22
ENDBRANCH  20  21
ENDBRANCH  19  20
ENDBRANCH   4  19
TORSDOF 6
ENDMDL
MODEL      163
REMARK 921   NORMALIZED FREE ENERGY PREDICTED BY IDOCK:   -3.50 KCAL/MOL
REMARK 922        TOTAL FREE ENERGY PREDICTED BY IDOCK:   -3.11 KCAL/MOL
REMARK 923 INTER-LIGAND FREE ENERGY PREDICTED BY IDOCK:   -6.27 KCAL/MOL
REMARK 924 INTRA-LIGAND FREE ENERGY PREDICTED BY IDOCK:    3.16 KCAL/MOL
REMARK 927      BINDING AFFINITY PREDICTED BY RF-SCORE:    0.00 PKD
ROOT
HETATM    1  C   UNL     1      -6.613   4.016  69.294  1.00  0.00    -0.040 C  
HETATM    2  N   UNL     1      -7.558   4.993  68.741  1.00  0.00    -0.076 N  
HETATM    3  C   UNL     2      -8.724   3.888  67.155  1.00  0.00    -0.111 C  
HETATM    4  N   UNL     2      -9.189   5.395  67.491  1.00  0.00    -0.111 NA 
HETATM    5  C   UNL     1      -7.216   6.031  67.322  1.00  0.00    -0.076 A  
HETATM    6  O   UNL     1      -9.554   4.141  70.357  1.00  0.00    -0.164 OA 
HETATM    7  C   UNL     1      -8.308   7.147  66.772  1.00  0.00    -0.116 A  
HETATM    8  C   UNL     2     -10.558   5.284  66.631  1.00  0.00    -0.270 C  
HETATM    9  C   UNL     1     -11.602   6.419  69.622  1.00  0.00    -0.282 C  
HETATM   10  N   UNL     1      -7.749   7.801  65.719  1.00  0.00    -0.094 NA 
HETATM   11  C   UNL     1      -9.999   7.347  67.541  1.00  0.00    -0.173 C  
HETATM   12  H   UNL     1      -8.138   8.576  65.183  1.00  0.00     0.000 HD 
HETATM   13  O   UNL     1     -10.777   8.239  67.193  1.00  0.00    -0.302 OA 
HETATM   14  N   UNL     1     -10.381   6.232  68.887  1.00  0.00    -0.183 N  
HETATM   15  C   UNL     1      -6.586   7.200  65.551  1.00  0.00    -0.048 A  
HETATM   16  C   UNL     1      -9.323   4.936  69.461  1.00  0.00    -0.130 C  
HETATM   17 CL   UNL     1      -5.507   7.537  64.274  1.00  0.00    -0.033 Cl 
HETATM   18  N   UNL     1      -6.202   6.205  66.433  1.00  0.00    -0.036 NA 
ENDROOT
BRANCH   4  19
HETATM   19  C   UNL     2      -8.474   6.770  68.883  1.00  0.00    -0.120 C  
BRANCH  19  20
HETATM   20  C   UNL     2      -8.235   6.741  70.618  1.00  0.00    -0.120 C  
BRANCH  20  21
HETATM   21  O   UNL     2      -7.936   8.051  71.122  1.00  0.00    -0.086 OA 
BRANCH  21  22
HETATM   22  C   UNL     2      -8.993   8.536  72.009  1.00  0.00    -0.231 C  
BRANCH  22  23
HETATM   23  C   UNL     2     -10.086   9.260  71.210  1.00  0.00    -0.361 A  
HETATM   24  C   UNL     2     -11.370   9.402  71.779  1.00  0.00    -0.387 A  
HETATM   25  C   UNL     2      -9.805   9.999  70.050  1.00  0.00    -0.247 A  
HETATM   26  C   UNL     2     -12.292  10.318  71.258  1.00  0.00    -0.506 A  
HETATM   27  C   UNL     2     -11.966  11.080  70.141  1.00  0.00    -0.443 A  
HETATM   28  C   UNL     2     -10.735  10.899  69.520  1.00  0.00    -0.251 A  
ENDBRANCH  22  23
BRANCH  22  29
HETATM   29  C   UNL     2      -9.406   7.352  72.871  1.00  0.00    -0.210 A  
HETATM   30  C   UNL     2     -10.017   4.971  74.252  1.00  0.00    -0.226 A  
HETATM   31  C   UNL     2     -10.944   5.526  73.378  1.00  0.00    -0.324 A  
HETATM   32  C   UNL     2      -8.498   6.797  73.790  1.00  0.00    -0.145 A  
HETATM   33  C   UNL     2     -10.631   6.694  72.681  1.00  0.00    -0.249 A  
HETATM   34  C   UNL     2      -8.796   5.606  74.462  1.00  0.00    -0.118 A  
ENDBRANCH  22  29
ENDBRANCH  21  22
ENDBRANCH  20  21
ENDBRANCH  19  20
ENDBRANCH   4  19
TORSDOF 6
ENDMDL
MODEL      164
REMARK 921   NORMALIZED FREE ENERGY PREDICTED BY IDOCK:   -3.50 KCAL/MOL
REMARK 922        TOTAL FREE ENERGY PREDICTED BY IDOCK:   -3.11 KCAL/MOL
REMARK 923 INTER-LIGAND FREE ENERGY PREDICTED BY IDOCK:   -7.42 KCAL/MOL
REMARK 924 INTRA-LIGAND FREE ENERGY PREDICTED BY IDOCK:    4.32 KCAL/MOL
REMARK 927      BINDING AFFINITY PREDICTED BY RF-SCORE:    0.00 PKD
ROOT
HETATM    1  C   UNL     1     -12.017  12.453  65.983  1.00  0.00    -0.350 C  
HETATM    2  N   UNL     1     -11.084  13.321  66.711  1.00  0.00    -0.287 N  
HETATM    3  C   UNL     2      -9.488  13.892  65.219  1.00  0.00     0.367 C  
HETATM    4  N   UNL     2      -9.423  14.596  66.668  1.00  0.00    -0.265 NA 
HETATM    5  C   UNL     1      -9.627  12.733  67.571  1.00  0.00    -0.192 A  
HETATM    6  O   UNL     1     -12.293  15.565  65.804  1.00  0.00     0.658 OA 
HETATM    7  C   UNL     1      -8.636  13.758  68.412  1.00  0.00    -0.156 A  
HETATM    8  C   UNL     2      -8.291  15.665  66.223  1.00  0.00    -0.057 C  
HETATM    9  C   UNL     1     -10.682  17.587  67.605  1.00  0.00    -0.306 C  
HETATM   10  N   UNL     1      -7.650  13.016  68.984  1.00  0.00    -0.323 NA 
HETATM   11  C   UNL     1      -8.921  15.604  68.458  1.00  0.00    -0.192 C  
HETATM   12  H   UNL     1      -6.905  13.334  69.603  1.00  0.00     0.000 HD 
HETATM   13  O   UNL     1      -8.239  16.356  69.158  1.00  0.00    -0.240 OA 
HETATM   14  N   UNL     1     -10.312  16.202  67.504  1.00  0.00    -0.280 N  
HETATM   15  C   UNL     1      -7.882  11.791  68.553  1.00  0.00    -0.144 A  
HETATM   16  C   UNL     1     -11.351  15.196  66.485  1.00  0.00    -0.234 C  
HETATM   17 CL   UNL     1      -6.866  10.455  68.863  1.00  0.00    -0.058 Cl 
HETATM   18  N   UNL     1      -8.995  11.545  67.769  1.00  0.00    -0.155 NA 
ENDROOT
BRANCH   4  19
HETATM   19  C   UNL     2     -10.675  14.435  68.325  1.00  0.00    -0.242 C  
BRANCH  19  20
HETATM   20  C   UNL     2     -11.472  13.100  69.131  1.00  0.00    -0.305 C  
BRANCH  20  21
HETATM   21  O   UNL     2     -12.856  13.390  69.372  1.00  0.00     0.328 OA 
BRANCH  21  22
HETATM   22  C   UNL     2     -13.265  12.970  70.712  1.00  0.00     0.294 C  
BRANCH  22  23
HETATM   23  C   UNL     2     -12.675  11.595  71.056  1.00  0.00    -0.395 A  
HETATM   24  C   UNL     2     -13.371  10.756  71.952  1.00  0.00    -0.445 A  
HETATM   25  C   UNL     2     -11.607  11.034  70.337  1.00  0.00    -0.389 A  
HETATM   26  C   UNL     2     -13.066   9.393  72.048  1.00  0.00    -0.516 A  
HETATM   27  C   UNL     2     -12.040   8.850  71.281  1.00  0.00    -0.360 A  
HETATM   28  C   UNL     2     -11.292   9.676  70.448  1.00  0.00    -0.337 A  
ENDBRANCH  22  23
BRANCH  22  29
HETATM   29  C   UNL     2     -12.951  14.134  71.640  1.00  0.00    -0.423 A  
HETATM   30  C   UNL     2     -12.059  16.192  73.349  1.00  0.00    -0.586 A  
HETATM   31  C   UNL     2     -12.594  15.025  73.884  1.00  0.00    -0.621 A  
HETATM   32  C   UNL     2     -12.445  15.337  71.118  1.00  0.00    -0.438 A  
HETATM   33  C   UNL     2     -13.017  14.000  73.036  1.00  0.00    -0.336 A  
HETATM   34  C   UNL     2     -11.988  16.351  71.968  1.00  0.00    -0.437 A  
ENDBRANCH  22  29
ENDBRANCH  21  22
ENDBRANCH  20  21
ENDBRANCH  19  20
ENDBRANCH   4  19
TORSDOF 6
ENDMDL
MODEL      165
REMARK 921   NORMALIZED FREE ENERGY PREDICTED BY IDOCK:   -3.49 KCAL/MOL
REMARK 922        TOTAL FREE ENERGY PREDICTED BY IDOCK:   -3.10 KCAL/MOL
REMARK 923 INTER-LIGAND FREE ENERGY PREDICTED BY IDOCK:   -6.14 KCAL/MOL
REMARK 924 INTRA-LIGAND FREE ENERGY PREDICTED BY IDOCK:    3.04 KCAL/MOL
REMARK 927      BINDING AFFINITY PREDICTED BY RF-SCORE:    0.00 PKD
ROOT
HETATM    1  C   UNL     1      -9.157   9.410  65.369  1.00  0.00    -0.226 C  
HETATM    2  N   UNL     1      -8.619   9.541  66.728  1.00  0.00    -0.127 N  
HETATM    3  C   UNL     2      -7.234   7.780  67.011  1.00  0.00    -0.089 C  
HETATM    4  N   UNL     2      -7.279   8.876  68.193  1.00  0.00    -0.079 NA 
HETATM    5  C   UNL     1      -9.357   8.793  68.178  1.00  0.00    -0.140 A  
HETATM    6  O   UNL     1      -6.374  10.762  65.838  1.00  0.00    -0.127 OA 
HETATM    7  C   UNL     1      -8.726   9.014  69.693  1.00  0.00    -0.143 A  
HETATM    8  C   UNL     2      -5.996   8.258  68.967  1.00  0.00    -0.042 C  
HETATM    9  C   UNL     1      -5.237  11.523  68.676  1.00  0.00    -0.043 C  
HETATM   10  N   UNL     1      -9.523   8.363  70.581  1.00  0.00    -0.163 NA 
HETATM   11  C   UNL     1      -7.160   9.991  69.985  1.00  0.00    -0.146 C  
HETATM   12  H   UNL     1      -9.440   8.337  71.597  1.00  0.00     0.000 HD 
HETATM   13  O   UNL     1      -6.740  10.235  71.119  1.00  0.00    -0.312 OA 
HETATM   14  N   UNL     1      -6.362  10.642  68.522  1.00  0.00    -0.053 N  
HETATM   15  C   UNL     1     -10.427   7.772  69.824  1.00  0.00    -0.233 A  
HETATM   16  C   UNL     1      -6.900  10.356  66.861  1.00  0.00    -0.088 C  
HETATM   17 CL   UNL     1     -11.621   6.703  70.411  1.00  0.00    -0.438 Cl 
HETATM   18  N   UNL     1     -10.415   7.985  68.457  1.00  0.00    -0.194 NA 
ENDROOT
BRANCH   4  19
HETATM   19  C   UNL     2      -8.337  10.661  68.365  1.00  0.00    -0.127 C  
BRANCH  19  20
HETATM   20  C   UNL     2      -9.917  11.202  67.835  1.00  0.00    -0.173 C  
BRANCH  20  21
HETATM   21  O   UNL     2      -9.838  12.483  67.195  1.00  0.00    -0.205 OA 
BRANCH  21  22
HETATM   22  C   UNL     2     -11.094  13.222  67.323  1.00  0.00    -0.279 C  
BRANCH  22  23
HETATM   23  C   UNL     2     -10.881  14.526  68.107  1.00  0.00    -0.246 A  
HETATM   24  C   UNL     2      -9.831  14.597  69.046  1.00  0.00    -0.178 A  
HETATM   25  C   UNL     2     -11.524  15.725  67.760  1.00  0.00    -0.175 A  
HETATM   26  C   UNL     2      -9.386  15.829  69.540  1.00  0.00    -0.238 A  
HETATM   27  C   UNL     2     -10.004  17.008  69.134  1.00  0.00    -0.229 A  
HETATM   28  C   UNL     2     -11.090  16.954  68.268  1.00  0.00    -0.213 A  
ENDBRANCH  22  23
BRANCH  22  29
HETATM   29  C   UNL     2     -11.679  13.320  65.923  1.00  0.00    -0.403 A  
HETATM   30  C   UNL     2     -12.497  13.349  63.224  1.00  0.00    -0.137 A  
HETATM   31  C   UNL     2     -11.872  14.463  63.774  1.00  0.00     0.087 A  
HETATM   32  C   UNL     2     -12.350  12.220  65.359  1.00  0.00    -0.168 A  
HETATM   33  C   UNL     2     -11.451  14.438  65.105  1.00  0.00    -0.362 A  
HETATM   34  C   UNL     2     -12.740  12.230  64.015  1.00  0.00    -0.457 A  
ENDBRANCH  22  29
ENDBRANCH  21  22
ENDBRANCH  20  21
ENDBRANCH  19  20
ENDBRANCH   4  19
TORSDOF 6
ENDMDL
MODEL      166
REMARK 921   NORMALIZED FREE ENERGY PREDICTED BY IDOCK:   -3.37 KCAL/MOL
REMARK 922        TOTAL FREE ENERGY PREDICTED BY IDOCK:   -2.94 KCAL/MOL
REMARK 923 INTER-LIGAND FREE ENERGY PREDICTED BY IDOCK:   -5.87 KCAL/MOL
REMARK 924 INTRA-LIGAND FREE ENERGY PREDICTED BY IDOCK:    2.93 KCAL/MOL
REMARK 927      BINDING AFFINITY PREDICTED BY RF-SCORE:    0.00 PKD
ROOT
HETATM    1  C   UNL     1     -12.771  13.193  69.591  1.00  0.00     0.455 C  
HETATM    2  N   UNL     1     -11.545  13.521  68.855  1.00  0.00    -0.299 N  
HETATM    3  C   UNL     2     -11.916  15.541  67.917  1.00  0.00     0.138 C  
HETATM    4  N   UNL     2     -10.436  14.919  67.760  1.00  0.00    -0.252 NA 
HETATM    5  C   UNL     1     -11.270  13.121  67.131  1.00  0.00    -0.294 A  
HETATM    6  O   UNL     1     -10.580  14.999  70.905  1.00  0.00    -0.074 OA 
HETATM    7  C   UNL     1      -9.846  13.478  66.367  1.00  0.00    -0.295 A  
HETATM    8  C   UNL     2      -9.801  16.289  67.173  1.00  0.00    -0.243 C  
HETATM    9  C   UNL     1      -7.714  15.470  69.682  1.00  0.00    -0.138 C  
HETATM   10  N   UNL     1      -9.924  13.018  65.090  1.00  0.00    -0.488 NA 
HETATM   11  C   UNL     1      -8.460  14.393  67.224  1.00  0.00    -0.212 C  
HETATM   12  H   UNL     1      -9.203  13.037  64.371  1.00  0.00     0.000 HD 
HETATM   13  O   UNL     1      -7.365  14.578  66.687  1.00  0.00     0.379 OA 
HETATM   14  N   UNL     1      -8.781  14.892  68.912  1.00  0.00    -0.180 N  
HETATM   15  C   UNL     1     -11.151  12.539  64.999  1.00  0.00    -0.299 A  
HETATM   16  C   UNL     1     -10.312  14.656  69.765  1.00  0.00     0.065 C  
HETATM   17 CL   UNL     1     -11.843  11.940  63.559  1.00  0.00    -0.581 Cl 
HETATM   18  N   UNL     1     -11.966  12.540  66.117  1.00  0.00    -0.569 NA 
ENDROOT
BRANCH   4  19
HETATM   19  C   UNL     2      -9.613  13.147  68.480  1.00  0.00    -0.117 C  
BRANCH  19  20
HETATM   20  C   UNL     2      -9.918  11.448  68.182  1.00  0.00    -0.189 C  
BRANCH  20  21
HETATM   21  O   UNL     2     -10.505  10.817  69.329  1.00  0.00    -0.210 OA 
BRANCH  21  22
HETATM   22  C   UNL     2     -10.149   9.400  69.400  1.00  0.00    -0.198 C  
BRANCH  22  23
HETATM   23  C   UNL     2      -8.625   9.221  69.430  1.00  0.00    -0.142 A  
HETATM   24  C   UNL     2      -7.966   8.760  68.270  1.00  0.00    -0.106 A  
HETATM   25  C   UNL     2      -7.828   9.725  70.471  1.00  0.00    -0.075 A  
HETATM   26  C   UNL     2      -6.579   8.888  68.128  1.00  0.00    -0.061 A  
HETATM   27  C   UNL     2      -5.821   9.445  69.153  1.00  0.00    -0.035 A  
HETATM   28  C   UNL     2      -6.441   9.836  70.335  1.00  0.00    -0.101 A  
ENDBRANCH  22  23
BRANCH  22  29
HETATM   29  C   UNL     2     -10.959   8.812  70.546  1.00  0.00    -0.272 A  
HETATM   30  C   UNL     2     -12.649   7.590  72.444  1.00  0.00    -0.012 A  
HETATM   31  C   UNL     2     -12.847   8.920  72.089  1.00  0.00    -0.471 A  
HETATM   32  C   UNL     2     -10.750   7.482  70.949  1.00  0.00    -0.244 A  
HETATM   33  C   UNL     2     -12.021   9.516  71.135  1.00  0.00    -0.429 A  
HETATM   34  C   UNL     2     -11.600   6.872  71.878  1.00  0.00    -0.321 A  
ENDBRANCH  22  29
ENDBRANCH  21  22
ENDBRANCH  20  21
ENDBRANCH  19  20
ENDBRANCH   4  19
TORSDOF 6
ENDMDL
MODEL      167
REMARK 921   NORMALIZED FREE ENERGY PREDICTED BY IDOCK:   -3.37 KCAL/MOL
REMARK 922        TOTAL FREE ENERGY PREDICTED BY IDOCK:   -2.93 KCAL/MOL
REMARK 923 INTER-LIGAND FREE ENERGY PREDICTED BY IDOCK:   -6.14 KCAL/MOL
REMARK 924 INTRA-LIGAND FREE ENERGY PREDICTED BY IDOCK:    3.21 KCAL/MOL
REMARK 927      BINDING AFFINITY PREDICTED BY RF-SCORE:    0.00 PKD
ROOT
HETATM    1  C   UNL     1      -5.965   9.631  70.147  1.00  0.00    -0.050 C  
HETATM    2  N   UNL     1      -6.709   9.467  68.893  1.00  0.00    -0.051 N  
HETATM    3  C   UNL     2      -5.299  10.118  67.254  1.00  0.00    -0.041 C  
HETATM    4  N   UNL     2      -6.714   9.491  66.799  1.00  0.00    -0.071 NA 
HETATM    5  C   UNL     1      -7.690  10.756  68.130  1.00  0.00    -0.102 A  
HETATM    6  O   UNL     1      -5.616   7.034  68.435  1.00  0.00    -0.019 OA 
HETATM    7  C   UNL     1      -8.544  10.495  66.735  1.00  0.00    -0.126 A  
HETATM    8  C   UNL     2      -6.291   9.384  65.238  1.00  0.00    -0.067 C  
HETATM    9  C   UNL     1      -7.418   6.297  65.958  1.00  0.00    -0.082 C  
HETATM   10  N   UNL     1      -9.215  11.638  66.432  1.00  0.00    -0.208 NA 
HETATM   11  C   UNL     1      -8.480   8.868  65.819  1.00  0.00    -0.145 C  
HETATM   12  H   UNL     1      -9.866  11.799  65.663  1.00  0.00     0.000 HD 
HETATM   13  O   UNL     1      -9.186   8.642  64.834  1.00  0.00     0.028 OA 
HETATM   14  N   UNL     1      -7.410   7.619  66.522  1.00  0.00    -0.085 N  
HETATM   15  C   UNL     1      -8.830  12.491  67.362  1.00  0.00    -0.187 A  
HETATM   16  C   UNL     1      -6.375   7.850  67.938  1.00  0.00    -0.051 C  
HETATM   17 CL   UNL     1      -9.271  14.139  67.396  1.00  0.00    -0.196 Cl 
HETATM   18  N   UNL     1      -7.988  12.061  68.372  1.00  0.00    -0.150 NA 
ENDROOT
BRANCH   4  19
HETATM   19  C   UNL     2      -8.290   8.716  67.917  1.00  0.00    -0.123 C  
BRANCH  19  20
HETATM   20  C   UNL     2      -9.312   9.348  69.192  1.00  0.00    -0.159 C  
BRANCH  20  21
HETATM   21  O   UNL     2     -10.666   9.505  68.742  1.00  0.00    -0.222 OA 
BRANCH  21  22
HETATM   22  C   UNL     2     -11.615   9.345  69.842  1.00  0.00     0.064 C  
BRANCH  22  23
HETATM   23  C   UNL     2     -11.056   8.396  70.912  1.00  0.00    -0.289 A  
HETATM   24  C   UNL     2     -11.042   7.009  70.657  1.00  0.00    -0.307 A  
HETATM   25  C   UNL     2     -10.336   8.859  72.026  1.00  0.00    -0.378 A  
HETATM   26  C   UNL     2     -10.262   6.141  71.431  1.00  0.00    -0.248 A  
HETATM   27  C   UNL     2      -9.512   6.635  72.494  1.00  0.00    -0.155 A  
HETATM   28  C   UNL     2      -9.572   7.988  72.808  1.00  0.00    -0.345 A  
ENDBRANCH  22  23
BRANCH  22  29
HETATM   29  C   UNL     2     -12.014  10.749  70.272  1.00  0.00    -0.438 A  
HETATM   30  C   UNL     2     -12.470  13.362  71.229  1.00  0.00    -0.368 A  
HETATM   31  C   UNL     2     -13.013  12.270  71.899  1.00  0.00    -0.411 A  
HETATM   32  C   UNL     2     -11.509  11.868  69.587  1.00  0.00    -0.337 A  
HETATM   33  C   UNL     2     -12.769  10.977  71.433  1.00  0.00    -0.534 A  
HETATM   34  C   UNL     2     -11.722  13.162  70.073  1.00  0.00    -0.291 A  
ENDBRANCH  22  29
ENDBRANCH  21  22
ENDBRANCH  20  21
ENDBRANCH  19  20
ENDBRANCH   4  19
TORSDOF 6
ENDMDL
MODEL      168
REMARK 921   NORMALIZED FREE ENERGY PREDICTED BY IDOCK:   -3.28 KCAL/MOL
REMARK 922        TOTAL FREE ENERGY PREDICTED BY IDOCK:   -2.81 KCAL/MOL
REMARK 923 INTER-LIGAND FREE ENERGY PREDICTED BY IDOCK:   -4.96 KCAL/MOL
REMARK 924 INTRA-LIGAND FREE ENERGY PREDICTED BY IDOCK:    2.15 KCAL/MOL
REMARK 927      BINDING AFFINITY PREDICTED BY RF-SCORE:    0.00 PKD
ROOT
HETATM    1  C   UNL     1      -8.711   7.687  65.962  1.00  0.00    -0.156 C  
HETATM    2  N   UNL     1      -8.977   8.046  67.360  1.00  0.00    -0.133 N  
HETATM    3  C   UNL     2     -10.468   9.740  67.285  1.00  0.00    -0.261 C  
HETATM    4  N   UNL     2     -10.093   9.156  68.741  1.00  0.00    -0.191 NA 
HETATM    5  C   UNL     1      -8.073   9.298  68.266  1.00  0.00    -0.107 A  
HETATM    6  O   UNL     1     -11.202   6.508  67.445  1.00  0.00    -0.359 OA 
HETATM    7  C   UNL     1      -8.391   9.626  69.858  1.00  0.00    -0.183 A  
HETATM    8  C   UNL     2     -11.272   9.971  69.495  1.00  0.00    -0.208 C  
HETATM    9  C   UNL     1     -11.718   6.803  70.539  1.00  0.00    -0.375 C  
HETATM   10  N   UNL     1      -7.521  10.585  70.273  1.00  0.00    -0.455 NA 
HETATM   11  C   UNL     1      -9.764   8.773  70.794  1.00  0.00    -0.208 C  
HETATM   12  H   UNL     1      -7.420  10.979  71.208  1.00  0.00     0.000 HD 
HETATM   13  O   UNL     1      -9.943   8.948  72.001  1.00  0.00    -0.329 OA 
HETATM   14  N   UNL     1     -10.740   7.604  69.854  1.00  0.00    -0.249 N  
HETATM   15  C   UNL     1      -6.837  10.887  69.185  1.00  0.00    -0.086 A  
HETATM   16  C   UNL     1     -10.546   7.278  68.126  1.00  0.00    -0.177 C  
HETATM   17 CL   UNL     1      -5.678  12.137  69.096  1.00  0.00    -0.065 Cl 
HETATM   18  N   UNL     1      -7.074  10.187  68.016  1.00  0.00    -0.083 NA 
ENDROOT
BRANCH   4  19
HETATM   19  C   UNL     2      -8.835   7.595  69.307  1.00  0.00    -0.136 C  
BRANCH  19  20
HETATM   20  C   UNL     2      -7.883   7.249  70.736  1.00  0.00    -0.094 C  
BRANCH  20  21
HETATM   21  O   UNL     2      -8.214   5.964  71.281  1.00  0.00    -0.119 OA 
BRANCH  21  22
HETATM   22  C   UNL     2      -7.272   4.937  70.839  1.00  0.00    -0.060 C  
BRANCH  22  23
HETATM   23  C   UNL     2      -6.998   3.928  71.963  1.00  0.00    -0.044 A  
HETATM   24  C   UNL     2      -7.478   4.202  73.262  1.00  0.00    -0.076 A  
HETATM   25  C   UNL     2      -6.509   2.636  71.712  1.00  0.00    -0.015 A  
HETATM   26  C   UNL     2      -7.550   3.194  74.232  1.00  0.00    -0.056 A  
HETATM   27  C   UNL     2      -7.111   1.907  73.936  1.00  0.00    -0.024 A  
HETATM   28  C   UNL     2      -6.564   1.636  72.688  1.00  0.00    -0.014 A  
ENDBRANCH  22  23
BRANCH  22  29
HETATM   29  C   UNL     2      -7.806   4.405  69.518  1.00  0.00    -0.057 A  
HETATM   30  C   UNL     2      -8.914   3.717  67.018  1.00  0.00    -0.157 A  
HETATM   31  C   UNL     2      -9.617   3.453  68.187  1.00  0.00    -0.158 A  
HETATM   32  C   UNL     2      -7.093   4.627  68.327  1.00  0.00    -0.057 A  
HETATM   33  C   UNL     2      -9.075   3.812  69.422  1.00  0.00    -0.197 A  
HETATM   34  C   UNL     2      -7.652   4.301  67.086  1.00  0.00    -0.077 A  
ENDBRANCH  22  29
ENDBRANCH  21  22
ENDBRANCH  20  21
ENDBRANCH  19  20
ENDBRANCH   4  19
TORSDOF 6
ENDMDL
MODEL      169
REMARK 921   NORMALIZED FREE ENERGY PREDICTED BY IDOCK:   -3.27 KCAL/MOL
REMARK 922        TOTAL FREE ENERGY PREDICTED BY IDOCK:   -2.80 KCAL/MOL
REMARK 923 INTER-LIGAND FREE ENERGY PREDICTED BY IDOCK:   -6.03 KCAL/MOL
REMARK 924 INTRA-LIGAND FREE ENERGY PREDICTED BY IDOCK:    3.23 KCAL/MOL
REMARK 927      BINDING AFFINITY PREDICTED BY RF-SCORE:    0.00 PKD
ROOT
HETATM    1  C   UNL     1     -11.132   6.576  66.944  1.00  0.00    -0.272 C  
HETATM    2  N   UNL     1     -10.350   7.177  68.030  1.00  0.00    -0.185 N  
HETATM    3  C   UNL     2     -11.483   6.718  69.928  1.00  0.00    -0.300 C  
HETATM    4  N   UNL     2     -10.048   7.437  70.086  1.00  0.00    -0.195 NA 
HETATM    5  C   UNL     1     -10.603   8.837  68.651  1.00  0.00    -0.139 A  
HETATM    6  O   UNL     1      -9.108   4.836  68.578  1.00  0.00    -0.107 OA 
HETATM    7  C   UNL     1      -9.657   9.475  69.851  1.00  0.00    -0.223 A  
HETATM    8  C   UNL     2      -9.995   7.228  71.691  1.00  0.00    -0.180 C  
HETATM    9  C   UNL     1      -7.038   6.009  70.644  1.00  0.00    -0.075 C  
HETATM   10  N   UNL     1     -10.063  10.754  70.074  1.00  0.00    -0.341 NA 
HETATM   11  C   UNL     1      -8.315   8.484  70.693  1.00  0.00    -0.133 C  
HETATM   12  H   UNL     1      -9.661  11.437  70.714  1.00  0.00     0.000 HD 
HETATM   13  O   UNL     1      -7.550   8.986  71.520  1.00  0.00    -0.275 OA 
HETATM   14  N   UNL     1      -8.139   6.789  70.149  1.00  0.00    -0.125 N  
HETATM   15  C   UNL     1     -11.097  10.905  69.268  1.00  0.00    -0.248 A  
HETATM   16  C   UNL     1      -9.179   5.993  68.960  1.00  0.00    -0.121 C  
HETATM   17 CL   UNL     1     -12.084  12.296  69.222  1.00  0.00    -0.271 Cl 
HETATM   18  N   UNL     1     -11.450   9.874  68.415  1.00  0.00     0.021 NA 
ENDROOT
BRANCH   4  19
HETATM   19  C   UNL     2      -8.636   8.002  68.662  1.00  0.00    -0.128 C  
BRANCH  19  20
HETATM   20  C   UNL     2      -8.722   8.793  67.102  1.00  0.00    -0.120 C  
BRANCH  20  21
HETATM   21  O   UNL     2      -7.573   9.624  66.878  1.00  0.00    -0.094 OA 
BRANCH  21  22
HETATM   22  C   UNL     2      -7.455  10.003  65.471  1.00  0.00    -0.137 C  
BRANCH  22  23
HETATM   23  C   UNL     2      -7.130   8.779  64.602  1.00  0.00    -0.088 A  
HETATM   24  C   UNL     2      -7.896   7.605  64.759  1.00  0.00    -0.129 A  
HETATM   25  C   UNL     2      -6.272   8.851  63.493  1.00  0.00    -0.088 A  
HETATM   26  C   UNL     2      -7.869   6.591  63.793  1.00  0.00    -0.107 A  
HETATM   27  C   UNL     2      -7.052   6.715  62.673  1.00  0.00    -0.049 A  
HETATM   28  C   UNL     2      -6.233   7.830  62.538  1.00  0.00    -0.072 A  
ENDBRANCH  22  23
BRANCH  22  29
HETATM   29  C   UNL     2      -8.705  10.803  65.136  1.00  0.00    -0.174 A  
HETATM   30  C   UNL     2     -11.187  12.057  64.673  1.00  0.00    -0.380 A  
HETATM   31  C   UNL     2     -10.631  11.233  63.701  1.00  0.00    -0.453 A  
HETATM   32  C   UNL     2      -9.264  11.672  66.089  1.00  0.00    -0.228 A  
HETATM   33  C   UNL     2      -9.412  10.599  63.940  1.00  0.00    -0.325 A  
HETATM   34  C   UNL     2     -10.504  12.280  65.865  1.00  0.00    -0.288 A  
ENDBRANCH  22  29
ENDBRANCH  21  22
ENDBRANCH  20  21
ENDBRANCH  19  20
ENDBRANCH   4  19
TORSDOF 6
ENDMDL
MODEL      170
REMARK 921   NORMALIZED FREE ENERGY PREDICTED BY IDOCK:   -3.27 KCAL/MOL
REMARK 922        TOTAL FREE ENERGY PREDICTED BY IDOCK:   -2.79 KCAL/MOL
REMARK 923 INTER-LIGAND FREE ENERGY PREDICTED BY IDOCK:   -5.99 KCAL/MOL
REMARK 924 INTRA-LIGAND FREE ENERGY PREDICTED BY IDOCK:    3.19 KCAL/MOL
REMARK 927      BINDING AFFINITY PREDICTED BY RF-SCORE:    0.00 PKD
ROOT
HETATM    1  C   UNL     1     -10.701  14.343  68.725  1.00  0.00    -0.252 C  
HETATM    2  N   UNL     1      -9.528  15.028  68.169  1.00  0.00    -0.192 N  
HETATM    3  C   UNL     2      -8.869  16.498  69.751  1.00  0.00     0.699 C  
HETATM    4  N   UNL     2      -7.930  16.352  68.448  1.00  0.00    -0.170 NA 
HETATM    5  C   UNL     1      -9.604  16.551  67.231  1.00  0.00    -0.242 A  
HETATM    6  O   UNL     1      -7.816  13.366  69.447  1.00  0.00     0.331 OA 
HETATM    7  C   UNL     1      -8.248  17.253  66.591  1.00  0.00    -0.261 A  
HETATM    8  C   UNL     2      -6.721  17.223  69.085  1.00  0.00    -0.243 C  
HETATM    9  C   UNL     1      -5.196  14.410  68.042  1.00  0.00    -0.102 C  
HETATM   10  N   UNL     1      -8.630  18.363  65.905  1.00  0.00    -0.473 NA 
HETATM   11  C   UNL     1      -6.539  16.550  66.869  1.00  0.00    -0.177 C  
HETATM   12  H   UNL     1      -8.047  18.995  65.358  1.00  0.00     0.000 HD 
HETATM   13  O   UNL     1      -5.540  17.017  66.317  1.00  0.00    -0.334 OA 
HETATM   14  N   UNL     1      -6.454  15.091  67.901  1.00  0.00    -0.146 N  
HETATM   15  C   UNL     1      -9.932  18.433  66.113  1.00  0.00    -0.319 A  
HETATM   16  C   UNL     1      -7.834  14.345  68.718  1.00  0.00    -0.138 C  
HETATM   17 CL   UNL     1     -10.921  19.718  65.581  1.00  0.00    -0.379 Cl 
HETATM   18  N   UNL     1     -10.560  17.433  66.832  1.00  0.00    -0.267 NA 
ENDROOT
BRANCH   4  19
HETATM   19  C   UNL     2      -8.087  15.116  66.779  1.00  0.00    -0.078 C  
BRANCH  19  20
HETATM   20  C   UNL     2      -9.233  13.896  66.265  1.00  0.00    -0.088 C  
BRANCH  20  21
HETATM   21  O   UNL     2      -8.728  12.575  66.507  1.00  0.00    -0.150 OA 
BRANCH  21  22
HETATM   22  C   UNL     2      -9.781  11.568  66.374  1.00  0.00    -0.207 C  
BRANCH  22  23
HETATM   23  C   UNL     2     -10.764  11.951  65.259  1.00  0.00    -0.331 A  
HETATM   24  C   UNL     2     -10.502  11.525  63.939  1.00  0.00    -0.439 A  
HETATM   25  C   UNL     2     -12.031  12.492  65.526  1.00  0.00    -0.500 A  
HETATM   26  C   UNL     2     -11.501  11.555  62.959  1.00  0.00     0.150 A  
HETATM   27  C   UNL     2     -12.767  12.043  63.267  1.00  0.00    -0.437 A  
HETATM   28  C   UNL     2     -13.023  12.538  64.541  1.00  0.00    -0.215 A  
ENDBRANCH  22  23
BRANCH  22  29
HETATM   29  C   UNL     2      -9.077  10.223  66.274  1.00  0.00    -0.178 A  
HETATM   30  C   UNL     2      -7.830   7.745  65.770  1.00  0.00    -0.104 A  
HETATM   31  C   UNL     2      -9.155   7.785  66.191  1.00  0.00    -0.199 A  
HETATM   32  C   UNL     2      -7.727  10.159  65.888  1.00  0.00    -0.127 A  
HETATM   33  C   UNL     2      -9.775   9.014  66.421  1.00  0.00    -0.337 A  
HETATM   34  C   UNL     2      -7.115   8.929  65.622  1.00  0.00    -0.084 A  
ENDBRANCH  22  29
ENDBRANCH  21  22
ENDBRANCH  20  21
ENDBRANCH  19  20
ENDBRANCH   4  19
TORSDOF 6
ENDMDL
MODEL      171
REMARK 921   NORMALIZED FREE ENERGY PREDICTED BY IDOCK:   -3.16 KCAL/MOL
REMARK 922        TOTAL FREE ENERGY PREDICTED BY IDOCK:   -2.66 KCAL/MOL
REMARK 923 INTER-LIGAND FREE ENERGY PREDICTED BY IDOCK:   -4.91 KCAL/MOL
REMARK 924 INTRA-LIGAND FREE ENERGY PREDICTED BY IDOCK:    2.25 KCAL/MOL
REMARK 927      BINDING AFFINITY PREDICTED BY RF-SCORE:    0.00 PKD
ROOT
HETATM    1  C   UNL     1     -10.414   8.704  69.039  1.00  0.00    -0.199 C  
HETATM    2  N   UNL     1      -9.365   8.769  68.016  1.00  0.00    -0.142 N  
HETATM    3  C   UNL     2      -8.288  10.722  68.365  1.00  0.00    -0.132 C  
HETATM    4  N   UNL     2      -7.678   9.739  67.241  1.00  0.00    -0.095 NA 
HETATM    5  C   UNL     1      -9.573   9.532  66.409  1.00  0.00    -0.213 A  
HETATM    6  O   UNL     1      -7.496   7.797  69.715  1.00  0.00    -0.085 OA 
HETATM    7  C   UNL     1      -8.363   9.534  65.279  1.00  0.00    -0.139 A  
HETATM    8  C   UNL     2      -6.313  10.594  67.074  1.00  0.00    -0.073 C  
HETATM    9  C   UNL     1      -5.213   7.453  67.570  1.00  0.00    -0.025 C  
HETATM   10  N   UNL     1      -8.833  10.144  64.158  1.00  0.00    -0.202 NA 
HETATM   11  C   UNL     1      -6.675   8.813  65.627  1.00  0.00    -0.068 C  
HETATM   12  H   UNL     1      -8.358  10.271  63.266  1.00  0.00     0.000 HD 
HETATM   13  O   UNL     1      -5.804   8.731  64.758  1.00  0.00    -0.061 OA 
HETATM   14  N   UNL     1      -6.433   8.153  67.273  1.00  0.00    -0.056 N  
HETATM   15  C   UNL     1     -10.048  10.535  64.495  1.00  0.00    -0.332 A  
HETATM   16  C   UNL     1      -7.628   8.214  68.575  1.00  0.00    -0.104 C  
HETATM   17 CL   UNL     1     -11.064  11.476  63.497  1.00  0.00    -0.474 Cl 
HETATM   18  N   UNL     1     -10.548  10.206  65.742  1.00  0.00    -0.045 NA 
ENDROOT
BRANCH   4  19
HETATM   19  C   UNL     2      -8.275   7.846  66.609  1.00  0.00    -0.119 C  
BRANCH  19  20
HETATM   20  C   UNL     2      -8.099   6.943  65.119  1.00  0.00    -0.132 C  
BRANCH  20  21
HETATM   21  O   UNL     2      -7.939   5.541  65.379  1.00  0.00    -0.099 OA 
BRANCH  21  22
HETATM   22  C   UNL     2      -9.232   4.872  65.517  1.00  0.00    -0.157 C  
BRANCH  22  23
HETATM   23  C   UNL     2      -9.529   4.000  64.289  1.00  0.00    -0.162 A  
HETATM   24  C   UNL     2      -8.452   3.450  63.562  1.00  0.00    -0.090 A  
HETATM   25  C   UNL     2     -10.818   3.523  63.999  1.00  0.00    -0.147 A  
HETATM   26  C   UNL     2      -8.653   2.403  62.655  1.00  0.00    -0.074 A  
HETATM   27  C   UNL     2      -9.934   1.909  62.430  1.00  0.00    -0.087 A  
HETATM   28  C   UNL     2     -11.019   2.489  63.080  1.00  0.00    -0.222 A  
ENDBRANCH  22  23
BRANCH  22  29
HETATM   29  C   UNL     2      -9.224   4.202  66.883  1.00  0.00    -0.169 A  
HETATM   30  C   UNL     2      -9.518   2.879  69.355  1.00  0.00    -0.158 A  
HETATM   31  C   UNL     2      -9.680   4.257  69.280  1.00  0.00    -0.240 A  
HETATM   32  C   UNL     2      -9.023   2.815  66.987  1.00  0.00    -0.177 A  
HETATM   33  C   UNL     2      -9.553   4.907  68.051  1.00  0.00    -0.190 A  
HETATM   34  C   UNL     2      -9.186   2.157  68.212  1.00  0.00    -0.238 A  
ENDBRANCH  22  29
ENDBRANCH  21  22
ENDBRANCH  20  21
ENDBRANCH  19  20
ENDBRANCH   4  19
TORSDOF 6
ENDMDL
MODEL      172
REMARK 921   NORMALIZED FREE ENERGY PREDICTED BY IDOCK:   -3.15 KCAL/MOL
REMARK 922        TOTAL FREE ENERGY PREDICTED BY IDOCK:   -2.64 KCAL/MOL
REMARK 923 INTER-LIGAND FREE ENERGY PREDICTED BY IDOCK:   -5.44 KCAL/MOL
REMARK 924 INTRA-LIGAND FREE ENERGY PREDICTED BY IDOCK:    2.80 KCAL/MOL
REMARK 927      BINDING AFFINITY PREDICTED BY RF-SCORE:    0.00 PKD
ROOT
HETATM    1  C   UNL     1      -6.990  13.682  67.233  1.00  0.00     0.105 C  
HETATM    2  N   UNL     1      -8.266  13.016  67.521  1.00  0.00    -0.170 N  
HETATM    3  C   UNL     2      -9.713  13.760  65.956  1.00  0.00    -0.237 C  
HETATM    4  N   UNL     2     -10.238  12.605  66.952  1.00  0.00    -0.233 NA 
HETATM    5  C   UNL     1      -9.541  13.701  68.575  1.00  0.00    -0.165 A  
HETATM    6  O   UNL     1      -7.787  11.070  65.703  1.00  0.00    -0.076 OA 
HETATM    7  C   UNL     1     -10.943  12.881  68.899  1.00  0.00    -0.228 A  
HETATM    8  C   UNL     2     -11.590  12.330  66.101  1.00  0.00    -0.390 C  
HETATM    9  C   UNL     1     -10.254   9.262  66.462  1.00  0.00    -0.246 C  
HETATM   10  N   UNL     1     -11.685  13.633  69.754  1.00  0.00    -0.347 NA 
HETATM   11  C   UNL     1     -11.325  11.223  68.126  1.00  0.00    -0.303 C  
HETATM   12  H   UNL     1     -12.579  13.398  70.183  1.00  0.00     0.000 HD 
HETATM   13  O   UNL     1     -12.324  10.569  68.437  1.00  0.00    -0.113 OA 
HETATM   14  N   UNL     1     -10.100  10.593  66.984  1.00  0.00    -0.202 N  
HETATM   15  C   UNL     1     -10.979  14.739  69.900  1.00  0.00    -0.199 A  
HETATM   16  C   UNL     1      -8.635  11.453  66.493  1.00  0.00    -0.175 C  
HETATM   17 CL   UNL     1     -11.504  16.104  70.780  1.00  0.00    -0.430 Cl 
HETATM   18  N   UNL     1      -9.745  14.844  69.284  1.00  0.00    -0.181 NA 
ENDROOT
BRANCH   4  19
HETATM   19  C   UNL     2      -9.276  11.583  68.490  1.00  0.00    -0.167 C  
BRANCH  19  20
HETATM   20  C   UNL     2      -9.793  10.426  69.700  1.00  0.00    -0.144 C  
BRANCH  20  21
HETATM   21  O   UNL     2      -9.132   9.165  69.528  1.00  0.00    -0.144 OA 
BRANCH  21  22
HETATM   22  C   UNL     2      -9.019   8.443  70.795  1.00  0.00    -0.155 C  
BRANCH  22  23
HETATM   23  C   UNL     2     -10.395   7.950  71.265  1.00  0.00    -0.222 A  
HETATM   24  C   UNL     2     -11.158   7.129  70.408  1.00  0.00    -0.309 A  
HETATM   25  C   UNL     2     -10.823   8.072  72.597  1.00  0.00    -0.436 A  
HETATM   26  C   UNL     2     -12.246   6.392  70.893  1.00  0.00    -0.082 A  
HETATM   27  C   UNL     2     -12.612   6.488  72.232  1.00  0.00    -0.063 A  
HETATM   28  C   UNL     2     -11.920   7.349  73.075  1.00  0.00     0.272 A  
ENDBRANCH  22  23
BRANCH  22  29
HETATM   29  C   UNL     2      -7.919   7.410  70.604  1.00  0.00    -0.098 A  
HETATM   30  C   UNL     2      -6.113   5.273  70.254  1.00  0.00    -0.022 A  
HETATM   31  C   UNL     2      -6.341   5.791  71.524  1.00  0.00    -0.044 A  
HETATM   32  C   UNL     2      -7.644   6.900  69.323  1.00  0.00    -0.096 A  
HETATM   33  C   UNL     2      -7.249   6.837  71.696  1.00  0.00    -0.080 A  
HETATM   34  C   UNL     2      -6.761   5.827  69.153  1.00  0.00    -0.060 A  
ENDBRANCH  22  29
ENDBRANCH  21  22
ENDBRANCH  20  21
ENDBRANCH  19  20
ENDBRANCH   4  19
TORSDOF 6
ENDMDL
MODEL      173
REMARK 921   NORMALIZED FREE ENERGY PREDICTED BY IDOCK:   -3.14 KCAL/MOL
REMARK 922        TOTAL FREE ENERGY PREDICTED BY IDOCK:   -2.63 KCAL/MOL
REMARK 923 INTER-LIGAND FREE ENERGY PREDICTED BY IDOCK:   -5.64 KCAL/MOL
REMARK 924 INTRA-LIGAND FREE ENERGY PREDICTED BY IDOCK:    3.01 KCAL/MOL
REMARK 927      BINDING AFFINITY PREDICTED BY RF-SCORE:    0.00 PKD
ROOT
HETATM    1  C   UNL     1      -6.903  10.806  70.121  1.00  0.00    -0.067 C  
HETATM    2  N   UNL     1      -7.886  10.026  69.360  1.00  0.00    -0.125 N  
HETATM    3  C   UNL     2      -9.458  11.503  68.693  1.00  0.00    -0.141 C  
HETATM    4  N   UNL     2      -9.588   9.994  68.140  1.00  0.00    -0.138 NA 
HETATM    5  C   UNL     1      -9.345   9.274  70.076  1.00  0.00    -0.209 A  
HETATM    6  O   UNL     1      -6.731  10.669  66.999  1.00  0.00    -0.077 OA 
HETATM    7  C   UNL     1     -10.394   8.366  69.172  1.00  0.00    -0.220 A  
HETATM    8  C   UNL     2     -10.744  10.367  67.068  1.00  0.00    -0.235 C  
HETATM    9  C   UNL     1      -8.460   8.727  65.219  1.00  0.00    -0.174 C  
HETATM   10  N   UNL     1     -11.369   7.901  69.998  1.00  0.00    -0.456 NA 
HETATM   11  C   UNL     1     -10.174   8.130  67.332  1.00  0.00    -0.258 C  
HETATM   12  H   UNL     1     -12.142   7.278  69.768  1.00  0.00     0.000 HD 
HETATM   13  O   UNL     1     -10.901   7.381  66.675  1.00  0.00    -0.198 OA 
HETATM   14  N   UNL     1      -8.779   8.976  66.598  1.00  0.00    -0.125 N  
HETATM   15  C   UNL     1     -11.083   8.444  71.166  1.00  0.00    -0.256 A  
HETATM   16  C   UNL     1      -7.678  10.056  67.464  1.00  0.00    -0.091 C  
HETATM   17 CL   UNL     1     -12.061   8.299  72.558  1.00  0.00    -0.439 Cl 
HETATM   18  N   UNL     1      -9.941   9.213  71.297  1.00  0.00    -0.302 NA 
ENDROOT
BRANCH   4  19
HETATM   19  C   UNL     2      -8.378   8.323  68.425  1.00  0.00    -0.132 C  
BRANCH  19  20
HETATM   20  C   UNL     2      -8.663   6.687  68.982  1.00  0.00    -0.129 C  
BRANCH  20  21
HETATM   21  O   UNL     2      -7.429   5.978  69.167  1.00  0.00    -0.082 OA 
BRANCH  21  22
HETATM   22  C   UNL     2      -7.585   4.552  68.886  1.00  0.00    -0.060 C  
BRANCH  22  23
HETATM   23  C   UNL     2      -8.290   3.841  70.050  1.00  0.00    -0.081 A  
HETATM   24  C   UNL     2      -8.926   4.617  71.042  1.00  0.00    -0.166 A  
HETATM   25  C   UNL     2      -8.543   2.460  70.045  1.00  0.00    -0.101 A  
HETATM   26  C   UNL     2      -9.846   4.042  71.928  1.00  0.00    -0.247 A  
HETATM   27  C   UNL     2     -10.122   2.680  71.863  1.00  0.00    -0.154 A  
HETATM   28  C   UNL     2      -9.449   1.885  70.942  1.00  0.00    -0.199 A  
ENDBRANCH  22  23
BRANCH  22  29
HETATM   29  C   UNL     2      -8.214   4.453  67.504  1.00  0.00    -0.099 A  
HETATM   30  C   UNL     2      -9.457   4.583  64.977  1.00  0.00    -0.156 A  
HETATM   31  C   UNL     2     -10.163   4.108  66.076  1.00  0.00    -0.099 A  
HETATM   32  C   UNL     2      -7.505   4.891  66.372  1.00  0.00    -0.087 A  
HETATM   33  C   UNL     2      -9.551   4.063  67.330  1.00  0.00    -0.229 A  
HETATM   34  C   UNL     2      -8.128   4.971  65.122  1.00  0.00    -0.112 A  
ENDBRANCH  22  29
ENDBRANCH  21  22
ENDBRANCH  20  21
ENDBRANCH  19  20
ENDBRANCH   4  19
TORSDOF 6
ENDMDL
MODEL      174
REMARK 921   NORMALIZED FREE ENERGY PREDICTED BY IDOCK:   -3.10 KCAL/MOL
REMARK 922        TOTAL FREE ENERGY PREDICTED BY IDOCK:   -2.57 KCAL/MOL
REMARK 923 INTER-LIGAND FREE ENERGY PREDICTED BY IDOCK:   -5.98 KCAL/MOL
REMARK 924 INTRA-LIGAND FREE ENERGY PREDICTED BY IDOCK:    3.41 KCAL/MOL
REMARK 927      BINDING AFFINITY PREDICTED BY RF-SCORE:    0.00 PKD
ROOT
HETATM    1  C   UNL     1     -10.489   8.265  67.264  1.00  0.00    -0.303 C  
HETATM    2  N   UNL     1      -9.985   8.388  68.636  1.00  0.00    -0.179 N  
HETATM    3  C   UNL     2      -9.943   6.288  69.465  1.00  0.00    -0.164 C  
HETATM    4  N   UNL     2      -9.322   7.454  70.389  1.00  0.00    -0.162 NA 
HETATM    5  C   UNL     1     -11.030   8.599  70.076  1.00  0.00    -0.203 A  
HETATM    6  O   UNL     1      -7.455   7.802  67.876  1.00  0.00    -0.099 OA 
HETATM    7  C   UNL     1     -10.398   8.777  71.596  1.00  0.00    -0.321 A  
HETATM    8  C   UNL     2      -8.674   6.419  71.454  1.00  0.00    -0.131 C  
HETATM    9  C   UNL     1      -6.099   8.430  70.650  1.00  0.00    -0.032 C  
HETATM   10  N   UNL     1     -11.430   8.958  72.463  1.00  0.00    -0.130 NA 
HETATM   11  C   UNL     1      -8.561   8.691  71.926  1.00  0.00    -0.162 C  
HETATM   12  H   UNL     1     -11.383   9.141  73.465  1.00  0.00     0.000 HD 
HETATM   13  O   UNL     1      -8.084   8.915  73.041  1.00  0.00    -0.380 OA 
HETATM   14  N   UNL     1      -7.527   8.367  70.502  1.00  0.00    -0.062 N  
HETATM   15  C   UNL     1     -12.505   8.842  71.707  1.00  0.00    -0.350 A  
HETATM   16  C   UNL     1      -8.123   8.049  68.868  1.00  0.00    -0.124 C  
HETATM   17 CL   UNL     1     -14.104   8.857  72.304  1.00  0.00    -0.511 Cl 
HETATM   18  N   UNL     1     -12.362   8.662  70.343  1.00  0.00     0.299 NA 
ENDROOT
BRANCH   4  19
HETATM   19  C   UNL     2      -9.091   9.496  70.046  1.00  0.00    -0.227 C  
BRANCH  19  20
HETATM   20  C   UNL     2      -8.961  10.487  68.608  1.00  0.00    -0.162 C  
BRANCH  20  21
HETATM   21  O   UNL     2      -7.767  11.282  68.632  1.00  0.00    -0.121 OA 
BRANCH  21  22
HETATM   22  C   UNL     2      -7.466  11.832  67.311  1.00  0.00    -0.151 C  
BRANCH  22  23
HETATM   23  C   UNL     2      -8.148  11.009  66.209  1.00  0.00    -0.159 A  
HETATM   24  C   UNL     2      -9.349  11.486  65.643  1.00  0.00    -0.221 A  
HETATM   25  C   UNL     2      -7.509   9.935  65.568  1.00  0.00    -0.126 A  
HETATM   26  C   UNL     2      -9.833  10.967  64.435  1.00  0.00    -0.365 A  
HETATM   27  C   UNL     2      -9.149   9.941  63.791  1.00  0.00    -0.293 A  
HETATM   28  C   UNL     2      -8.004   9.406  64.372  1.00  0.00    -0.131 A  
ENDBRANCH  22  23
BRANCH  22  29
HETATM   29  C   UNL     2      -7.776  13.320  67.385  1.00  0.00    -0.148 A  
HETATM   30  C   UNL     2      -8.309  16.051  67.842  1.00  0.00    -0.158 A  
HETATM   31  C   UNL     2      -9.359  15.147  67.725  1.00  0.00    -0.189 A  
HETATM   32  C   UNL     2      -6.730  14.256  67.465  1.00  0.00    -0.128 A  
HETATM   33  C   UNL     2      -9.091  13.792  67.518  1.00  0.00    -0.209 A  
HETATM   34  C   UNL     2      -6.996  15.608  67.709  1.00  0.00    -0.179 A  
ENDBRANCH  22  29
ENDBRANCH  21  22
ENDBRANCH  20  21
ENDBRANCH  19  20
ENDBRANCH   4  19
TORSDOF 6
ENDMDL
MODEL      175
REMARK 921   NORMALIZED FREE ENERGY PREDICTED BY IDOCK:   -3.09 KCAL/MOL
REMARK 922        TOTAL FREE ENERGY PREDICTED BY IDOCK:   -2.56 KCAL/MOL
REMARK 923 INTER-LIGAND FREE ENERGY PREDICTED BY IDOCK:   -5.62 KCAL/MOL
REMARK 924 INTRA-LIGAND FREE ENERGY PREDICTED BY IDOCK:    3.06 KCAL/MOL
REMARK 927      BINDING AFFINITY PREDICTED BY RF-SCORE:    0.00 PKD
ROOT
HETATM    1  C   UNL     1      -6.612   3.368  67.720  1.00  0.00    -0.038 C  
HETATM    2  N   UNL     1      -7.565   4.452  67.459  1.00  0.00    -0.077 N  
HETATM    3  C   UNL     2      -9.200   3.539  66.197  1.00  0.00    -0.168 C  
HETATM    4  N   UNL     2      -9.413   5.061  66.684  1.00  0.00    -0.136 NA 
HETATM    5  C   UNL     1      -7.496   5.529  66.029  1.00  0.00    -0.082 A  
HETATM    6  O   UNL     1      -9.158   3.694  69.510  1.00  0.00    -0.104 OA 
HETATM    7  C   UNL     1      -8.576   6.765  65.812  1.00  0.00    -0.137 A  
HETATM    8  C   UNL     2     -10.960   5.117  66.204  1.00  0.00     0.028 C  
HETATM    9  C   UNL     1     -11.091   6.179  69.394  1.00  0.00    -0.409 C  
HETATM   10  N   UNL     1      -8.242   7.422  64.670  1.00  0.00    -0.301 NA 
HETATM   11  C   UNL     1      -9.988   7.072  66.998  1.00  0.00    -0.210 C  
HETATM   12  H   UNL     1      -8.676   8.255  64.275  1.00  0.00     0.000 HD 
HETATM   13  O   UNL     1     -10.736   8.046  66.888  1.00  0.00    -0.322 OA 
HETATM   14  N   UNL     1     -10.123   5.924  68.364  1.00  0.00    -0.154 N  
HETATM   15  C   UNL     1      -7.225   6.731  64.190  1.00  0.00    -0.071 A  
HETATM   16  C   UNL     1      -9.086   4.512  68.608  1.00  0.00    -0.120 C  
HETATM   17 CL   UNL     1      -6.478   7.038  62.687  1.00  0.00    -0.051 Cl 
HETATM   18  N   UNL     1      -6.729   5.661  64.914  1.00  0.00    -0.046 NA 
ENDROOT
BRANCH   4  19
HETATM   19  C   UNL     2      -8.236   6.292  67.883  1.00  0.00    -0.114 C  
BRANCH  19  20
HETATM   20  C   UNL     2      -8.506   7.165  69.377  1.00  0.00    -0.134 C  
BRANCH  20  21
HETATM   21  O   UNL     2      -7.384   7.998  69.702  1.00  0.00    -0.080 OA 
BRANCH  21  22
HETATM   22  C   UNL     2      -7.810   9.351  70.059  1.00  0.00    -0.132 C  
BRANCH  22  23
HETATM   23  C   UNL     2      -7.570  10.323  68.894  1.00  0.00    -0.094 A  
HETATM   24  C   UNL     2      -7.071  11.614  69.171  1.00  0.00    -0.090 A  
HETATM   25  C   UNL     2      -7.591   9.909  67.553  1.00  0.00    -0.091 A  
HETATM   26  C   UNL     2      -6.531  12.411  68.155  1.00  0.00    -0.072 A  
HETATM   27  C   UNL     2      -6.512  11.952  66.842  1.00  0.00    -0.095 A  
HETATM   28  C   UNL     2      -7.068  10.715  66.537  1.00  0.00    -0.133 A  
ENDBRANCH  22  23
BRANCH  22  29
HETATM   29  C   UNL     2      -9.224   9.226  70.604  1.00  0.00    -0.321 A  
HETATM   30  C   UNL     2     -11.797   9.280  71.757  1.00  0.00    -0.454 A  
HETATM   31  C   UNL     2     -10.767   8.588  72.384  1.00  0.00    -0.376 A  
HETATM   32  C   UNL     2     -10.289   9.885  69.964  1.00  0.00    -0.320 A  
HETATM   33  C   UNL     2      -9.490   8.579  71.821  1.00  0.00    -0.328 A  
HETATM   34  C   UNL     2     -11.560   9.925  70.547  1.00  0.00    -0.386 A  
ENDBRANCH  22  29
ENDBRANCH  21  22
ENDBRANCH  20  21
ENDBRANCH  19  20
ENDBRANCH   4  19
TORSDOF 6
ENDMDL
MODEL      176
REMARK 921   NORMALIZED FREE ENERGY PREDICTED BY IDOCK:   -3.07 KCAL/MOL
REMARK 922        TOTAL FREE ENERGY PREDICTED BY IDOCK:   -2.53 KCAL/MOL
REMARK 923 INTER-LIGAND FREE ENERGY PREDICTED BY IDOCK:   -5.23 KCAL/MOL
REMARK 924 INTRA-LIGAND FREE ENERGY PREDICTED BY IDOCK:    2.69 KCAL/MOL
REMARK 927      BINDING AFFINITY PREDICTED BY RF-SCORE:    0.00 PKD
ROOT
HETATM    1  C   UNL     1      -8.832   7.777  66.145  1.00  0.00    -0.162 C  
HETATM    2  N   UNL     1      -9.044   8.101  67.560  1.00  0.00    -0.137 N  
HETATM    3  C   UNL     2     -10.518   9.811  67.583  1.00  0.00    -0.251 C  
HETATM    4  N   UNL     2     -10.096   9.186  69.009  1.00  0.00    -0.185 NA 
HETATM    5  C   UNL     1      -8.094   9.321  68.464  1.00  0.00    -0.106 A  
HETATM    6  O   UNL     1     -11.280   6.583  67.687  1.00  0.00    -0.324 OA 
HETATM    7  C   UNL     1      -8.351   9.611  70.074  1.00  0.00    -0.182 A  
HETATM    8  C   UNL     2     -11.239   9.992  69.827  1.00  0.00    -0.258 C  
HETATM    9  C   UNL     1     -11.680   6.803  70.805  1.00  0.00    -0.386 C  
HETATM   10  N   UNL     1      -7.456  10.550  70.482  1.00  0.00    -0.376 NA 
HETATM   11  C   UNL     1      -9.698   8.746  71.038  1.00  0.00    -0.230 C  
HETATM   12  H   UNL     1      -7.317  10.918  71.422  1.00  0.00     0.000 HD 
HETATM   13  O   UNL     1      -9.830   8.892  72.256  1.00  0.00    -0.284 OA 
HETATM   14  N   UNL     1     -10.719   7.611  70.105  1.00  0.00    -0.237 N  
HETATM   15  C   UNL     1      -6.809  10.874  69.378  1.00  0.00    -0.114 A  
HETATM   16  C   UNL     1     -10.591   7.329  68.364  1.00  0.00    -0.170 C  
HETATM   17 CL   UNL     1      -5.641  12.114  69.279  1.00  0.00    -0.066 Cl 
HETATM   18  N   UNL     1      -7.095  10.206  68.201  1.00  0.00    -0.078 NA 
ENDROOT
BRANCH   4  19
HETATM   19  C   UNL     2      -8.836   7.599  69.489  1.00  0.00    -0.139 C  
BRANCH  19  20
HETATM   20  C   UNL     2      -7.953   7.130  70.927  1.00  0.00    -0.096 C  
BRANCH  20  21
HETATM   21  O   UNL     2      -6.934   6.167  70.620  1.00  0.00    -0.060 OA 
BRANCH  21  22
HETATM   22  C   UNL     2      -7.057   4.975  71.457  1.00  0.00    -0.054 C  
BRANCH  22  23
HETATM   23  C   UNL     2      -8.321   5.046  72.326  1.00  0.00    -0.121 A  
HETATM   24  C   UNL     2      -9.412   4.205  72.018  1.00  0.00    -0.195 A  
HETATM   25  C   UNL     2      -8.353   5.728  73.553  1.00  0.00    -0.111 A  
HETATM   26  C   UNL     2     -10.439   3.988  72.945  1.00  0.00    -0.247 A  
HETATM   27  C   UNL     2     -10.416   4.632  74.178  1.00  0.00    -0.333 A  
HETATM   28  C   UNL     2      -9.389   5.523  74.470  1.00  0.00    -0.136 A  
ENDBRANCH  22  23
BRANCH  22  29
HETATM   29  C   UNL     2      -6.896   3.780  70.530  1.00  0.00    -0.033 A  
HETATM   30  C   UNL     2      -6.282   1.638  68.802  1.00  0.00    -0.025 A  
HETATM   31  C   UNL     2      -6.749   2.840  68.282  1.00  0.00    -0.040 A  
HETATM   32  C   UNL     2      -6.462   2.544  71.038  1.00  0.00    -0.023 A  
HETATM   33  C   UNL     2      -7.034   3.905  69.138  1.00  0.00    -0.046 A  
HETATM   34  C   UNL     2      -6.142   1.488  70.179  1.00  0.00    -0.023 A  
ENDBRANCH  22  29
ENDBRANCH  21  22
ENDBRANCH  20  21
ENDBRANCH  19  20
ENDBRANCH   4  19
TORSDOF 6
ENDMDL
MODEL      177
REMARK 921   NORMALIZED FREE ENERGY PREDICTED BY IDOCK:   -3.07 KCAL/MOL
REMARK 922        TOTAL FREE ENERGY PREDICTED BY IDOCK:   -2.53 KCAL/MOL
REMARK 923 INTER-LIGAND FREE ENERGY PREDICTED BY IDOCK:   -4.95 KCAL/MOL
REMARK 924 INTRA-LIGAND FREE ENERGY PREDICTED BY IDOCK:    2.42 KCAL/MOL
REMARK 927      BINDING AFFINITY PREDICTED BY RF-SCORE:    0.00 PKD
ROOT
HETATM    1  C   UNL     1     -11.026   8.920  68.851  1.00  0.00     0.080 C  
HETATM    2  N   UNL     1     -10.177   8.205  69.810  1.00  0.00    -0.199 N  
HETATM    3  C   UNL     2     -10.661   9.083  71.833  1.00  0.00    -0.331 C  
HETATM    4  N   UNL     2      -9.660   7.820  71.802  1.00  0.00    -0.159 NA 
HETATM    5  C   UNL     1      -8.547   8.751  70.312  1.00  0.00    -0.152 A  
HETATM    6  O   UNL     1     -12.158   6.471  70.437  1.00  0.00    -0.360 OA 
HETATM    7  C   UNL     1      -7.617   7.875  71.366  1.00  0.00    -0.083 A  
HETATM    8  C   UNL     2      -9.693   7.611  73.409  1.00  0.00    -0.304 C  
HETATM    9  C   UNL     1     -10.398   4.548  72.207  1.00  0.00    -0.176 C  
HETATM   10  N   UNL     1      -6.429   8.519  71.517  1.00  0.00    -0.058 NA 
HETATM   11  C   UNL     1      -8.233   6.301  72.164  1.00  0.00    -0.109 C  
HETATM   12  H   UNL     1      -5.620   8.223  72.060  1.00  0.00     0.000 HD 
HETATM   13  O   UNL     1      -7.510   5.600  72.875  1.00  0.00    -0.093 OA 
HETATM   14  N   UNL     1      -9.905   5.818  71.748  1.00  0.00    -0.164 N  
HETATM   15  C   UNL     1      -6.568   9.616  70.796  1.00  0.00    -0.099 A  
HETATM   16  C   UNL     1     -11.006   6.753  70.727  1.00  0.00    -0.262 C  
HETATM   17 CL   UNL     1      -5.413  10.869  70.724  1.00  0.00    -0.111 Cl 
HETATM   18  N   UNL     1      -7.727   9.808  70.066  1.00  0.00    -0.156 NA 
ENDROOT
BRANCH   4  19
HETATM   19  C   UNL     2      -8.969   6.658  70.217  1.00  0.00    -0.152 C  
BRANCH  19  20
HETATM   20  C   UNL     2      -8.002   6.983  68.794  1.00  0.00    -0.120 C  
BRANCH  20  21
HETATM   21  O   UNL     2      -8.674   6.556  67.600  1.00  0.00    -0.116 OA 
BRANCH  21  22
HETATM   22  C   UNL     2      -7.891   6.867  66.405  1.00  0.00    -0.103 C  
BRANCH  22  23
HETATM   23  C   UNL     2      -8.113   5.808  65.316  1.00  0.00    -0.130 A  
HETATM   24  C   UNL     2      -7.262   5.793  64.191  1.00  0.00    -0.055 A  
HETATM   25  C   UNL     2      -8.962   4.705  65.502  1.00  0.00    -0.142 A  
HETATM   26  C   UNL     2      -7.201   4.678  63.346  1.00  0.00    -0.049 A  
HETATM   27  C   UNL     2      -8.013   3.574  63.588  1.00  0.00    -0.084 A  
HETATM   28  C   UNL     2      -8.913   3.600  64.647  1.00  0.00    -0.123 A  
ENDBRANCH  22  23
BRANCH  22  29
HETATM   29  C   UNL     2      -8.192   8.318  66.061  1.00  0.00    -0.119 A  
HETATM   30  C   UNL     2      -8.804  11.052  65.739  1.00  0.00    -0.200 A  
HETATM   31  C   UNL     2      -9.785  10.089  65.528  1.00  0.00    -0.355 A  
HETATM   32  C   UNL     2      -7.204   9.304  66.230  1.00  0.00    -0.088 A  
HETATM   33  C   UNL     2      -9.484   8.738  65.707  1.00  0.00    -0.239 A  
HETATM   34  C   UNL     2      -7.514  10.661  66.086  1.00  0.00    -0.138 A  
ENDBRANCH  22  29
ENDBRANCH  21  22
ENDBRANCH  20  21
ENDBRANCH  19  20
ENDBRANCH   4  19
TORSDOF 6
ENDMDL
MODEL      178
REMARK 921   NORMALIZED FREE ENERGY PREDICTED BY IDOCK:   -3.06 KCAL/MOL
REMARK 922        TOTAL FREE ENERGY PREDICTED BY IDOCK:   -2.52 KCAL/MOL
REMARK 923 INTER-LIGAND FREE ENERGY PREDICTED BY IDOCK:   -4.61 KCAL/MOL
REMARK 924 INTRA-LIGAND FREE ENERGY PREDICTED BY IDOCK:    2.09 KCAL/MOL
REMARK 927      BINDING AFFINITY PREDICTED BY RF-SCORE:    0.00 PKD
ROOT
HETATM    1  C   UNL     1     -11.239   6.806  69.610  1.00  0.00    -0.292 C  
HETATM    2  N   UNL     1      -9.944   7.365  69.207  1.00  0.00    -0.169 N  
HETATM    3  C   UNL     2      -9.645   9.202  70.485  1.00  0.00    -0.243 C  
HETATM    4  N   UNL     2      -8.420   8.764  69.531  1.00  0.00    -0.125 NA 
HETATM    5  C   UNL     1      -9.737   8.604  67.930  1.00  0.00    -0.161 A  
HETATM    6  O   UNL     1      -8.653   6.127  71.237  1.00  0.00    -0.127 OA 
HETATM    7  C   UNL     1      -8.243   9.165  67.489  1.00  0.00    -0.108 A  
HETATM    8  C   UNL     2      -7.375   9.802  70.207  1.00  0.00    -0.158 C  
HETATM    9  C   UNL     1      -5.735   6.866  70.304  1.00  0.00    -0.023 C  
HETATM   10  N   UNL     1      -8.409  10.057  66.476  1.00  0.00    -0.125 NA 
HETATM   11  C   UNL     1      -6.679   8.604  68.343  1.00  0.00    -0.064 C  
HETATM   12  H   UNL     1      -7.689  10.550  65.950  1.00  0.00     0.000 HD 
HETATM   13  O   UNL     1      -5.560   8.949  67.955  1.00  0.00    -0.035 OA 
HETATM   14  N   UNL     1      -6.897   7.452  69.694  1.00  0.00    -0.051 N  
HETATM   15  C   UNL     1      -9.719  10.137  66.334  1.00  0.00    -0.205 A  
HETATM   16  C   UNL     1      -8.459   6.892  70.307  1.00  0.00    -0.139 C  
HETATM   17 CL   UNL     1     -10.504  11.219  65.273  1.00  0.00    -0.335 Cl 
HETATM   18  N   UNL     1     -10.537   9.329  67.103  1.00  0.00    -0.246 NA 
ENDROOT
BRANCH   4  19
HETATM   19  C   UNL     2      -8.204   7.148  68.236  1.00  0.00    -0.124 C  
BRANCH  19  20
HETATM   20  C   UNL     2      -7.863   6.989  66.525  1.00  0.00    -0.106 C  
BRANCH  20  21
HETATM   21  O   UNL     2      -7.544   5.632  66.184  1.00  0.00    -0.088 OA 
BRANCH  21  22
HETATM   22  C   UNL     2      -8.738   4.787  66.184  1.00  0.00    -0.116 C  
BRANCH  22  23
HETATM   23  C   UNL     2      -9.091   4.343  64.757  1.00  0.00    -0.152 A  
HETATM   24  C   UNL     2      -8.052   4.148  63.823  1.00  0.00    -0.091 A  
HETATM   25  C   UNL     2     -10.372   3.886  64.408  1.00  0.00    -0.242 A  
HETATM   26  C   UNL     2      -8.273   3.441  62.634  1.00  0.00    -0.073 A  
HETATM   27  C   UNL     2      -9.541   2.949  62.340  1.00  0.00    -0.092 A  
HETATM   28  C   UNL     2     -10.595   3.196  63.212  1.00  0.00    -0.238 A  
ENDBRANCH  22  23
BRANCH  22  29
HETATM   29  C   UNL     2      -8.498   3.707  67.228  1.00  0.00    -0.105 A  
HETATM   30  C   UNL     2      -7.932   1.939  69.351  1.00  0.00    -0.056 A  
HETATM   31  C   UNL     2      -7.036   2.070  68.296  1.00  0.00    -0.039 A  
HETATM   32  C   UNL     2      -9.410   3.530  68.283  1.00  0.00    -0.235 A  
HETATM   33  C   UNL     2      -7.310   2.960  67.256  1.00  0.00    -0.061 A  
HETATM   34  C   UNL     2      -9.119   2.665  69.344  1.00  0.00    -0.188 A  
ENDBRANCH  22  29
ENDBRANCH  21  22
ENDBRANCH  20  21
ENDBRANCH  19  20
ENDBRANCH   4  19
TORSDOF 6
ENDMDL
MODEL      179
REMARK 921   NORMALIZED FREE ENERGY PREDICTED BY IDOCK:   -3.04 KCAL/MOL
REMARK 922        TOTAL FREE ENERGY PREDICTED BY IDOCK:   -2.49 KCAL/MOL
REMARK 923 INTER-LIGAND FREE ENERGY PREDICTED BY IDOCK:   -4.81 KCAL/MOL
REMARK 924 INTRA-LIGAND FREE ENERGY PREDICTED BY IDOCK:    2.32 KCAL/MOL
REMARK 927      BINDING AFFINITY PREDICTED BY RF-SCORE:    0.00 PKD
ROOT
HETATM    1  C   UNL     1     -11.285  10.075  69.081  1.00  0.00    -0.149 C  
HETATM    2  N   UNL     1     -10.171   9.718  68.196  1.00  0.00    -0.176 N  
HETATM    3  C   UNL     2     -10.765  10.438  66.141  1.00  0.00    -0.006 C  
HETATM    4  N   UNL     2      -9.277   9.838  66.306  1.00  0.00    -0.156 NA 
HETATM    5  C   UNL     1     -10.065   8.180  67.284  1.00  0.00    -0.241 A  
HETATM    6  O   UNL     1      -9.075  12.183  68.400  1.00  0.00    -0.191 OA 
HETATM    7  C   UNL     1      -8.759   7.815  66.334  1.00  0.00    -0.150 A  
HETATM    8  C   UNL     2      -8.795  10.328  64.839  1.00  0.00    -0.192 C  
HETATM    9  C   UNL     1      -6.397  11.506  66.884  1.00  0.00    -0.146 C  
HETATM   10  N   UNL     1      -8.951   6.575  65.811  1.00  0.00    -0.324 NA 
HETATM   11  C   UNL     1      -7.344   9.011  66.086  1.00  0.00    -0.091 C  
HETATM   12  H   UNL     1      -8.316   6.037  65.222  1.00  0.00     0.000 HD 
HETATM   13  O   UNL     1      -6.330   8.705  65.456  1.00  0.00    -0.054 OA 
HETATM   14  N   UNL     1      -7.506  10.592  66.908  1.00  0.00    -0.106 N  
HETATM   15  C   UNL     1     -10.149   6.228  66.243  1.00  0.00     0.056 A  
HETATM   16  C   UNL     1      -8.915  11.109  67.843  1.00  0.00    -0.143 C  
HETATM   17 CL   UNL     1     -10.959   4.799  65.784  1.00  0.00    -0.183 Cl 
HETATM   18  N   UNL     1     -10.833   7.072  67.100  1.00  0.00    -0.358 NA 
ENDROOT
BRANCH   4  19
HETATM   19  C   UNL     2      -8.273   9.112  67.980  1.00  0.00    -0.112 C  
BRANCH  19  20
HETATM   20  C   UNL     2      -7.150   7.797  68.257  1.00  0.00    -0.084 C  
BRANCH  20  21
HETATM   21  O   UNL     2      -7.819   6.647  68.794  1.00  0.00    -0.107 OA 
BRANCH  21  22
HETATM   22  C   UNL     2      -7.669   6.572  70.246  1.00  0.00    -0.098 C  
BRANCH  22  23
HETATM   23  C   UNL     2      -8.844   7.262  70.953  1.00  0.00    -0.149 A  
HETATM   24  C   UNL     2     -10.161   6.865  70.637  1.00  0.00    -0.212 A  
HETATM   25  C   UNL     2      -8.668   8.092  72.071  1.00  0.00    -0.221 A  
HETATM   26  C   UNL     2     -11.237   7.211  71.464  1.00  0.00    -0.273 A  
HETATM   27  C   UNL     2     -11.024   7.987  72.599  1.00  0.00    -0.448 A  
HETATM   28  C   UNL     2      -9.746   8.452  72.885  1.00  0.00    -0.253 A  
ENDBRANCH  22  23
BRANCH  22  29
HETATM   29  C   UNL     2      -7.398   5.111  70.574  1.00  0.00    -0.066 A  
HETATM   30  C   UNL     2      -6.595   2.455  71.074  1.00  0.00    -0.024 A  
HETATM   31  C   UNL     2      -7.258   2.771  69.894  1.00  0.00    -0.040 A  
HETATM   32  C   UNL     2      -6.763   4.763  71.779  1.00  0.00    -0.042 A  
HETATM   33  C   UNL     2      -7.637   4.090  69.641  1.00  0.00    -0.053 A  
HETATM   34  C   UNL     2      -6.350   3.448  72.018  1.00  0.00    -0.014 A  
ENDBRANCH  22  29
ENDBRANCH  21  22
ENDBRANCH  20  21
ENDBRANCH  19  20
ENDBRANCH   4  19
TORSDOF 6
ENDMDL
MODEL      180
REMARK 921   NORMALIZED FREE ENERGY PREDICTED BY IDOCK:   -3.03 KCAL/MOL
REMARK 922        TOTAL FREE ENERGY PREDICTED BY IDOCK:   -2.48 KCAL/MOL
REMARK 923 INTER-LIGAND FREE ENERGY PREDICTED BY IDOCK:   -6.48 KCAL/MOL
REMARK 924 INTRA-LIGAND FREE ENERGY PREDICTED BY IDOCK:    3.99 KCAL/MOL
REMARK 927      BINDING AFFINITY PREDICTED BY RF-SCORE:    0.00 PKD
ROOT
HETATM    1  C   UNL     1      -7.483   9.752  70.797  1.00  0.00     0.076 C  
HETATM    2  N   UNL     1      -7.970   9.849  69.416  1.00  0.00    -0.121 N  
HETATM    3  C   UNL     2      -6.199   9.358  68.106  1.00  0.00    -0.053 C  
HETATM    4  N   UNL     2      -7.619   9.566  67.371  1.00  0.00    -0.095 NA 
HETATM    5  C   UNL     1      -7.892  11.338  68.425  1.00  0.00    -0.136 A  
HETATM    6  O   UNL     1      -8.418   7.184  69.272  1.00  0.00    -0.131 OA 
HETATM    7  C   UNL     1      -8.500  11.397  66.886  1.00  0.00    -0.157 A  
HETATM    8  C   UNL     2      -7.089   9.016  65.943  1.00  0.00    -0.089 C  
HETATM    9  C   UNL     1      -9.885   7.223  66.483  1.00  0.00    -0.132 C  
HETATM   10  N   UNL     1      -8.332  12.661  66.414  1.00  0.00    -0.385 NA 
HETATM   11  C   UNL     1      -9.235   9.897  66.049  1.00  0.00    -0.170 C  
HETATM   12  H   UNL     1      -8.636  13.042  65.518  1.00  0.00     0.000 HD 
HETATM   13  O   UNL     1      -9.771   9.961  64.940  1.00  0.00    -0.302 OA 
HETATM   14  N   UNL     1      -9.209   8.382  67.000  1.00  0.00    -0.145 N  
HETATM   15  C   UNL     1      -7.684  13.280  67.383  1.00  0.00    -0.140 A  
HETATM   16  C   UNL     1      -8.477   8.202  68.600  1.00  0.00    -0.127 C  
HETATM   17 CL   UNL     1      -7.096  14.878  67.277  1.00  0.00    -0.187 Cl 
HETATM   18  N   UNL     1      -7.419  12.606  68.562  1.00  0.00    -0.121 NA 
ENDROOT
BRANCH   4  19
HETATM   19  C   UNL     2      -9.511   9.973  68.142  1.00  0.00    -0.138 C  
BRANCH  19  20
HETATM   20  C   UNL     2     -10.419  11.441  68.443  1.00  0.00    -0.200 C  
BRANCH  20  21
HETATM   21  O   UNL     2     -11.669  11.431  67.739  1.00  0.00    -0.533 OA 
BRANCH  21  22
HETATM   22  C   UNL     2     -12.136  12.789  67.461  1.00  0.00    -0.150 C  
BRANCH  22  23
HETATM   23  C   UNL     2     -11.298  13.821  68.228  1.00  0.00    -0.317 A  
HETATM   24  C   UNL     2     -10.848  14.976  67.553  1.00  0.00    -0.297 A  
HETATM   25  C   UNL     2     -11.164  13.793  69.625  1.00  0.00    -0.175 A  
HETATM   26  C   UNL     2     -10.375  16.088  68.261  1.00  0.00    -0.261 A  
HETATM   27  C   UNL     2     -10.308  16.054  69.651  1.00  0.00    -0.283 A  
HETATM   28  C   UNL     2     -10.674  14.897  70.329  1.00  0.00    -0.082 A  
ENDBRANCH  22  23
BRANCH  22  29
HETATM   29  C   UNL     2     -12.211  12.914  65.947  1.00  0.00    -0.469 A  
HETATM   30  C   UNL     2     -12.028  13.110  63.139  1.00  0.00    -0.246 A  
HETATM   31  C   UNL     2     -12.072  14.263  63.916  1.00  0.00    -0.247 A  
HETATM   32  C   UNL     2     -12.206  11.762  65.141  1.00  0.00     0.290 A  
HETATM   33  C   UNL     2     -12.144  14.162  65.307  1.00  0.00    -0.407 A  
HETATM   34  C   UNL     2     -12.098  11.861  63.749  1.00  0.00    -0.547 A  
ENDBRANCH  22  29
ENDBRANCH  21  22
ENDBRANCH  20  21
ENDBRANCH  19  20
ENDBRANCH   4  19
TORSDOF 6
ENDMDL
MODEL      181
REMARK 921   NORMALIZED FREE ENERGY PREDICTED BY IDOCK:   -3.02 KCAL/MOL
REMARK 922        TOTAL FREE ENERGY PREDICTED BY IDOCK:   -2.46 KCAL/MOL
REMARK 923 INTER-LIGAND FREE ENERGY PREDICTED BY IDOCK:   -4.49 KCAL/MOL
REMARK 924 INTRA-LIGAND FREE ENERGY PREDICTED BY IDOCK:    2.03 KCAL/MOL
REMARK 927      BINDING AFFINITY PREDICTED BY RF-SCORE:    0.00 PKD
ROOT
HETATM    1  C   UNL     1      -6.303   9.169  69.352  1.00  0.00    -0.044 C  
HETATM    2  N   UNL     1      -7.637   9.601  68.919  1.00  0.00    -0.074 N  
HETATM    3  C   UNL     2      -8.957   9.434  70.743  1.00  0.00    -0.191 C  
HETATM    4  N   UNL     2      -9.610  10.089  69.422  1.00  0.00    -0.210 NA 
HETATM    5  C   UNL     1      -8.897   8.495  68.292  1.00  0.00    -0.142 A  
HETATM    6  O   UNL     1      -7.235  12.118  69.827  1.00  0.00     0.267 OA 
HETATM    7  C   UNL     1     -10.370   9.049  67.777  1.00  0.00    -0.246 A  
HETATM    8  C   UNL     2     -10.942  10.593  70.194  1.00  0.00    -0.222 C  
HETATM    9  C   UNL     1      -9.863  13.357  68.607  1.00  0.00    -0.112 C  
HETATM   10  N   UNL     1     -11.086   7.986  67.323  1.00  0.00    -0.393 NA 
HETATM   11  C   UNL     1     -10.848  10.852  67.887  1.00  0.00    -0.247 C  
HETATM   12  H   UNL     1     -12.013   7.989  66.898  1.00  0.00     0.000 HD 
HETATM   13  O   UNL     1     -11.906  11.281  67.420  1.00  0.00    -0.590 OA 
HETATM   14  N   UNL     1      -9.629  11.939  68.619  1.00  0.00    -0.144 N  
HETATM   15  C   UNL     1     -10.304   6.950  67.561  1.00  0.00    -0.217 A  
HETATM   16  C   UNL     1      -8.083  11.416  69.300  1.00  0.00     0.187 C  
HETATM   17 CL   UNL     1     -10.757   5.326  67.301  1.00  0.00    -0.193 Cl 
HETATM   18  N   UNL     1      -9.041   7.158  68.085  1.00  0.00    -0.134 NA 
ENDROOT
BRANCH   4  19
HETATM   19  C   UNL     2      -8.794  10.495  67.549  1.00  0.00    -0.131 C  
BRANCH  19  20
HETATM   20  C   UNL     2      -7.205  10.970  66.984  1.00  0.00    -0.123 C  
BRANCH  20  21
HETATM   21  O   UNL     2      -7.226  11.289  65.586  1.00  0.00     0.168 OA 
BRANCH  21  22
HETATM   22  C   UNL     2      -8.198  10.469  64.865  1.00  0.00    -0.117 C  
BRANCH  22  23
HETATM   23  C   UNL     2      -9.315  11.340  64.273  1.00  0.00    -0.133 A  
HETATM   24  C   UNL     2     -10.356  10.722  63.549  1.00  0.00    -0.231 A  
HETATM   25  C   UNL     2      -9.482  12.689  64.625  1.00  0.00     0.368 A  
HETATM   26  C   UNL     2     -11.548  11.403  63.275  1.00  0.00     0.019 A  
HETATM   27  C   UNL     2     -11.710  12.722  63.687  1.00  0.00    -0.587 A  
HETATM   28  C   UNL     2     -10.667  13.373  64.335  1.00  0.00    -0.423 A  
ENDBRANCH  22  23
BRANCH  22  29
HETATM   29  C   UNL     2      -7.398   9.593  63.912  1.00  0.00    -0.120 A  
HETATM   30  C   UNL     2      -5.716   7.911  62.397  1.00  0.00    -0.069 A  
HETATM   31  C   UNL     2      -5.545   9.291  62.352  1.00  0.00    -0.086 A  
HETATM   32  C   UNL     2      -7.581   8.199  63.912  1.00  0.00    -0.127 A  
HETATM   33  C   UNL     2      -6.367  10.119  63.118  1.00  0.00    -0.139 A  
HETATM   34  C   UNL     2      -6.735   7.365  63.173  1.00  0.00    -0.054 A  
ENDBRANCH  22  29
ENDBRANCH  21  22
ENDBRANCH  20  21
ENDBRANCH  19  20
ENDBRANCH   4  19
TORSDOF 6
ENDMDL
MODEL      182
REMARK 921   NORMALIZED FREE ENERGY PREDICTED BY IDOCK:   -2.88 KCAL/MOL
REMARK 922        TOTAL FREE ENERGY PREDICTED BY IDOCK:   -2.27 KCAL/MOL
REMARK 923 INTER-LIGAND FREE ENERGY PREDICTED BY IDOCK:   -5.78 KCAL/MOL
REMARK 924 INTRA-LIGAND FREE ENERGY PREDICTED BY IDOCK:    3.51 KCAL/MOL
REMARK 927      BINDING AFFINITY PREDICTED BY RF-SCORE:    0.00 PKD
ROOT
HETATM    1  C   UNL     1      -7.577   9.120  71.041  1.00  0.00    -0.096 C  
HETATM    2  N   UNL     1      -8.337   8.304  70.088  1.00  0.00    -0.121 N  
HETATM    3  C   UNL     2      -9.377   9.767  68.719  1.00  0.00    -0.150 C  
HETATM    4  N   UNL     2      -9.512   8.202  68.358  1.00  0.00    -0.141 NA 
HETATM    5  C   UNL     1     -10.040   7.802  70.329  1.00  0.00    -0.195 A  
HETATM    6  O   UNL     1      -6.374   8.444  68.232  1.00  0.00    -0.049 OA 
HETATM    7  C   UNL     1     -10.832   6.842  69.237  1.00  0.00    -0.264 A  
HETATM    8  C   UNL     2     -10.174   8.479  66.905  1.00  0.00    -0.305 C  
HETATM    9  C   UNL     1      -7.640   6.374  66.221  1.00  0.00    -0.090 C  
HETATM   10  N   UNL     1     -12.082   6.602  69.715  1.00  0.00    -0.545 NA 
HETATM   11  C   UNL     1     -10.033   6.281  67.644  1.00  0.00    -0.131 C  
HETATM   12  H   UNL     1     -12.807   6.012  69.308  1.00  0.00     0.000 HD 
HETATM   13  O   UNL     1     -10.587   5.492  66.875  1.00  0.00    -0.259 OA 
HETATM   14  N   UNL     1      -8.372   6.877  67.352  1.00  0.00    -0.121 N  
HETATM   15  C   UNL     1     -12.140   7.310  70.827  1.00  0.00    -0.245 A  
HETATM   16  C   UNL     1      -7.496   7.997  68.405  1.00  0.00    -0.103 C  
HETATM   17 CL   UNL     1     -13.541   7.481  71.785  1.00  0.00    -0.407 Cl 
HETATM   18  N   UNL     1     -11.018   7.997  71.255  1.00  0.00    -0.232 NA 
ENDROOT
BRANCH   4  19
HETATM   19  C   UNL     2      -8.706   6.512  69.270  1.00  0.00    -0.130 C  
BRANCH  19  20
HETATM   20  C   UNL     2      -9.002   5.681  70.784  1.00  0.00    -0.143 C  
BRANCH  20  21
HETATM   21  O   UNL     2      -7.800   5.083  71.291  1.00  0.00    -0.095 OA 
BRANCH  21  22
HETATM   22  C   UNL     2      -7.921   3.628  71.374  1.00  0.00    -0.061 C  
BRANCH  22  23
HETATM   23  C   UNL     2      -9.025   3.229  72.364  1.00  0.00    -0.124 A  
HETATM   24  C   UNL     2      -9.878   4.229  72.879  1.00  0.00    -0.183 A  
HETATM   25  C   UNL     2      -9.383   1.891  72.592  1.00  0.00    -0.117 A  
HETATM   26  C   UNL     2     -11.082   3.895  73.511  1.00  0.00    -0.342 A  
HETATM   27  C   UNL     2     -11.440   2.560  73.671  1.00  0.00    -0.257 A  
HETATM   28  C   UNL     2     -10.577   1.559  73.239  1.00  0.00    -0.202 A  
ENDBRANCH  22  23
BRANCH  22  29
HETATM   29  C   UNL     2      -8.031   3.125  69.943  1.00  0.00    -0.054 A  
HETATM   30  C   UNL     2      -8.266   1.895  67.416  1.00  0.00    -0.073 A  
HETATM   31  C   UNL     2      -7.009   2.180  67.938  1.00  0.00    -0.043 A  
HETATM   32  C   UNL     2      -9.293   2.866  69.380  1.00  0.00    -0.196 A  
HETATM   33  C   UNL     2      -6.896   2.771  69.197  1.00  0.00    -0.037 A  
HETATM   34  C   UNL     2      -9.408   2.240  68.134  1.00  0.00    -0.263 A  
ENDBRANCH  22  29
ENDBRANCH  21  22
ENDBRANCH  20  21
ENDBRANCH  19  20
ENDBRANCH   4  19
TORSDOF 6
ENDMDL
MODEL      183
REMARK 921   NORMALIZED FREE ENERGY PREDICTED BY IDOCK:   -2.86 KCAL/MOL
REMARK 922        TOTAL FREE ENERGY PREDICTED BY IDOCK:   -2.25 KCAL/MOL
REMARK 923 INTER-LIGAND FREE ENERGY PREDICTED BY IDOCK:   -4.53 KCAL/MOL
REMARK 924 INTRA-LIGAND FREE ENERGY PREDICTED BY IDOCK:    2.28 KCAL/MOL
REMARK 927      BINDING AFFINITY PREDICTED BY RF-SCORE:    0.00 PKD
ROOT
HETATM    1  C   UNL     1     -11.278   6.545  66.781  1.00  0.00    -0.013 C  
HETATM    2  N   UNL     1      -9.898   6.405  67.262  1.00  0.00    -0.130 N  
HETATM    3  C   UNL     2      -9.837   4.448  68.386  1.00  0.00    -0.061 C  
HETATM    4  N   UNL     2      -8.437   5.224  68.188  1.00  0.00    -0.097 NA 
HETATM    5  C   UNL     1      -9.328   6.980  68.860  1.00  0.00    -0.139 A  
HETATM    6  O   UNL     1      -9.205   4.856  65.155  1.00  0.00    -0.156 OA 
HETATM    7  C   UNL     1      -7.746   6.833  69.328  1.00  0.00    -0.105 A  
HETATM    8  C   UNL     2      -7.544   3.980  68.715  1.00  0.00    -0.054 C  
HETATM    9  C   UNL     1      -6.116   4.779  65.775  1.00  0.00    -0.027 C  
HETATM   10  N   UNL     1      -7.617   7.393  70.560  1.00  0.00    -0.085 NA 
HETATM   11  C   UNL     1      -6.467   5.988  68.260  1.00  0.00    -0.046 C  
HETATM   12  H   UNL     1      -6.768   7.508  71.112  1.00  0.00     0.000 HD 
HETATM   13  O   UNL     1      -5.273   5.959  68.565  1.00  0.00    -0.003 OA 
HETATM   14  N   UNL     1      -7.064   5.314  66.713  1.00  0.00    -0.068 N  
HETATM   15  C   UNL     1      -8.847   7.754  70.877  1.00  0.00    -0.142 A  
HETATM   16  C   UNL     1      -8.753   5.323  66.188  1.00  0.00    -0.129 C  
HETATM   17 CL   UNL     1      -9.297   8.405  72.388  1.00  0.00    -0.339 Cl 
HETATM   18  N   UNL     1      -9.865   7.575  69.958  1.00  0.00    -0.179 NA 
ENDROOT
BRANCH   4  19
HETATM   19  C   UNL     2      -7.986   7.000  67.197  1.00  0.00    -0.113 C  
BRANCH  19  20
HETATM   20  C   UNL     2      -7.218   8.502  67.668  1.00  0.00    -0.084 C  
BRANCH  20  21
HETATM   21  O   UNL     2      -7.813   9.622  66.998  1.00  0.00    -0.098 OA 
BRANCH  21  22
HETATM   22  C   UNL     2      -8.182  10.676  67.942  1.00  0.00    -0.112 C  
BRANCH  22  23
HETATM   23  C   UNL     2      -6.983  11.589  68.235  1.00  0.00    -0.073 A  
HETATM   24  C   UNL     2      -6.915  12.852  67.610  1.00  0.00    -0.152 A  
HETATM   25  C   UNL     2      -6.080  11.333  69.279  1.00  0.00    -0.062 A  
HETATM   26  C   UNL     2      -6.043  13.843  68.077  1.00  0.00    -0.142 A  
HETATM   27  C   UNL     2      -5.199  13.581  69.151  1.00  0.00    -0.073 A  
HETATM   28  C   UNL     2      -5.197  12.318  69.733  1.00  0.00    -0.078 A  
ENDBRANCH  22  23
BRANCH  22  29
HETATM   29  C   UNL     2      -9.449  11.316  67.397  1.00  0.00    -0.175 A  
HETATM   30  C   UNL     2     -11.613  12.753  66.298  1.00  0.00    -0.433 A  
HETATM   31  C   UNL     2     -11.359  12.813  67.664  1.00  0.00    -0.359 A  
HETATM   32  C   UNL     2      -9.748  11.235  66.025  1.00  0.00    -0.253 A  
HETATM   33  C   UNL     2     -10.276  12.116  68.202  1.00  0.00    -0.203 A  
HETATM   34  C   UNL     2     -10.811  11.963  65.479  1.00  0.00    -0.343 A  
ENDBRANCH  22  29
ENDBRANCH  21  22
ENDBRANCH  20  21
ENDBRANCH  19  20
ENDBRANCH   4  19
TORSDOF 6
ENDMDL
MODEL      184
REMARK 921   NORMALIZED FREE ENERGY PREDICTED BY IDOCK:   -2.85 KCAL/MOL
REMARK 922        TOTAL FREE ENERGY PREDICTED BY IDOCK:   -2.23 KCAL/MOL
REMARK 923 INTER-LIGAND FREE ENERGY PREDICTED BY IDOCK:   -4.58 KCAL/MOL
REMARK 924 INTRA-LIGAND FREE ENERGY PREDICTED BY IDOCK:    2.35 KCAL/MOL
REMARK 927      BINDING AFFINITY PREDICTED BY RF-SCORE:    0.00 PKD
ROOT
HETATM    1  C   UNL     1      -5.709   8.069  70.632  1.00  0.00    -0.029 C  
HETATM    2  N   UNL     1      -7.128   7.699  70.578  1.00  0.00    -0.051 N  
HETATM    3  C   UNL     2      -7.893   7.886  72.694  1.00  0.00    -0.120 C  
HETATM    4  N   UNL     2      -8.978   7.552  71.548  1.00  0.00    -0.131 NA 
HETATM    5  C   UNL     1      -7.744   6.037  70.836  1.00  0.00    -0.098 A  
HETATM    6  O   UNL     1      -7.909  10.283  70.400  1.00  0.00    -0.153 OA 
HETATM    7  C   UNL     1      -9.355   5.673  70.717  1.00  0.00    -0.163 A  
HETATM    8  C   UNL     2     -10.248   7.791  72.524  1.00  0.00    -0.260 C  
HETATM    9  C   UNL     1     -10.954   9.695  69.842  1.00  0.00    -0.252 C  
HETATM   10  N   UNL     1      -9.502   4.337  70.922  1.00  0.00    -0.154 NA 
HETATM   11  C   UNL     1     -10.648   6.980  70.385  1.00  0.00    -0.223 C  
HETATM   12  H   UNL     1     -10.357   3.785  70.873  1.00  0.00     0.000 HD 
HETATM   13  O   UNL     1     -11.835   6.698  70.204  1.00  0.00    -0.389 OA 
HETATM   14  N   UNL     1     -10.042   8.658  70.239  1.00  0.00    -0.183 N  
HETATM   15  C   UNL     1      -8.281   3.920  71.199  1.00  0.00    -0.071 A  
HETATM   16  C   UNL     1      -8.359   9.151  70.468  1.00  0.00    -0.194 C  
HETATM   17 CL   UNL     1      -7.893   2.326  71.667  1.00  0.00    -0.044 Cl 
HETATM   18  N   UNL     1      -7.228   4.817  71.147  1.00  0.00    -0.051 NA 
ENDROOT
BRANCH   4  19
HETATM   19  C   UNL     2      -8.770   7.338  69.487  1.00  0.00    -0.134 C  
BRANCH  19  20
HETATM   20  C   UNL     2      -8.377   8.432  68.177  1.00  0.00    -0.128 C  
BRANCH  20  21
HETATM   21  O   UNL     2      -9.040   8.049  66.964  1.00  0.00    -0.135 OA 
BRANCH  21  22
HETATM   22  C   UNL     2      -8.118   7.399  66.033  1.00  0.00    -0.124 C  
BRANCH  22  23
HETATM   23  C   UNL     2      -8.720   6.095  65.491  1.00  0.00    -0.105 A  
HETATM   24  C   UNL     2      -8.297   5.617  64.233  1.00  0.00    -0.081 A  
HETATM   25  C   UNL     2      -9.486   5.231  66.290  1.00  0.00    -0.166 A  
HETATM   26  C   UNL     2      -8.552   4.297  63.840  1.00  0.00    -0.117 A  
HETATM   27  C   UNL     2      -9.264   3.444  64.677  1.00  0.00    -0.140 A  
HETATM   28  C   UNL     2      -9.755   3.919  65.888  1.00  0.00    -0.168 A  
ENDBRANCH  22  23
BRANCH  22  29
HETATM   29  C   UNL     2      -7.701   8.464  65.030  1.00  0.00    -0.104 A  
HETATM   30  C   UNL     2      -6.904  10.196  62.953  1.00  0.00    -0.134 A  
HETATM   31  C   UNL     2      -5.964   9.715  63.857  1.00  0.00    -0.100 A  
HETATM   32  C   UNL     2      -8.643   8.994  64.130  1.00  0.00    -0.165 A  
HETATM   33  C   UNL     2      -6.359   8.842  64.872  1.00  0.00    -0.065 A  
HETATM   34  C   UNL     2      -8.243   9.840  63.090  1.00  0.00    -0.153 A  
ENDBRANCH  22  29
ENDBRANCH  21  22
ENDBRANCH  20  21
ENDBRANCH  19  20
ENDBRANCH   4  19
TORSDOF 6
ENDMDL
MODEL      185
REMARK 921   NORMALIZED FREE ENERGY PREDICTED BY IDOCK:   -2.77 KCAL/MOL
REMARK 922        TOTAL FREE ENERGY PREDICTED BY IDOCK:   -2.13 KCAL/MOL
REMARK 923 INTER-LIGAND FREE ENERGY PREDICTED BY IDOCK:   -5.12 KCAL/MOL
REMARK 924 INTRA-LIGAND FREE ENERGY PREDICTED BY IDOCK:    2.99 KCAL/MOL
REMARK 927      BINDING AFFINITY PREDICTED BY RF-SCORE:    0.00 PKD
ROOT
HETATM    1  C   UNL     1     -10.615  11.164  65.254  1.00  0.00    -0.238 C  
HETATM    2  N   UNL     1      -9.797  10.740  66.396  1.00  0.00    -0.201 N  
HETATM    3  C   UNL     2     -10.119   8.513  66.586  1.00  0.00    -0.294 C  
HETATM    4  N   UNL     2      -9.020   9.182  67.559  1.00  0.00    -0.122 NA 
HETATM    5  C   UNL     1     -10.393  10.654  68.082  1.00  0.00    -0.176 A  
HETATM    6  O   UNL     1      -7.751   9.990  64.792  1.00  0.00    -0.134 OA 
HETATM    7  C   UNL     1      -9.408  10.209  69.337  1.00  0.00    -0.219 A  
HETATM    8  C   UNL     2      -8.441   7.757  68.069  1.00  0.00    -0.123 C  
HETATM    9  C   UNL     1      -5.682   9.422  67.100  1.00  0.00    -0.044 C  
HETATM   10  N   UNL     1     -10.130  10.279  70.486  1.00  0.00    -0.317 NA 
HETATM   11  C   UNL     1      -7.632   9.691  69.071  1.00  0.00    -0.076 C  
HETATM   12  H   UNL     1      -9.810  10.114  71.440  1.00  0.00     0.000 HD 
HETATM   13  O   UNL     1      -6.872   9.449  70.011  1.00  0.00    -0.052 OA 
HETATM   14  N   UNL     1      -7.072   9.669  67.372  1.00  0.00    -0.085 N  
HETATM   15  C   UNL     1     -11.342  10.611  70.082  1.00  0.00    -0.323 A  
HETATM   16  C   UNL     1      -8.086  10.015  65.965  1.00  0.00    -0.124 C  
HETATM   17 CL   UNL     1     -12.701  10.718  71.108  1.00  0.00    -0.496 Cl 
HETATM   18  N   UNL     1     -11.565  10.864  68.740  1.00  0.00    -0.301 NA 
ENDROOT
BRANCH   4  19
HETATM   19  C   UNL     2      -8.346  11.146  67.717  1.00  0.00    -0.123 C  
BRANCH  19  20
HETATM   20  C   UNL     2      -9.137  12.701  67.873  1.00  0.00    -0.200 C  
BRANCH  20  21
HETATM   21  O   UNL     2      -8.182  13.751  68.086  1.00  0.00    -0.141 OA 
BRANCH  21  22
HETATM   22  C   UNL     2      -8.450  14.473  69.329  1.00  0.00     0.100 C  
BRANCH  22  23
HETATM   23  C   UNL     2      -7.528  15.694  69.459  1.00  0.00    -0.192 A  
HETATM   24  C   UNL     2      -6.193  15.503  69.877  1.00  0.00    -0.157 A  
HETATM   25  C   UNL     2      -7.874  16.955  68.950  1.00  0.00    -0.233 A  
HETATM   26  C   UNL     2      -5.232  16.506  69.701  1.00  0.00    -0.139 A  
HETATM   27  C   UNL     2      -5.591  17.727  69.140  1.00  0.00    -0.195 A  
HETATM   28  C   UNL     2      -6.916  17.962  68.792  1.00  0.00    -0.262 A  
ENDBRANCH  22  23
BRANCH  22  29
HETATM   29  C   UNL     2      -9.952  14.706  69.374  1.00  0.00    -0.038 A  
HETATM   30  C   UNL     2     -12.669  15.448  69.523  1.00  0.00     0.133 A  
HETATM   31  C   UNL     2     -12.036  14.895  70.631  1.00  0.00    -0.366 A  
HETATM   32  C   UNL     2     -10.620  15.228  68.253  1.00  0.00    -0.244 A  
HETATM   33  C   UNL     2     -10.687  14.546  70.560  1.00  0.00     0.351 A  
HETATM   34  C   UNL     2     -11.963  15.612  68.334  1.00  0.00    -0.084 A  
ENDBRANCH  22  29
ENDBRANCH  21  22
ENDBRANCH  20  21
ENDBRANCH  19  20
ENDBRANCH   4  19
TORSDOF 6
ENDMDL
MODEL      186
REMARK 921   NORMALIZED FREE ENERGY PREDICTED BY IDOCK:   -2.75 KCAL/MOL
REMARK 922        TOTAL FREE ENERGY PREDICTED BY IDOCK:   -2.10 KCAL/MOL
REMARK 923 INTER-LIGAND FREE ENERGY PREDICTED BY IDOCK:   -5.45 KCAL/MOL
REMARK 924 INTRA-LIGAND FREE ENERGY PREDICTED BY IDOCK:    3.35 KCAL/MOL
REMARK 927      BINDING AFFINITY PREDICTED BY RF-SCORE:    0.00 PKD
ROOT
HETATM    1  C   UNL     1     -10.623  16.298  69.852  1.00  0.00    -0.280 C  
HETATM    2  N   UNL     1      -9.580  16.583  68.861  1.00  0.00    -0.253 N  
HETATM    3  C   UNL     2      -8.387  18.305  69.702  1.00  0.00     0.905 C  
HETATM    4  N   UNL     2      -7.846  17.634  68.340  1.00  0.00    -0.259 NA 
HETATM    5  C   UNL     1      -9.756  17.765  67.528  1.00  0.00    -0.284 A  
HETATM    6  O   UNL     1      -7.758  15.084  70.186  1.00  0.00     0.039 OA 
HETATM    7  C   UNL     1      -8.557  18.010  66.412  1.00  0.00    -0.228 A  
HETATM    8  C   UNL     2      -6.433  18.427  68.378  1.00  0.00    -0.212 C  
HETATM    9  C   UNL     1      -5.516  15.215  67.975  1.00  0.00    -0.134 C  
HETATM   10  N   UNL     1      -8.999  18.928  65.512  1.00  0.00     0.168 NA 
HETATM   11  C   UNL     1      -6.911  17.131  66.511  1.00  0.00    -0.261 C  
HETATM   12  H   UNL     1      -8.524  19.267  64.676  1.00  0.00     0.000 HD 
HETATM   13  O   UNL     1      -6.054  17.242  65.631  1.00  0.00    -0.021 OA 
HETATM   14  N   UNL     1      -6.695  16.035  67.908  1.00  0.00    -0.130 N  
HETATM   15  C   UNL     1     -10.186  19.278  65.970  1.00  0.00    -0.435 A  
HETATM   16  C   UNL     1      -7.874  15.803  69.207  1.00  0.00    -0.233 C  
HETATM   17 CL   UNL     1     -11.154  20.509  65.291  1.00  0.00     0.367 Cl 
HETATM   18  N   UNL     1     -10.694  18.648  67.092  1.00  0.00    -0.413 NA 
ENDROOT
BRANCH   4  19
HETATM   19  C   UNL     2      -8.558  16.021  67.231  1.00  0.00    -0.184 C  
BRANCH  19  20
HETATM   20  C   UNL     2      -8.825  14.325  67.574  1.00  0.00    -0.199 C  
BRANCH  20  21
HETATM   21  O   UNL     2     -10.163  13.932  67.238  1.00  0.00    -0.246 OA 
BRANCH  21  22
HETATM   22  C   UNL     2     -10.330  12.481  67.319  1.00  0.00    -0.220 C  
BRANCH  22  23
HETATM   23  C   UNL     2      -9.012  11.762  66.999  1.00  0.00    -0.186 A  
HETATM   24  C   UNL     2      -8.152  11.404  68.058  1.00  0.00    -0.134 A  
HETATM   25  C   UNL     2      -8.736  11.226  65.730  1.00  0.00    -0.111 A  
HETATM   26  C   UNL     2      -7.120  10.477  67.869  1.00  0.00    -0.083 A  
HETATM   27  C   UNL     2      -6.906   9.917  66.613  1.00  0.00    -0.084 A  
HETATM   28  C   UNL     2      -7.694  10.314  65.539  1.00  0.00    -0.149 A  
ENDBRANCH  22  23
BRANCH  22  29
HETATM   29  C   UNL     2     -10.988  12.199  68.661  1.00  0.00    -0.284 A  
HETATM   30  C   UNL     2     -12.480  11.620  70.983  1.00  0.00    -0.436 A  
HETATM   31  C   UNL     2     -12.299  12.939  70.582  1.00  0.00    -0.385 A  
HETATM   32  C   UNL     2     -11.147  10.875  69.105  1.00  0.00    -0.301 A  
HETATM   33  C   UNL     2     -11.577  13.222  69.422  1.00  0.00    -0.364 A  
HETATM   34  C   UNL     2     -11.902  10.588  70.248  1.00  0.00    -0.418 A  
ENDBRANCH  22  29
ENDBRANCH  21  22
ENDBRANCH  20  21
ENDBRANCH  19  20
ENDBRANCH   4  19
TORSDOF 6
ENDMDL
MODEL      187
REMARK 921   NORMALIZED FREE ENERGY PREDICTED BY IDOCK:   -2.74 KCAL/MOL
REMARK 922        TOTAL FREE ENERGY PREDICTED BY IDOCK:   -2.08 KCAL/MOL
REMARK 923 INTER-LIGAND FREE ENERGY PREDICTED BY IDOCK:   -5.48 KCAL/MOL
REMARK 924 INTRA-LIGAND FREE ENERGY PREDICTED BY IDOCK:    3.40 KCAL/MOL
REMARK 927      BINDING AFFINITY PREDICTED BY RF-SCORE:    0.00 PKD
ROOT
HETATM    1  C   UNL     1      -9.761  15.310  69.044  1.00  0.00    -0.234 C  
HETATM    2  N   UNL     1     -10.085  14.116  68.255  1.00  0.00    -0.234 N  
HETATM    3  C   UNL     2     -12.086  14.537  67.298  1.00  0.00    -0.264 C  
HETATM    4  N   UNL     2     -11.340  13.173  66.869  1.00  0.00    -0.304 NA 
HETATM    5  C   UNL     1     -11.028  12.725  68.876  1.00  0.00    -0.231 A  
HETATM    6  O   UNL     1      -9.118  15.221  65.983  1.00  0.00    -0.310 OA 
HETATM    7  C   UNL     1     -11.322  11.385  67.949  1.00  0.00    -0.303 A  
HETATM    8  C   UNL     2     -12.363  12.864  65.652  1.00  0.00    -0.423 C  
HETATM    9  C   UNL     1      -9.333  12.627  64.207  1.00  0.00     0.700 C  
HETATM   10  N   UNL     1     -12.019  10.495  68.705  1.00  0.00    -0.769 NA 
HETATM   11  C   UNL     1     -10.763  11.263  66.171  1.00  0.00    -0.250 C  
HETATM   12  H   UNL     1     -12.319   9.554  68.450  1.00  0.00     0.000 HD 
HETATM   13  O   UNL     1     -10.900  10.231  65.509  1.00  0.00     0.055 OA 
HETATM   14  N   UNL     1      -9.920  12.700  65.517  1.00  0.00    -0.253 N  
HETATM   15  C   UNL     1     -12.217  11.130  69.844  1.00  0.00    -0.314 A  
HETATM   16  C   UNL     1      -9.666  14.213  66.397  1.00  0.00    -0.298 C  
HETATM   17 CL   UNL     1     -13.159  10.522  71.131  1.00  0.00    -0.471 Cl 
HETATM   18  N   UNL     1     -11.667  12.386  70.027  1.00  0.00    -0.276 NA 
ENDROOT
BRANCH   4  19
HETATM   19  C   UNL     2      -9.493  12.389  67.428  1.00  0.00    -0.186 C  
BRANCH  19  20
HETATM   20  C   UNL     2      -8.656  10.884  67.107  1.00  0.00    -0.130 C  
BRANCH  20  21
HETATM   21  O   UNL     2      -7.975  10.410  68.278  1.00  0.00    -0.106 OA 
BRANCH  21  22
HETATM   22  C   UNL     2      -6.524  10.496  68.123  1.00  0.00    -0.062 C  
BRANCH  22  23
HETATM   23  C   UNL     2      -6.091   9.983  66.742  1.00  0.00    -0.060 A  
HETATM   24  C   UNL     2      -5.938   8.595  66.544  1.00  0.00    -0.052 A  
HETATM   25  C   UNL     2      -6.079  10.806  65.604  1.00  0.00    -0.097 A  
HETATM   26  C   UNL     2      -5.871   8.052  65.255  1.00  0.00    -0.041 A  
HETATM   27  C   UNL     2      -5.919   8.887  64.142  1.00  0.00    -0.071 A  
HETATM   28  C   UNL     2      -5.994  10.264  64.318  1.00  0.00    -0.133 A  
ENDBRANCH  22  23
BRANCH  22  29
HETATM   29  C   UNL     2      -6.135  11.915  68.510  1.00  0.00    -0.050 A  
HETATM   30  C   UNL     2      -5.696  14.638  69.099  1.00  0.00    -0.095 A  
HETATM   31  C   UNL     2      -5.152  14.078  67.949  1.00  0.00    -0.054 A  
HETATM   32  C   UNL     2      -6.642  12.490  69.689  1.00  0.00     0.002 A  
HETATM   33  C   UNL     2      -5.387  12.735  67.650  1.00  0.00    -0.112 A  
HETATM   34  C   UNL     2      -6.437  13.845  69.971  1.00  0.00    -0.054 A  
ENDBRANCH  22  29
ENDBRANCH  21  22
ENDBRANCH  20  21
ENDBRANCH  19  20
ENDBRANCH   4  19
TORSDOF 6
ENDMDL
MODEL      188
REMARK 921   NORMALIZED FREE ENERGY PREDICTED BY IDOCK:   -2.71 KCAL/MOL
REMARK 922        TOTAL FREE ENERGY PREDICTED BY IDOCK:   -2.04 KCAL/MOL
REMARK 923 INTER-LIGAND FREE ENERGY PREDICTED BY IDOCK:   -5.45 KCAL/MOL
REMARK 924 INTRA-LIGAND FREE ENERGY PREDICTED BY IDOCK:    3.41 KCAL/MOL
REMARK 927      BINDING AFFINITY PREDICTED BY RF-SCORE:    0.00 PKD
ROOT
HETATM    1  C   UNL     1      -9.235  15.291  69.240  1.00  0.00    -0.233 C  
HETATM    2  N   UNL     1      -9.894  14.258  68.434  1.00  0.00    -0.228 N  
HETATM    3  C   UNL     2     -11.858  15.155  67.775  1.00  0.00    -0.144 C  
HETATM    4  N   UNL     2     -11.474  13.708  67.175  1.00  0.00    -0.325 NA 
HETATM    5  C   UNL     1     -11.031  13.041  69.094  1.00  0.00    -0.140 A  
HETATM    6  O   UNL     1      -8.988  15.329  66.121  1.00  0.00    -0.301 OA 
HETATM    7  C   UNL     1     -11.709  11.870  68.140  1.00  0.00    -0.320 A  
HETATM    8  C   UNL     2     -12.675  13.715  66.087  1.00  0.00    -0.238 C  
HETATM    9  C   UNL     1      -9.955  12.989  64.245  1.00  0.00    -0.058 C  
HETATM   10  N   UNL     1     -12.485  11.080  68.929  1.00  0.00    -0.652 NA 
HETATM   11  C   UNL     1     -11.400  11.785  66.299  1.00  0.00    -0.287 C  
HETATM   12  H   UNL     1     -13.005  10.245  68.662  1.00  0.00     0.000 HD 
HETATM   13  O   UNL     1     -11.830  10.861  65.604  1.00  0.00     0.554 OA 
HETATM   14  N   UNL     1     -10.355  13.070  65.623  1.00  0.00    -0.281 N  
HETATM   15  C   UNL     1     -12.410  11.645  70.119  1.00  0.00    -0.219 A  
HETATM   16  C   UNL     1      -9.685  14.422  66.546  1.00  0.00    -0.290 C  
HETATM   17 CL   UNL     1     -13.301  11.137  71.482  1.00  0.00    -0.337 Cl 
HETATM   18  N   UNL     1     -11.588  12.744  70.298  1.00  0.00    -0.084 NA 
ENDROOT
BRANCH   4  19
HETATM   19  C   UNL     2      -9.783  12.522  67.439  1.00  0.00    -0.194 C  
BRANCH  19  20
HETATM   20  C   UNL     2      -9.513  10.801  67.626  1.00  0.00    -0.154 C  
BRANCH  20  21
HETATM   21  O   UNL     2      -9.467  10.431  69.011  1.00  0.00    -0.178 OA 
BRANCH  21  22
HETATM   22  C   UNL     2      -8.763   9.163  69.202  1.00  0.00    -0.138 C  
BRANCH  22  23
HETATM   23  C   UNL     2      -8.523   8.465  67.856  1.00  0.00    -0.131 A  
HETATM   24  C   UNL     2      -7.208   8.391  67.348  1.00  0.00    -0.088 A  
HETATM   25  C   UNL     2      -9.507   7.685  67.227  1.00  0.00    -0.185 A  
HETATM   26  C   UNL     2      -6.883   7.502  66.316  1.00  0.00    -0.061 A  
HETATM   27  C   UNL     2      -7.867   6.698  65.750  1.00  0.00    -0.105 A  
HETATM   28  C   UNL     2      -9.183   6.811  66.185  1.00  0.00    -0.120 A  
ENDBRANCH  22  23
BRANCH  22  29
HETATM   29  C   UNL     2      -7.553   9.471  70.071  1.00  0.00    -0.134 A  
HETATM   30  C   UNL     2      -5.131   9.989  71.419  1.00  0.00    -0.073 A  
HETATM   31  C   UNL     2      -5.710   8.727  71.489  1.00  0.00    -0.049 A  
HETATM   32  C   UNL     2      -6.973  10.751  70.047  1.00  0.00    -0.091 A  
HETATM   33  C   UNL     2      -6.899   8.468  70.805  1.00  0.00    -0.044 A  
HETATM   34  C   UNL     2      -5.762  11.002  70.702  1.00  0.00    -0.122 A  
ENDBRANCH  22  29
ENDBRANCH  21  22
ENDBRANCH  20  21
ENDBRANCH  19  20
ENDBRANCH   4  19
TORSDOF 6
ENDMDL
MODEL      189
REMARK 921   NORMALIZED FREE ENERGY PREDICTED BY IDOCK:   -2.69 KCAL/MOL
REMARK 922        TOTAL FREE ENERGY PREDICTED BY IDOCK:   -2.02 KCAL/MOL
REMARK 923 INTER-LIGAND FREE ENERGY PREDICTED BY IDOCK:   -5.09 KCAL/MOL
REMARK 924 INTRA-LIGAND FREE ENERGY PREDICTED BY IDOCK:    3.07 KCAL/MOL
REMARK 927      BINDING AFFINITY PREDICTED BY RF-SCORE:    0.00 PKD
ROOT
HETATM    1  C   UNL     1      -8.955  15.980  65.835  1.00  0.00    -0.221 C  
HETATM    2  N   UNL     1      -9.751  14.833  66.286  1.00  0.00    -0.287 N  
HETATM    3  C   UNL     2     -11.849  15.212  65.544  1.00  0.00     0.020 C  
HETATM    4  N   UNL     2     -11.568  13.792  66.254  1.00  0.00    -0.336 NA 
HETATM    5  C   UNL     1     -10.646  14.777  67.837  1.00  0.00    -0.248 A  
HETATM    6  O   UNL     1      -9.476  13.568  63.910  1.00  0.00     0.943 OA 
HETATM    7  C   UNL     1     -11.491  13.435  68.311  1.00  0.00    -0.315 A  
HETATM    8  C   UNL     2     -12.997  13.165  65.819  1.00  0.00     0.281 C  
HETATM    9  C   UNL     1     -10.781  10.844  64.806  1.00  0.00    -0.178 C  
HETATM   10  N   UNL     1     -12.021  13.682  69.539  1.00  0.00    -0.330 NA 
HETATM   11  C   UNL     1     -11.636  11.918  67.230  1.00  0.00    -0.293 C  
HETATM   12  H   UNL     1     -12.558  13.048  70.130  1.00  0.00     0.000 HD 
HETATM   13  O   UNL     1     -12.186  10.885  67.620  1.00  0.00    -0.059 OA 
HETATM   14  N   UNL     1     -10.837  12.018  65.633  1.00  0.00    -0.273 N  
HETATM   15  C   UNL     1     -11.680  14.932  69.788  1.00  0.00    -0.305 A  
HETATM   16  C   UNL     1     -10.014  13.450  64.999  1.00  0.00    -0.155 C  
HETATM   17 CL   UNL     1     -12.192  15.813  71.156  1.00  0.00    -0.442 Cl 
HETATM   18  N   UNL     1     -10.882  15.612  68.885  1.00  0.00    -0.238 NA 
ENDROOT
BRANCH   4  19
HETATM   19  C   UNL     2      -9.819  12.976  67.038  1.00  0.00    -0.238 C  
BRANCH  19  20
HETATM   20  C   UNL     2      -9.249  12.633  68.658  1.00  0.00     0.034 C  
BRANCH  20  21
HETATM   21  O   UNL     2      -9.661  11.328  69.087  1.00  0.00    -0.092 OA 
BRANCH  21  22
HETATM   22  C   UNL     2      -8.525  10.410  69.172  1.00  0.00    -0.164 C  
BRANCH  22  23
HETATM   23  C   UNL     2      -8.649   9.502  70.404  1.00  0.00    -0.246 A  
HETATM   24  C   UNL     2      -7.475   9.081  71.065  1.00  0.00    -0.132 A  
HETATM   25  C   UNL     2      -9.875   9.271  71.048  1.00  0.00    -0.355 A  
HETATM   26  C   UNL     2      -7.529   8.539  72.356  1.00  0.00    -0.085 A  
HETATM   27  C   UNL     2      -8.754   8.375  72.994  1.00  0.00    -0.229 A  
HETATM   28  C   UNL     2      -9.928   8.713  72.329  1.00  0.00    -0.361 A  
ENDBRANCH  22  23
BRANCH  22  29
HETATM   29  C   UNL     2      -8.406   9.748  67.808  1.00  0.00    -0.114 A  
HETATM   30  C   UNL     2      -7.992   8.304  65.422  1.00  0.00    -0.127 A  
HETATM   31  C   UNL     2      -7.221   9.427  65.698  1.00  0.00    -0.091 A  
HETATM   32  C   UNL     2      -9.203   8.635  67.490  1.00  0.00    -0.151 A  
HETATM   33  C   UNL     2      -7.415  10.129  66.889  1.00  0.00    -0.096 A  
HETATM   34  C   UNL     2      -8.985   7.909  66.314  1.00  0.00    -0.207 A  
ENDBRANCH  22  29
ENDBRANCH  21  22
ENDBRANCH  20  21
ENDBRANCH  19  20
ENDBRANCH   4  19
TORSDOF 6
ENDMDL
MODEL      190
REMARK 921   NORMALIZED FREE ENERGY PREDICTED BY IDOCK:   -2.69 KCAL/MOL
REMARK 922        TOTAL FREE ENERGY PREDICTED BY IDOCK:   -2.02 KCAL/MOL
REMARK 923 INTER-LIGAND FREE ENERGY PREDICTED BY IDOCK:   -4.13 KCAL/MOL
REMARK 924 INTRA-LIGAND FREE ENERGY PREDICTED BY IDOCK:    2.10 KCAL/MOL
REMARK 927      BINDING AFFINITY PREDICTED BY RF-SCORE:    0.00 PKD
ROOT
HETATM    1  C   UNL     1     -10.350   8.015  72.274  1.00  0.00    -0.271 C  
HETATM    2  N   UNL     1      -9.387   7.757  71.198  1.00  0.00    -0.150 N  
HETATM    3  C   UNL     2      -7.732   6.541  72.136  1.00  0.00    -0.097 C  
HETATM    4  N   UNL     2      -7.659   6.774  70.541  1.00  0.00    -0.090 NA 
HETATM    5  C   UNL     1      -7.982   8.807  70.834  1.00  0.00    -0.135 A  
HETATM    6  O   UNL     1     -10.453   5.326  70.677  1.00  0.00    -0.260 OA 
HETATM    7  C   UNL     1      -6.954   8.487  69.576  1.00  0.00    -0.048 A  
HETATM    8  C   UNL     2      -6.461   5.704  70.327  1.00  0.00    -0.032 C  
HETATM    9  C   UNL     1      -8.772   4.753  68.074  1.00  0.00    -0.103 C  
HETATM   10  N   UNL     1      -6.022   9.476  69.530  1.00  0.00    -0.033 NA 
HETATM   11  C   UNL     1      -7.140   6.970  68.501  1.00  0.00    -0.089 C  
HETATM   12  H   UNL     1      -5.274   9.602  68.850  1.00  0.00     0.000 HD 
HETATM   13  O   UNL     1      -6.433   6.778  67.509  1.00  0.00    -0.042 OA 
HETATM   14  N   UNL     1      -8.476   5.863  68.938  1.00  0.00    -0.105 N  
HETATM   15  C   UNL     1      -6.311  10.235  70.570  1.00  0.00    -0.112 A  
HETATM   16  C   UNL     1      -9.546   6.066  70.332  1.00  0.00    -0.164 C  
HETATM   17 CL   UNL     1      -5.376  11.570  71.075  1.00  0.00    -0.120 Cl 
HETATM   18  N   UNL     1      -7.419   9.936  71.343  1.00  0.00     0.231 NA 
ENDROOT
BRANCH   4  19
HETATM   19  C   UNL     2      -8.952   7.762  69.242  1.00  0.00    -0.139 C  
BRANCH  19  20
HETATM   20  C   UNL     2     -10.552   7.423  68.617  1.00  0.00    -0.154 C  
BRANCH  20  21
HETATM   21  O   UNL     2     -11.096   8.564  67.937  1.00  0.00     0.072 OA 
BRANCH  21  22
HETATM   22  C   UNL     2     -10.096   9.619  67.780  1.00  0.00    -0.187 C  
BRANCH  22  23
HETATM   23  C   UNL     2      -9.606   9.694  66.327  1.00  0.00    -0.281 A  
HETATM   24  C   UNL     2     -10.549   9.879  65.294  1.00  0.00     0.525 A  
HETATM   25  C   UNL     2      -8.248   9.832  65.997  1.00  0.00    -0.117 A  
HETATM   26  C   UNL     2     -10.148  10.278  64.013  1.00  0.00    -0.076 A  
HETATM   27  C   UNL     2      -8.799  10.464  63.730  1.00  0.00    -0.222 A  
HETATM   28  C   UNL     2      -7.848  10.213  64.713  1.00  0.00    -0.146 A  
ENDBRANCH  22  23
BRANCH  22  29
HETATM   29  C   UNL     2     -10.697  10.874  68.395  1.00  0.00    -0.240 A  
HETATM   30  C   UNL     2     -12.097  13.051  69.513  1.00  0.00    -0.289 A  
HETATM   31  C   UNL     2     -11.790  13.043  68.157  1.00  0.00    -0.381 A  
HETATM   32  C   UNL     2     -10.981  10.920  69.771  1.00  0.00    -0.290 A  
HETATM   33  C   UNL     2     -11.113  11.955  67.602  1.00  0.00    -0.314 A  
HETATM   34  C   UNL     2     -11.691  11.993  70.321  1.00  0.00    -0.267 A  
ENDBRANCH  22  29
ENDBRANCH  21  22
ENDBRANCH  20  21
ENDBRANCH  19  20
ENDBRANCH   4  19
TORSDOF 6
ENDMDL
MODEL      191
REMARK 921   NORMALIZED FREE ENERGY PREDICTED BY IDOCK:   -2.68 KCAL/MOL
REMARK 922        TOTAL FREE ENERGY PREDICTED BY IDOCK:   -2.00 KCAL/MOL
REMARK 923 INTER-LIGAND FREE ENERGY PREDICTED BY IDOCK:   -4.90 KCAL/MOL
REMARK 924 INTRA-LIGAND FREE ENERGY PREDICTED BY IDOCK:    2.91 KCAL/MOL
REMARK 927      BINDING AFFINITY PREDICTED BY RF-SCORE:    0.00 PKD
ROOT
HETATM    1  C   UNL     1     -10.696  14.668  69.126  1.00  0.00    -0.255 C  
HETATM    2  N   UNL     1      -9.527  15.259  68.464  1.00  0.00    -0.194 N  
HETATM    3  C   UNL     2      -8.747  16.830  69.886  1.00  0.00     1.257 C  
HETATM    4  N   UNL     2      -7.874  16.540  68.561  1.00  0.00    -0.198 NA 
HETATM    5  C   UNL     1      -9.595  16.701  67.404  1.00  0.00    -0.242 A  
HETATM    6  O   UNL     1      -7.817  13.646  69.803  1.00  0.00     0.673 OA 
HETATM    7  C   UNL     1      -8.246  17.295  66.649  1.00  0.00    -0.261 A  
HETATM    8  C   UNL     2      -6.608  17.415  69.068  1.00  0.00    -0.232 C  
HETATM    9  C   UNL     1      -5.230  14.469  68.204  1.00  0.00    -0.118 C  
HETATM   10  N   UNL     1      -8.622  18.358  65.889  1.00  0.00    -0.473 NA 
HETATM   11  C   UNL     1      -6.551  16.553  66.912  1.00  0.00    -0.177 C  
HETATM   12  H   UNL     1      -8.043  18.920  65.266  1.00  0.00     0.000 HD 
HETATM   13  O   UNL     1      -5.563  16.935  66.280  1.00  0.00    -0.336 OA 
HETATM   14  N   UNL     1      -6.469  15.183  68.060  1.00  0.00    -0.130 N  
HETATM   15  C   UNL     1      -9.909  18.494  66.145  1.00  0.00    -0.283 A  
HETATM   16  C   UNL     1      -7.834  14.561  68.996  1.00  0.00    -0.106 C  
HETATM   17 CL   UNL     1     -10.877  19.767  65.550  1.00  0.00    -0.435 Cl 
HETATM   18  N   UNL     1     -10.538  17.582  66.974  1.00  0.00    -0.292 NA 
ENDROOT
BRANCH   4  19
HETATM   19  C   UNL     2      -8.150  15.177  67.011  1.00  0.00    -0.205 C  
BRANCH  19  20
HETATM   20  C   UNL     2      -7.992  13.438  66.869  1.00  0.00     0.181 C  
BRANCH  20  21
HETATM   21  O   UNL     2      -9.278  12.803  66.822  1.00  0.00    -0.219 OA 
BRANCH  21  22
HETATM   22  C   UNL     2      -9.351  11.824  65.738  1.00  0.00    -0.185 C  
BRANCH  22  23
HETATM   23  C   UNL     2      -9.227  10.395  66.285  1.00  0.00    -0.195 A  
HETATM   24  C   UNL     2      -8.751   9.375  65.435  1.00  0.00    -0.194 A  
HETATM   25  C   UNL     2      -9.332  10.101  67.655  1.00  0.00    -0.162 A  
HETATM   26  C   UNL     2      -8.311   8.150  65.953  1.00  0.00    -0.134 A  
HETATM   27  C   UNL     2      -8.372   7.908  67.322  1.00  0.00    -0.122 A  
HETATM   28  C   UNL     2      -8.910   8.871  68.167  1.00  0.00    -0.134 A  
ENDBRANCH  22  23
BRANCH  22  29
HETATM   29  C   UNL     2     -10.590  12.173  64.928  1.00  0.00    -0.332 A  
HETATM   30  C   UNL     2     -13.031  12.568  63.572  1.00  0.00    -0.074 A  
HETATM   31  C   UNL     2     -12.003  11.856  62.964  1.00  0.00    -0.082 A  
HETATM   32  C   UNL     2     -11.625  12.925  65.510  1.00  0.00    -0.395 A  
HETATM   33  C   UNL     2     -10.804  11.645  63.645  1.00  0.00    -0.503 A  
HETATM   34  C   UNL     2     -12.842  13.106  64.842  1.00  0.00    -0.349 A  
ENDBRANCH  22  29
ENDBRANCH  21  22
ENDBRANCH  20  21
ENDBRANCH  19  20
ENDBRANCH   4  19
TORSDOF 6
ENDMDL
MODEL      192
REMARK 921   NORMALIZED FREE ENERGY PREDICTED BY IDOCK:   -2.67 KCAL/MOL
REMARK 922        TOTAL FREE ENERGY PREDICTED BY IDOCK:   -1.99 KCAL/MOL
REMARK 923 INTER-LIGAND FREE ENERGY PREDICTED BY IDOCK:   -4.23 KCAL/MOL
REMARK 924 INTRA-LIGAND FREE ENERGY PREDICTED BY IDOCK:    2.24 KCAL/MOL
REMARK 927      BINDING AFFINITY PREDICTED BY RF-SCORE:    0.00 PKD
ROOT
HETATM    1  C   UNL     1      -9.594   2.589  68.201  1.00  0.00    -0.037 C  
HETATM    2  N   UNL     1      -8.732   3.765  68.364  1.00  0.00    -0.096 N  
HETATM    3  C   UNL     2      -7.153   3.166  69.862  1.00  0.00    -0.041 C  
HETATM    4  N   UNL     2      -6.993   4.612  69.167  1.00  0.00    -0.050 NA 
HETATM    5  C   UNL     1      -8.983   5.031  69.606  1.00  0.00    -0.099 A  
HETATM    6  O   UNL     1      -6.936   2.833  66.568  1.00  0.00    -0.050 OA 
HETATM    7  C   UNL     1      -8.000   6.360  69.711  1.00  0.00    -0.119 A  
HETATM    8  C   UNL     2      -5.497   4.848  69.742  1.00  0.00    -0.008 C  
HETATM    9  C   UNL     1      -5.172   5.441  66.446  1.00  0.00    -0.008 C  
HETATM   10  N   UNL     1      -8.465   7.150  70.715  1.00  0.00    -0.132 NA 
HETATM   11  C   UNL     1      -6.518   6.592  68.596  1.00  0.00    -0.049 C  
HETATM   12  H   UNL     1      -8.115   8.061  71.009  1.00  0.00     0.000 HD 
HETATM   13  O   UNL     1      -5.841   7.622  68.611  1.00  0.00    -0.026 OA 
HETATM   14  N   UNL     1      -6.204   5.270  67.431  1.00  0.00    -0.033 N  
HETATM   15  C   UNL     1      -9.474   6.465  71.219  1.00  0.00    -0.166 A  
HETATM   16  C   UNL     1      -7.130   3.766  67.330  1.00  0.00    -0.059 C  
HETATM   17 CL   UNL     1     -10.357   6.933  72.602  1.00  0.00    -0.212 Cl 
HETATM   18  N   UNL     1      -9.844   5.268  70.632  1.00  0.00    -0.184 NA 
ENDROOT
BRANCH   4  19
HETATM   19  C   UNL     2      -8.142   5.568  67.716  1.00  0.00    -0.101 C  
BRANCH  19  20
HETATM   20  C   UNL     2      -9.084   7.044  67.679  1.00  0.00    -0.122 C  
BRANCH  20  21
HETATM   21  O   UNL     2      -8.597   7.945  66.675  1.00  0.00    -0.125 OA 
BRANCH  21  22
HETATM   22  C   UNL     2      -9.008   9.322  66.948  1.00  0.00    -0.130 C  
BRANCH  22  23
HETATM   23  C   UNL     2      -7.904  10.083  67.695  1.00  0.00    -0.095 A  
HETATM   24  C   UNL     2      -6.927  10.778  66.950  1.00  0.00    -0.109 A  
HETATM   25  C   UNL     2      -7.959  10.324  69.077  1.00  0.00    -0.125 A  
HETATM   26  C   UNL     2      -6.109  11.740  67.555  1.00  0.00    -0.092 A  
HETATM   27  C   UNL     2      -6.225  12.000  68.917  1.00  0.00    -0.072 A  
HETATM   28  C   UNL     2      -7.128  11.272  69.682  1.00  0.00    -0.011 A  
ENDBRANCH  22  23
BRANCH  22  29
HETATM   29  C   UNL     2      -9.498   9.893  65.626  1.00  0.00    -0.295 A  
HETATM   30  C   UNL     2     -10.133  11.124  63.169  1.00  0.00    -0.373 A  
HETATM   31  C   UNL     2     -10.640  11.639  64.358  1.00  0.00    -0.377 A  
HETATM   32  C   UNL     2      -9.030   9.364  64.410  1.00  0.00    -0.215 A  
HETATM   33  C   UNL     2     -10.308  11.038  65.573  1.00  0.00    -0.321 A  
HETATM   34  C   UNL     2      -9.332   9.986  63.194  1.00  0.00    -0.297 A  
ENDBRANCH  22  29
ENDBRANCH  21  22
ENDBRANCH  20  21
ENDBRANCH  19  20
ENDBRANCH   4  19
TORSDOF 6
ENDMDL
MODEL      193
REMARK 921   NORMALIZED FREE ENERGY PREDICTED BY IDOCK:   -2.60 KCAL/MOL
REMARK 922        TOTAL FREE ENERGY PREDICTED BY IDOCK:   -1.89 KCAL/MOL
REMARK 923 INTER-LIGAND FREE ENERGY PREDICTED BY IDOCK:   -5.05 KCAL/MOL
REMARK 924 INTRA-LIGAND FREE ENERGY PREDICTED BY IDOCK:    3.16 KCAL/MOL
REMARK 927      BINDING AFFINITY PREDICTED BY RF-SCORE:    0.00 PKD
ROOT
HETATM    1  C   UNL     1     -10.512   8.385  66.941  1.00  0.00    -0.289 C  
HETATM    2  N   UNL     1      -9.853   8.358  68.251  1.00  0.00    -0.163 N  
HETATM    3  C   UNL     2     -11.183   9.550  69.632  1.00  0.00    -0.108 C  
HETATM    4  N   UNL     2      -9.917   8.804  70.296  1.00  0.00    -0.180 NA 
HETATM    5  C   UNL     1      -8.688   9.595  68.816  1.00  0.00    -0.126 A  
HETATM    6  O   UNL     1     -11.370   6.282  69.093  1.00  0.00    -0.395 OA 
HETATM    7  C   UNL     1      -7.942   9.485  70.290  1.00  0.00    -0.175 A  
HETATM    8  C   UNL     2     -10.405   9.086  71.815  1.00  0.00    -0.337 C  
HETATM    9  C   UNL     1      -9.811   5.774  71.784  1.00  0.00    -0.166 C  
HETATM   10  N   UNL     1      -7.092  10.540  70.413  1.00  0.00    -0.462 NA 
HETATM   11  C   UNL     1      -8.321   8.110  71.497  1.00  0.00    -0.126 C  
HETATM   12  H   UNL     1      -6.451  10.743  71.179  1.00  0.00     0.000 HD 
HETATM   13  O   UNL     1      -7.701   7.975  72.554  1.00  0.00    -0.103 OA 
HETATM   14  N   UNL     1      -9.569   6.938  70.977  1.00  0.00    -0.171 N  
HETATM   15  C   UNL     1      -7.289  11.238  69.311  1.00  0.00    -0.068 A  
HETATM   16  C   UNL     1     -10.497   7.045  69.475  1.00  0.00    -0.220 C  
HETATM   17 CL   UNL     1      -6.566  12.750  68.990  1.00  0.00    -0.096 Cl 
HETATM   18  N   UNL     1      -8.159  10.758  68.348  1.00  0.00    -0.120 NA 
ENDROOT
BRANCH   4  19
HETATM   19  C   UNL     2      -8.462   7.571  69.460  1.00  0.00    -0.132 C  
BRANCH  19  20
HETATM   20  C   UNL     2      -8.346   6.650  67.974  1.00  0.00    -0.117 C  
BRANCH  20  21
HETATM   21  O   UNL     2      -6.977   6.457  67.589  1.00  0.00    -0.073 OA 
BRANCH  21  22
HETATM   22  C   UNL     2      -6.851   6.271  66.144  1.00  0.00    -0.057 C  
BRANCH  22  23
HETATM   23  C   UNL     2      -7.650   5.045  65.680  1.00  0.00    -0.086 A  
HETATM   24  C   UNL     2      -6.997   3.797  65.585  1.00  0.00    -0.061 A  
HETATM   25  C   UNL     2      -9.051   5.053  65.583  1.00  0.00    -0.157 A  
HETATM   26  C   UNL     2      -7.727   2.606  65.491  1.00  0.00    -0.077 A  
HETATM   27  C   UNL     2      -9.117   2.639  65.455  1.00  0.00    -0.129 A  
HETATM   28  C   UNL     2      -9.777   3.863  65.471  1.00  0.00    -0.176 A  
ENDBRANCH  22  23
BRANCH  22  29
HETATM   29  C   UNL     2      -7.174   7.614  65.508  1.00  0.00    -0.068 A  
HETATM   30  C   UNL     2      -7.540  10.038  64.114  1.00  0.00    -0.140 A  
HETATM   31  C   UNL     2      -6.744  10.004  65.253  1.00  0.00    -0.117 A  
HETATM   32  C   UNL     2      -8.008   7.679  64.378  1.00  0.00    -0.123 A  
HETATM   33  C   UNL     2      -6.549   8.799  65.930  1.00  0.00    -0.057 A  
HETATM   34  C   UNL     2      -8.175   8.879  63.678  1.00  0.00    -0.172 A  
ENDBRANCH  22  29
ENDBRANCH  21  22
ENDBRANCH  20  21
ENDBRANCH  19  20
ENDBRANCH   4  19
TORSDOF 6
ENDMDL
MODEL      194
REMARK 921   NORMALIZED FREE ENERGY PREDICTED BY IDOCK:   -2.54 KCAL/MOL
REMARK 922        TOTAL FREE ENERGY PREDICTED BY IDOCK:   -1.81 KCAL/MOL
REMARK 923 INTER-LIGAND FREE ENERGY PREDICTED BY IDOCK:   -5.05 KCAL/MOL
REMARK 924 INTRA-LIGAND FREE ENERGY PREDICTED BY IDOCK:    3.24 KCAL/MOL
REMARK 927      BINDING AFFINITY PREDICTED BY RF-SCORE:    0.00 PKD
ROOT
HETATM    1  C   UNL     1      -5.934   7.744  70.113  1.00  0.00    -0.023 C  
HETATM    2  N   UNL     1      -6.929   8.461  69.308  1.00  0.00    -0.054 N  
HETATM    3  C   UNL     2      -6.643  10.649  69.785  1.00  0.00    -0.121 C  
HETATM    4  N   UNL     2      -7.701  10.283  68.624  1.00  0.00    -0.090 NA 
HETATM    5  C   UNL     1      -8.576   8.874  69.879  1.00  0.00    -0.137 A  
HETATM    6  O   UNL     1      -5.134   8.976  67.350  1.00  0.00    -0.033 OA 
HETATM    7  C   UNL     1      -9.671   9.646  68.906  1.00  0.00    -0.162 A  
HETATM    8  C   UNL     2      -7.871  11.820  68.140  1.00  0.00    -0.135 C  
HETATM    9  C   UNL     1      -7.195  10.170  65.286  1.00  0.00    -0.141 C  
HETATM   10  N   UNL     1     -10.831   9.781  69.600  1.00  0.00    -0.240 NA 
HETATM   11  C   UNL     1      -9.240  10.210  67.177  1.00  0.00    -0.138 C  
HETATM   12  H   UNL     1     -11.715  10.172  69.276  1.00  0.00     0.000 HD 
HETATM   13  O   UNL     1     -10.080  10.701  66.419  1.00  0.00    -0.211 OA 
HETATM   14  N   UNL     1      -7.559   9.897  66.650  1.00  0.00    -0.102 N  
HETATM   15  C   UNL     1     -10.548   9.289  70.792  1.00  0.00    -0.285 A  
HETATM   16  C   UNL     1      -6.295   9.186  67.662  1.00  0.00    -0.059 C  
HETATM   17 CL   UNL     1     -11.617   9.320  72.122  1.00  0.00    -0.303 Cl 
HETATM   18  N   UNL     1      -9.301   8.736  71.021  1.00  0.00    -0.200 NA 
ENDROOT
BRANCH   4  19
HETATM   19  C   UNL     2      -8.259   8.450  67.809  1.00  0.00    -0.126 C  
BRANCH  19  20
HETATM   20  C   UNL     2      -8.737   6.906  68.484  1.00  0.00    -0.125 C  
BRANCH  20  21
HETATM   21  O   UNL     2      -9.916   6.401  67.841  1.00  0.00    -0.123 OA 
BRANCH  21  22
HETATM   22  C   UNL     2     -10.053   4.958  68.032  1.00  0.00    -0.077 C  
BRANCH  22  23
HETATM   23  C   UNL     2      -8.996   4.198  67.217  1.00  0.00    -0.142 A  
HETATM   24  C   UNL     2      -9.365   3.630  65.979  1.00  0.00    -0.171 A  
HETATM   25  C   UNL     2      -7.627   4.251  67.525  1.00  0.00    -0.073 A  
HETATM   26  C   UNL     2      -8.395   3.221  65.055  1.00  0.00    -0.094 A  
HETATM   27  C   UNL     2      -7.043   3.339  65.363  1.00  0.00    -0.062 A  
HETATM   28  C   UNL     2      -6.661   3.826  66.608  1.00  0.00    -0.042 A  
ENDBRANCH  22  23
BRANCH  22  29
HETATM   29  C   UNL     2     -10.096   4.727  69.535  1.00  0.00    -0.260 A  
HETATM   30  C   UNL     2      -9.930   4.507  72.341  1.00  0.00    -0.229 A  
HETATM   31  C   UNL     2      -9.296   3.572  71.531  1.00  0.00    -0.209 A  
HETATM   32  C   UNL     2     -10.763   5.638  70.371  1.00  0.00    -0.352 A  
HETATM   33  C   UNL     2      -9.364   3.694  70.142  1.00  0.00    -0.243 A  
HETATM   34  C   UNL     2     -10.666   5.538  71.763  1.00  0.00    -0.289 A  
ENDBRANCH  22  29
ENDBRANCH  21  22
ENDBRANCH  20  21
ENDBRANCH  19  20
ENDBRANCH   4  19
TORSDOF 6
ENDMDL
MODEL      195
REMARK 921   NORMALIZED FREE ENERGY PREDICTED BY IDOCK:   -2.46 KCAL/MOL
REMARK 922        TOTAL FREE ENERGY PREDICTED BY IDOCK:   -1.71 KCAL/MOL
REMARK 923 INTER-LIGAND FREE ENERGY PREDICTED BY IDOCK:   -4.78 KCAL/MOL
REMARK 924 INTRA-LIGAND FREE ENERGY PREDICTED BY IDOCK:    3.07 KCAL/MOL
REMARK 927      BINDING AFFINITY PREDICTED BY RF-SCORE:    0.00 PKD
ROOT
HETATM    1  C   UNL     1     -10.643   8.408  67.061  1.00  0.00    -0.246 C  
HETATM    2  N   UNL     1      -9.969   8.369  68.364  1.00  0.00    -0.181 N  
HETATM    3  C   UNL     2     -11.277   9.561  69.766  1.00  0.00    -0.144 C  
HETATM    4  N   UNL     2     -10.007   8.805  70.412  1.00  0.00    -0.182 NA 
HETATM    5  C   UNL     1      -8.791   9.597  68.923  1.00  0.00    -0.136 A  
HETATM    6  O   UNL     1     -11.489   6.297  69.212  1.00  0.00    -0.411 OA 
HETATM    7  C   UNL     1      -8.029   9.474  70.388  1.00  0.00    -0.178 A  
HETATM    8  C   UNL     2     -10.477   9.081  71.938  1.00  0.00    -0.303 C  
HETATM    9  C   UNL     1      -9.903   5.765  71.882  1.00  0.00    -0.164 C  
HETATM   10  N   UNL     1      -7.171  10.523  70.507  1.00  0.00    -0.449 NA 
HETATM   11  C   UNL     1      -8.403   8.094  71.591  1.00  0.00    -0.131 C  
HETATM   12  H   UNL     1      -6.520  10.718  71.266  1.00  0.00     0.000 HD 
HETATM   13  O   UNL     1      -7.771   7.949  72.640  1.00  0.00    -0.097 OA 
HETATM   14  N   UNL     1      -9.663   6.932  71.078  1.00  0.00    -0.174 N  
HETATM   15  C   UNL     1      -7.377  11.228  69.411  1.00  0.00    -0.025 A  
HETATM   16  C   UNL     1     -10.607   7.053  69.588  1.00  0.00    -0.234 C  
HETATM   17 CL   UNL     1      -6.648  12.738  69.090  1.00  0.00    -0.103 Cl 
HETATM   18  N   UNL     1      -8.260  10.758  68.455  1.00  0.00    -0.128 NA 
ENDROOT
BRANCH   4  19
HETATM   19  C   UNL     2      -8.569   7.567  69.553  1.00  0.00    -0.133 C  
BRANCH  19  20
HETATM   20  C   UNL     2      -8.510   6.583  68.105  1.00  0.00    -0.116 C  
BRANCH  20  21
HETATM   21  O   UNL     2      -7.157   6.267  67.747  1.00  0.00    -0.076 OA 
BRANCH  21  22
HETATM   22  C   UNL     2      -6.948   4.822  67.674  1.00  0.00    -0.061 C  
BRANCH  22  23
HETATM   23  C   UNL     2      -7.692   4.105  68.810  1.00  0.00    -0.058 A  
HETATM   24  C   UNL     2      -8.865   3.381  68.511  1.00  0.00    -0.160 A  
HETATM   25  C   UNL     2      -7.129   3.931  70.085  1.00  0.00    -0.041 A  
HETATM   26  C   UNL     2      -9.393   2.455  69.419  1.00  0.00    -0.167 A  
HETATM   27  C   UNL     2      -8.781   2.260  70.654  1.00  0.00    -0.112 A  
HETATM   28  C   UNL     2      -7.668   3.019  70.997  1.00  0.00    -0.043 A  
ENDBRANCH  22  23
BRANCH  22  29
HETATM   29  C   UNL     2      -7.269   4.414  66.244  1.00  0.00    -0.076 A  
HETATM   30  C   UNL     2      -8.157   3.576  63.702  1.00  0.00    -0.088 A  
HETATM   31  C   UNL     2      -7.425   2.708  64.505  1.00  0.00    -0.067 A  
HETATM   32  C   UNL     2      -7.974   5.290  65.401  1.00  0.00    -0.108 A  
HETATM   33  C   UNL     2      -7.003   3.119  65.770  1.00  0.00    -0.053 A  
HETATM   34  C   UNL     2      -8.429   4.867  64.147  1.00  0.00    -0.137 A  
ENDBRANCH  22  29
ENDBRANCH  21  22
ENDBRANCH  20  21
ENDBRANCH  19  20
ENDBRANCH   4  19
TORSDOF 6
ENDMDL
MODEL      196
REMARK 921   NORMALIZED FREE ENERGY PREDICTED BY IDOCK:   -2.24 KCAL/MOL
REMARK 922        TOTAL FREE ENERGY PREDICTED BY IDOCK:   -1.41 KCAL/MOL
REMARK 923 INTER-LIGAND FREE ENERGY PREDICTED BY IDOCK:   -5.30 KCAL/MOL
REMARK 924 INTRA-LIGAND FREE ENERGY PREDICTED BY IDOCK:    3.89 KCAL/MOL
REMARK 927      BINDING AFFINITY PREDICTED BY RF-SCORE:    0.00 PKD
ROOT
HETATM    1  C   UNL     1      -9.948   5.338  66.093  1.00  0.00    -0.165 C  
HETATM    2  N   UNL     1      -9.204   5.300  67.357  1.00  0.00    -0.112 N  
HETATM    3  C   UNL     2      -9.520   3.226  68.192  1.00  0.00    -0.155 C  
HETATM    4  N   UNL     2      -8.493   4.186  68.981  1.00  0.00    -0.080 NA 
HETATM    5  C   UNL     1      -9.909   5.709  68.951  1.00  0.00    -0.147 A  
HETATM    6  O   UNL     1      -7.051   4.157  66.181  1.00  0.00    -0.064 OA 
HETATM    7  C   UNL     1      -9.005   5.690  70.338  1.00  0.00    -0.140 A  
HETATM    8  C   UNL     2      -7.938   2.998  69.932  1.00  0.00    -0.042 C  
HETATM    9  C   UNL     1      -5.134   4.368  68.673  1.00  0.00     0.000 C  
HETATM   10  N   UNL     1      -9.802   6.083  71.367  1.00  0.00    -0.171 NA 
HETATM   11  C   UNL     1      -7.212   5.165  70.349  1.00  0.00    -0.061 C  
HETATM   12  H   UNL     1      -9.544   6.221  72.344  1.00  0.00     0.000 HD 
HETATM   13  O   UNL     1      -6.513   5.238  71.362  1.00  0.00    -0.032 OA 
HETATM   14  N   UNL     1      -6.541   4.647  68.773  1.00  0.00    -0.044 N  
HETATM   15  C   UNL     1     -10.987   6.245  70.809  1.00  0.00    -0.297 A  
HETATM   16  C   UNL     1      -7.463   4.526  67.269  1.00  0.00    -0.078 C  
HETATM   17 CL   UNL     1     -12.411   6.618  71.671  1.00  0.00    -0.391 Cl 
HETATM   18  N   UNL     1     -11.123   6.075  69.443  1.00  0.00    -0.390 NA 
ENDROOT
BRANCH   4  19
HETATM   19  C   UNL     2      -7.847   6.125  68.578  1.00  0.00    -0.104 C  
BRANCH  19  20
HETATM   20  C   UNL     2      -8.530   7.718  68.829  1.00  0.00    -0.129 C  
BRANCH  20  21
HETATM   21  O   UNL     2      -9.189   8.192  67.646  1.00  0.00    -0.136 OA 
BRANCH  21  22
HETATM   22  C   UNL     2      -8.578   9.424  67.151  1.00  0.00    -0.128 C  
BRANCH  22  23
HETATM   23  C   UNL     2      -8.023   9.226  65.733  1.00  0.00    -0.109 A  
HETATM   24  C   UNL     2      -7.702   7.922  65.299  1.00  0.00    -0.097 A  
HETATM   25  C   UNL     2      -8.050  10.244  64.766  1.00  0.00    -0.151 A  
HETATM   26  C   UNL     2      -7.511   7.641  63.941  1.00  0.00    -0.107 A  
HETATM   27  C   UNL     2      -7.601   8.659  62.997  1.00  0.00    -0.111 A  
HETATM   28  C   UNL     2      -7.841   9.964  63.412  1.00  0.00    -0.152 A  
ENDBRANCH  22  23
BRANCH  22  29
HETATM   29  C   UNL     2      -9.602  10.528  67.368  1.00  0.00    -0.181 A  
HETATM   30  C   UNL     2     -11.671  12.437  67.532  1.00  0.00    -0.425 A  
HETATM   31  C   UNL     2     -10.526  12.713  66.793  1.00  0.00    -0.254 A  
HETATM   32  C   UNL     2     -10.749  10.285  68.144  1.00  0.00    -0.287 A  
HETATM   33  C   UNL     2      -9.512  11.759  66.698  1.00  0.00    -0.215 A  
HETATM   34  C   UNL     2     -11.782  11.227  68.210  1.00  0.00    -0.344 A  
ENDBRANCH  22  29
ENDBRANCH  21  22
ENDBRANCH  20  21
ENDBRANCH  19  20
ENDBRANCH   4  19
TORSDOF 6
ENDMDL
MODEL      197
REMARK 921   NORMALIZED FREE ENERGY PREDICTED BY IDOCK:   -2.12 KCAL/MOL
REMARK 922        TOTAL FREE ENERGY PREDICTED BY IDOCK:   -1.25 KCAL/MOL
REMARK 923 INTER-LIGAND FREE ENERGY PREDICTED BY IDOCK:   -4.55 KCAL/MOL
REMARK 924 INTRA-LIGAND FREE ENERGY PREDICTED BY IDOCK:    3.31 KCAL/MOL
REMARK 927      BINDING AFFINITY PREDICTED BY RF-SCORE:    0.00 PKD
ROOT
HETATM    1  C   UNL     1     -10.972   8.345  68.217  1.00  0.00     0.216 C  
HETATM    2  N   UNL     1      -9.648   7.818  68.568  1.00  0.00    -0.148 N  
HETATM    3  C   UNL     2      -9.960   5.628  69.020  1.00  0.00    -0.174 C  
HETATM    4  N   UNL     2      -8.440   6.166  69.011  1.00  0.00    -0.118 NA 
HETATM    5  C   UNL     1      -9.004   7.749  70.237  1.00  0.00    -0.148 A  
HETATM    6  O   UNL     1      -9.221   6.916  66.053  1.00  0.00    -0.125 OA 
HETATM    7  C   UNL     1      -7.482   7.183  70.564  1.00  0.00    -0.087 A  
HETATM    8  C   UNL     2      -7.795   4.682  69.082  1.00  0.00    -0.070 C  
HETATM    9  C   UNL     1      -6.207   6.101  66.477  1.00  0.00    -0.037 C  
HETATM   10  N   UNL     1      -7.269   7.294  71.902  1.00  0.00    -0.074 NA 
HETATM   11  C   UNL     1      -6.364   6.506  69.228  1.00  0.00    -0.035 C  
HETATM   12  H   UNL     1      -6.420   7.077  72.423  1.00  0.00     0.000 HD 
HETATM   13  O   UNL     1      -5.199   6.171  69.455  1.00  0.00    -0.011 OA 
HETATM   14  N   UNL     1      -7.054   6.471  67.578  1.00  0.00    -0.078 N  
HETATM   15  C   UNL     1      -8.416   7.749  72.371  1.00  0.00    -0.127 A  
HETATM   16  C   UNL     1      -8.706   6.945  67.158  1.00  0.00    -0.120 C  
HETATM   17 CL   UNL     1      -8.760   7.959  74.029  1.00  0.00    -0.325 Cl 
HETATM   18  N   UNL     1      -9.438   8.053  71.490  1.00  0.00    -0.153 NA 
ENDROOT
BRANCH   4  19
HETATM   19  C   UNL     2      -7.659   8.054  68.605  1.00  0.00    -0.100 C  
BRANCH  19  20
HETATM   20  C   UNL     2      -8.335   9.554  68.004  1.00  0.00    -0.118 C  
BRANCH  20  21
HETATM   21  O   UNL     2      -7.306  10.435  67.532  1.00  0.00    -0.090 OA 
BRANCH  21  22
HETATM   22  C   UNL     2      -7.779  11.264  66.424  1.00  0.00    -0.089 C  
BRANCH  22  23
HETATM   23  C   UNL     2      -7.816  10.459  65.117  1.00  0.00    -0.122 A  
HETATM   24  C   UNL     2      -6.796   9.517  64.865  1.00  0.00    -0.102 A  
HETATM   25  C   UNL     2      -8.941  10.438  64.278  1.00  0.00    -0.249 A  
HETATM   26  C   UNL     2      -6.946   8.539  63.874  1.00  0.00    -0.083 A  
HETATM   27  C   UNL     2      -8.099   8.506  63.094  1.00  0.00    -0.165 A  
HETATM   28  C   UNL     2      -9.081   9.472  63.277  1.00  0.00    -0.147 A  
ENDBRANCH  22  23
BRANCH  22  29
HETATM   29  C   UNL     2      -9.071  11.914  66.897  1.00  0.00    -0.196 A  
HETATM   30  C   UNL     2     -11.452  12.918  68.027  1.00  0.00    -0.361 A  
HETATM   31  C   UNL     2     -11.508  11.948  67.032  1.00  0.00    -0.384 A  
HETATM   32  C   UNL     2      -9.037  12.924  67.875  1.00  0.00    -0.201 A  
HETATM   33  C   UNL     2     -10.327  11.439  66.488  1.00  0.00    -0.277 A  
HETATM   34  C   UNL     2     -10.218  13.408  68.447  1.00  0.00    -0.251 A  
ENDBRANCH  22  29
ENDBRANCH  21  22
ENDBRANCH  20  21
ENDBRANCH  19  20
ENDBRANCH   4  19
TORSDOF 6
ENDMDL
MODEL      198
REMARK 921   NORMALIZED FREE ENERGY PREDICTED BY IDOCK:   -2.06 KCAL/MOL
REMARK 922        TOTAL FREE ENERGY PREDICTED BY IDOCK:   -1.17 KCAL/MOL
REMARK 923 INTER-LIGAND FREE ENERGY PREDICTED BY IDOCK:   -4.93 KCAL/MOL
REMARK 924 INTRA-LIGAND FREE ENERGY PREDICTED BY IDOCK:    3.76 KCAL/MOL
REMARK 927      BINDING AFFINITY PREDICTED BY RF-SCORE:    0.00 PKD
ROOT
HETATM    1  C   UNL     1      -6.848  14.610  67.701  1.00  0.00    -0.183 C  
HETATM    2  N   UNL     1      -7.812  15.707  67.555  1.00  0.00    -0.147 N  
HETATM    3  C   UNL     2      -6.930  17.095  66.008  1.00  0.00    -0.045 C  
HETATM    4  N   UNL     2      -8.415  17.434  66.537  1.00  0.00    -0.251 NA 
HETATM    5  C   UNL     1      -7.753  17.228  68.498  1.00  0.00    -0.261 A  
HETATM    6  O   UNL     1      -8.969  14.549  65.401  1.00  0.00     0.665 OA 
HETATM    7  C   UNL     1      -8.897  18.412  68.319  1.00  0.00    -0.305 A  
HETATM    8  C   UNL     2      -8.681  18.564  65.407  1.00  0.00     1.475 C  
HETATM    9  C   UNL     1     -11.379  16.566  65.167  1.00  0.00     0.113 C  
HETATM   10  N   UNL     1      -8.607  19.414  69.192  1.00  0.00    -0.225 NA 
HETATM   11  C   UNL     1     -10.279  18.279  67.069  1.00  0.00    -0.378 C  
HETATM   12  H   UNL     1      -9.137  20.267  69.366  1.00  0.00     0.000 HD 
HETATM   13  O   UNL     1     -11.183  19.116  66.999  1.00  0.00    -0.234 OA 
HETATM   14  N   UNL     1     -10.270  16.809  66.049  1.00  0.00    -0.347 N  
HETATM   15  C   UNL     1      -7.481  19.026  69.761  1.00  0.00     0.357 A  
HETATM   16  C   UNL     1      -9.025  15.553  66.092  1.00  0.00    -0.294 C  
HETATM   17 CL   UNL     1      -6.587  19.972  70.863  1.00  0.00    -0.113 Cl 
HETATM   18  N   UNL     1      -6.948  17.791  69.439  1.00  0.00    -0.152 NA 
ENDROOT
BRANCH   4  19
HETATM   19  C   UNL     2      -9.645  16.441  67.894  1.00  0.00    -0.228 C  
BRANCH  19  20
HETATM   20  C   UNL     2     -10.709  15.054  67.791  1.00  0.00    -0.278 C  
BRANCH  20  21
HETATM   21  O   UNL     2     -10.457  14.127  68.857  1.00  0.00    -0.242 OA 
BRANCH  21  22
HETATM   22  C   UNL     2     -10.949  12.789  68.528  1.00  0.00    -0.258 C  
BRANCH  22  23
HETATM   23  C   UNL     2     -11.885  12.268  69.628  1.00  0.00    -0.393 A  
HETATM   24  C   UNL     2     -12.307  10.922  69.587  1.00  0.00    -0.290 A  
HETATM   25  C   UNL     2     -12.144  12.993  70.802  1.00  0.00    -0.268 A  
HETATM   26  C   UNL     2     -12.877  10.309  70.710  1.00  0.00    -0.427 A  
HETATM   27  C   UNL     2     -13.069  11.037  71.880  1.00  0.00    -0.525 A  
HETATM   28  C   UNL     2     -12.730  12.385  71.916  1.00  0.00    -0.194 A  
ENDBRANCH  22  23
BRANCH  22  29
HETATM   29  C   UNL     2     -11.491  12.868  67.109  1.00  0.00    -0.388 A  
HETATM   30  C   UNL     2     -12.713  12.792  64.569  1.00  0.00    -0.405 A  
HETATM   31  C   UNL     2     -11.576  12.031  64.818  1.00  0.00    -0.344 A  
HETATM   32  C   UNL     2     -12.616  13.661  66.825  1.00  0.00    -0.082 A  
HETATM   33  C   UNL     2     -10.985  12.056  66.082  1.00  0.00    -0.343 A  
HETATM   34  C   UNL     2     -13.232  13.609  65.570  1.00  0.00     0.059 A  
ENDBRANCH  22  29
ENDBRANCH  21  22
ENDBRANCH  20  21
ENDBRANCH  19  20
ENDBRANCH   4  19
TORSDOF 6
ENDMDL
MODEL      199
REMARK 921   NORMALIZED FREE ENERGY PREDICTED BY IDOCK:   -2.04 KCAL/MOL
REMARK 922        TOTAL FREE ENERGY PREDICTED BY IDOCK:   -1.14 KCAL/MOL
REMARK 923 INTER-LIGAND FREE ENERGY PREDICTED BY IDOCK:   -4.24 KCAL/MOL
REMARK 924 INTRA-LIGAND FREE ENERGY PREDICTED BY IDOCK:    3.11 KCAL/MOL
REMARK 927      BINDING AFFINITY PREDICTED BY RF-SCORE:    0.00 PKD
ROOT
HETATM    1  C   UNL     1     -11.897   7.193  69.806  1.00  0.00     0.180 C  
HETATM    2  N   UNL     1     -10.485   7.241  69.409  1.00  0.00    -0.212 N  
HETATM    3  C   UNL     2     -10.439   8.341  67.439  1.00  0.00    -0.283 C  
HETATM    4  N   UNL     2      -9.018   7.959  68.099  1.00  0.00    -0.132 NA 
HETATM    5  C   UNL     1      -9.687   6.010  68.383  1.00  0.00    -0.125 A  
HETATM    6  O   UNL     1     -10.167   9.721  70.444  1.00  0.00    -0.269 OA 
HETATM    7  C   UNL     1      -8.076   6.096  68.006  1.00  0.00    -0.114 A  
HETATM    8  C   UNL     2      -8.165   8.861  67.059  1.00  0.00    -0.106 C  
HETATM    9  C   UNL     1      -7.041   9.861  70.069  1.00  0.00    -0.127 C  
HETATM   10  N   UNL     1      -7.759   5.007  67.256  1.00  0.00    -0.091 NA 
HETATM   11  C   UNL     1      -7.001   7.521  68.558  1.00  0.00    -0.079 C  
HETATM   12  H   UNL     1      -6.844   4.736  66.899  1.00  0.00     0.000 HD 
HETATM   13  O   UNL     1      -5.784   7.541  68.358  1.00  0.00    -0.025 OA 
HETATM   14  N   UNL     1      -7.827   8.808  69.488  1.00  0.00    -0.089 N  
HETATM   15  C   UNL     1      -8.911   4.384  67.097  1.00  0.00    -0.119 A  
HETATM   16  C   UNL     1      -9.561   8.854  69.834  1.00  0.00    -0.177 C  
HETATM   17 CL   UNL     1      -9.128   3.002  66.119  1.00  0.00    -0.150 Cl 
HETATM   18  N   UNL     1     -10.043   4.875  67.723  1.00  0.00    -0.131 NA 
ENDROOT
BRANCH   4  19
HETATM   19  C   UNL     2      -8.555   7.010  69.894  1.00  0.00    -0.141 C  
BRANCH  19  20
HETATM   20  C   UNL     2      -7.565   5.632  70.329  1.00  0.00    -0.081 C  
BRANCH  20  21
HETATM   21  O   UNL     2      -8.349   4.607  70.957  1.00  0.00    -0.091 OA 
BRANCH  21  22
HETATM   22  C   UNL     2      -7.945   4.402  72.347  1.00  0.00    -0.092 C  
BRANCH  22  23
HETATM   23  C   UNL     2      -7.829   5.744  73.084  1.00  0.00    -0.103 A  
HETATM   24  C   UNL     2      -6.673   6.532  72.893  1.00  0.00    -0.068 A  
HETATM   25  C   UNL     2      -8.917   6.338  73.743  1.00  0.00    -0.134 A  
HETATM   26  C   UNL     2      -6.651   7.882  73.264  1.00  0.00    -0.092 A  
HETATM   27  C   UNL     2      -7.766   8.460  73.864  1.00  0.00    -0.191 A  
HETATM   28  C   UNL     2      -8.886   7.681  74.130  1.00  0.00    -0.280 A  
ENDBRANCH  22  23
BRANCH  22  29
HETATM   29  C   UNL     2      -8.890   3.356  72.918  1.00  0.00    -0.094 A  
HETATM   30  C   UNL     2     -10.701   1.626  74.215  1.00  0.00    -0.186 A  
HETATM   31  C   UNL     2      -9.334   1.494  74.433  1.00  0.00    -0.077 A  
HETATM   32  C   UNL     2     -10.272   3.446  72.679  1.00  0.00    -0.234 A  
HETATM   33  C   UNL     2      -8.441   2.364  73.805  1.00  0.00    -0.063 A  
HETATM   34  C   UNL     2     -11.171   2.598  73.336  1.00  0.00    -0.267 A  
ENDBRANCH  22  29
ENDBRANCH  21  22
ENDBRANCH  20  21
ENDBRANCH  19  20
ENDBRANCH   4  19
TORSDOF 6
ENDMDL
MODEL      200
REMARK 921   NORMALIZED FREE ENERGY PREDICTED BY IDOCK:   -2.01 KCAL/MOL
REMARK 922        TOTAL FREE ENERGY PREDICTED BY IDOCK:   -1.10 KCAL/MOL
REMARK 923 INTER-LIGAND FREE ENERGY PREDICTED BY IDOCK:   -4.77 KCAL/MOL
REMARK 924 INTRA-LIGAND FREE ENERGY PREDICTED BY IDOCK:    3.67 KCAL/MOL
REMARK 927      BINDING AFFINITY PREDICTED BY RF-SCORE:    0.00 PKD
ROOT
HETATM    1  C   UNL     1     -10.813   8.777  66.733  1.00  0.00     0.165 C  
HETATM    2  N   UNL     1      -9.896   7.931  67.504  1.00  0.00    -0.158 N  
HETATM    3  C   UNL     2     -10.768   5.850  67.426  1.00  0.00    -0.287 C  
HETATM    4  N   UNL     2      -9.326   6.015  68.128  1.00  0.00    -0.115 NA 
HETATM    5  C   UNL     1     -10.067   7.598  69.255  1.00  0.00    -0.190 A  
HETATM    6  O   UNL     1      -8.589   7.128  65.275  1.00  0.00    -0.098 OA 
HETATM    7  C   UNL     1      -8.972   6.669  70.080  1.00  0.00    -0.152 A  
HETATM    8  C   UNL     2      -9.061   4.419  68.215  1.00  0.00    -0.127 C  
HETATM    9  C   UNL     1      -6.267   5.599  66.758  1.00  0.00    -0.034 C  
HETATM   10  N   UNL     1      -9.347   6.635  71.387  1.00  0.00    -0.152 NA 
HETATM   11  C   UNL     1      -7.529   5.841  69.229  1.00  0.00    -0.083 C  
HETATM   12  H   UNL     1      -8.865   6.189  72.166  1.00  0.00     0.000 HD 
HETATM   13  O   UNL     1      -6.663   5.227  69.855  1.00  0.00    -0.044 OA 
HETATM   14  N   UNL     1      -7.424   6.082  67.459  1.00  0.00    -0.081 N  
HETATM   15  C   UNL     1     -10.478   7.314  71.411  1.00  0.00    -0.203 A  
HETATM   16  C   UNL     1      -8.611   6.959  66.483  1.00  0.00    -0.129 C  
HETATM   17 CL   UNL     1     -11.465   7.485  72.793  1.00  0.00    -0.368 Cl 
HETATM   18  N   UNL     1     -10.940   7.909  70.251  1.00  0.00    -0.253 NA 
ENDROOT
BRANCH   4  19
HETATM   19  C   UNL     2      -8.115   7.689  68.391  1.00  0.00    -0.124 C  
BRANCH  19  20
HETATM   20  C   UNL     2      -8.202   9.356  67.861  1.00  0.00    -0.115 C  
BRANCH  20  21
HETATM   21  O   UNL     2      -6.931   9.815  67.380  1.00  0.00    -0.082 OA 
BRANCH  21  22
HETATM   22  C   UNL     2      -7.066  11.046  66.603  1.00  0.00    -0.139 C  
BRANCH  22  23
HETATM   23  C   UNL     2      -8.294  10.978  65.683  1.00  0.00    -0.060 A  
HETATM   24  C   UNL     2      -9.405  11.801  65.963  1.00  0.00    -0.231 A  
HETATM   25  C   UNL     2      -8.269  10.321  64.443  1.00  0.00    -0.159 A  
HETATM   26  C   UNL     2     -10.397  12.026  65.001  1.00  0.00    -0.318 A  
HETATM   27  C   UNL     2     -10.317  11.407  63.757  1.00  0.00    -0.447 A  
HETATM   28  C   UNL     2      -9.270  10.533  63.490  1.00  0.00    -0.300 A  
ENDBRANCH  22  23
BRANCH  22  29
HETATM   29  C   UNL     2      -6.984  12.193  67.599  1.00  0.00    -0.121 A  
HETATM   30  C   UNL     2      -6.945  14.508  69.209  1.00  0.00    -0.141 A  
HETATM   31  C   UNL     2      -5.786  14.088  68.565  1.00  0.00    -0.093 A  
HETATM   32  C   UNL     2      -8.134  12.611  68.291  1.00  0.00    -0.161 A  
HETATM   33  C   UNL     2      -5.814  12.952  67.754  1.00  0.00    -0.139 A  
HETATM   34  C   UNL     2      -8.117  13.770  69.076  1.00  0.00     0.168 A  
ENDBRANCH  22  29
ENDBRANCH  21  22
ENDBRANCH  20  21
ENDBRANCH  19  20
ENDBRANCH   4  19
TORSDOF 6
ENDMDL
MODEL      201
REMARK 921   NORMALIZED FREE ENERGY PREDICTED BY IDOCK:   -1.92 KCAL/MOL
REMARK 922        TOTAL FREE ENERGY PREDICTED BY IDOCK:   -0.97 KCAL/MOL
REMARK 923 INTER-LIGAND FREE ENERGY PREDICTED BY IDOCK:   -3.73 KCAL/MOL
REMARK 924 INTRA-LIGAND FREE ENERGY PREDICTED BY IDOCK:    2.76 KCAL/MOL
REMARK 927      BINDING AFFINITY PREDICTED BY RF-SCORE:    0.00 PKD
ROOT
HETATM    1  C   UNL     1     -10.273   5.647  67.172  1.00  0.00    -0.212 C  
HETATM    2  N   UNL     1      -9.303   6.515  67.850  1.00  0.00    -0.113 N  
HETATM    3  C   UNL     2      -7.291   5.532  67.557  1.00  0.00    -0.076 C  
HETATM    4  N   UNL     2      -7.305   6.978  68.271  1.00  0.00    -0.094 NA 
HETATM    5  C   UNL     1      -8.800   6.318  69.557  1.00  0.00    -0.135 A  
HETATM    6  O   UNL     1      -8.666   7.786  65.547  1.00  0.00    -0.147 OA 
HETATM    7  C   UNL     1      -7.733   7.358  70.280  1.00  0.00    -0.093 A  
HETATM    8  C   UNL     2      -5.696   7.157  68.191  1.00  0.00    -0.022 C  
HETATM    9  C   UNL     1      -6.869  10.017  66.861  1.00  0.00    -0.087 C  
HETATM   10  N   UNL     1      -7.583   6.976  71.576  1.00  0.00    -0.088 NA 
HETATM   11  C   UNL     1      -6.921   8.758  69.345  1.00  0.00    -0.053 C  
HETATM   12  H   UNL     1      -7.033   7.430  72.304  1.00  0.00     0.000 HD 
HETATM   13  O   UNL     1      -6.199   9.588  69.903  1.00  0.00    -0.041 OA 
HETATM   14  N   UNL     1      -7.339   8.884  67.610  1.00  0.00    -0.084 N  
HETATM   15  C   UNL     1      -8.316   5.882  71.672  1.00  0.00    -0.127 A  
HETATM   16  C   UNL     1      -8.374   7.750  66.732  1.00  0.00    -0.125 C  
HETATM   17 CL   UNL     1      -8.396   4.900  73.066  1.00  0.00    -0.101 Cl 
HETATM   18  N   UNL     1      -9.052   5.459  70.581  1.00  0.00    -0.141 NA 
ENDROOT
BRANCH   4  19
HETATM   19  C   UNL     2      -8.875   8.276  68.705  1.00  0.00    -0.133 C  
BRANCH  19  20
HETATM   20  C   UNL     2      -9.637   8.821  70.184  1.00  0.00    -0.173 C  
BRANCH  20  21
HETATM   21  O   UNL     2     -10.027  10.198  70.090  1.00  0.00    -0.229 OA 
BRANCH  21  22
HETATM   22  C   UNL     2     -11.439  10.330  69.733  1.00  0.00    -0.256 C  
BRANCH  22  23
HETATM   23  C   UNL     2     -12.329   9.591  70.743  1.00  0.00    -0.233 A  
HETATM   24  C   UNL     2     -12.382  10.053  72.075  1.00  0.00    -0.222 A  
HETATM   25  C   UNL     2     -13.276   8.632  70.350  1.00  0.00     1.131 A  
HETATM   26  C   UNL     2     -13.400   9.639  72.942  1.00  0.00     0.321 A  
HETATM   27  C   UNL     2     -14.362   8.731  72.508  1.00  0.00    -0.342 A  
HETATM   28  C   UNL     2     -14.282   8.206  71.223  1.00  0.00    -0.346 A  
ENDBRANCH  22  23
BRANCH  22  29
HETATM   29  C   UNL     2     -11.690  11.814  69.515  1.00  0.00    -0.408 A  
HETATM   30  C   UNL     2     -11.921  14.619  69.330  1.00  0.00    -0.337 A  
HETATM   31  C   UNL     2     -12.781  13.902  70.155  1.00  0.00    -0.182 A  
HETATM   32  C   UNL     2     -10.857  12.553  68.655  1.00  0.00    -0.280 A  
HETATM   33  C   UNL     2     -12.652  12.516  70.259  1.00  0.00    -0.026 A  
HETATM   34  C   UNL     2     -10.962  13.946  68.578  1.00  0.00    -0.277 A  
ENDBRANCH  22  29
ENDBRANCH  21  22
ENDBRANCH  20  21
ENDBRANCH  19  20
ENDBRANCH   4  19
TORSDOF 6
ENDMDL
MODEL      202
REMARK 921   NORMALIZED FREE ENERGY PREDICTED BY IDOCK:   -1.88 KCAL/MOL
REMARK 922        TOTAL FREE ENERGY PREDICTED BY IDOCK:   -0.92 KCAL/MOL
REMARK 923 INTER-LIGAND FREE ENERGY PREDICTED BY IDOCK:   -5.96 KCAL/MOL
REMARK 924 INTRA-LIGAND FREE ENERGY PREDICTED BY IDOCK:    5.04 KCAL/MOL
REMARK 927      BINDING AFFINITY PREDICTED BY RF-SCORE:    0.00 PKD
ROOT
HETATM    1  C   UNL     1      -5.879  16.093  67.232  1.00  0.00    -0.087 C  
HETATM    2  N   UNL     1      -6.901  17.072  67.619  1.00  0.00    -0.135 N  
HETATM    3  C   UNL     2      -6.442  18.938  66.433  1.00  0.00    -0.195 C  
HETATM    4  N   UNL     2      -7.791  18.944  67.317  1.00  0.00    -0.234 NA 
HETATM    5  C   UNL     1      -6.709  18.251  68.953  1.00  0.00    -0.252 A  
HETATM    6  O   UNL     1      -8.444  16.471  65.479  1.00  0.00    -0.118 OA 
HETATM    7  C   UNL     1      -7.918  19.303  69.371  1.00  0.00     0.031 A  
HETATM    8  C   UNL     2      -8.348  20.317  66.662  1.00  0.00    -0.235 C  
HETATM    9  C   UNL     1     -10.937  18.191  66.346  1.00  0.00     0.254 C  
HETATM   10  N   UNL     1      -7.493  20.033  70.436  1.00  0.00     0.499 NA 
HETATM   11  C   UNL     1      -9.531  19.388  68.432  1.00  0.00    -0.374 C  
HETATM   12  H   UNL     1      -8.011  20.735  70.963  1.00  0.00     0.000 HD 
HETATM   13  O   UNL     1     -10.466  20.104  68.798  1.00  0.00    -0.353 OA 
HETATM   14  N   UNL     1      -9.676  18.288  67.028  1.00  0.00    -0.292 N  
HETATM   15  C   UNL     1      -6.254  19.622  70.630  1.00  0.00    -0.108 A  
HETATM   16  C   UNL     1      -8.395  17.218  66.442  1.00  0.00    -0.280 C  
HETATM   17 CL   UNL     1      -5.186  20.299  71.775  1.00  0.00    -0.398 Cl 
HETATM   18  N   UNL     1      -5.746  18.601  69.847  1.00  0.00    -0.236 NA 
ENDROOT
BRANCH   4  19
HETATM   19  C   UNL     2      -8.649  17.471  68.513  1.00  0.00    -0.276 C  
BRANCH  19  20
HETATM   20  C   UNL     2      -8.186  15.845  68.973  1.00  0.00    -0.234 C  
BRANCH  20  21
HETATM   21  O   UNL     2      -8.198  14.963  67.841  1.00  0.00    -0.131 OA 
BRANCH  21  22
HETATM   22  C   UNL     2      -8.999  13.768  68.105  1.00  0.00    -0.190 C  
BRANCH  22  23
HETATM   23  C   UNL     2     -10.083  13.590  67.032  1.00  0.00    -0.244 A  
HETATM   24  C   UNL     2     -10.158  12.368  66.330  1.00  0.00    -0.257 A  
HETATM   25  C   UNL     2     -11.152  14.488  66.887  1.00  0.00    -0.325 A  
HETATM   26  C   UNL     2     -11.299  12.028  65.593  1.00  0.00    -0.381 A  
HETATM   27  C   UNL     2     -12.369  12.914  65.514  1.00  0.00    -0.517 A  
HETATM   28  C   UNL     2     -12.283  14.154  66.136  1.00  0.00    -0.465 A  
ENDBRANCH  22  23
BRANCH  22  29
HETATM   29  C   UNL     2      -8.013  12.629  68.317  1.00  0.00    -0.153 A  
HETATM   30  C   UNL     2      -6.290  10.399  68.429  1.00  0.00    -0.051 A  
HETATM   31  C   UNL     2      -7.508  10.373  69.100  1.00  0.00    -0.112 A  
HETATM   32  C   UNL     2      -6.760  12.652  67.680  1.00  0.00    -0.144 A  
HETATM   33  C   UNL     2      -8.366  11.471  69.027  1.00  0.00     0.085 A  
HETATM   34  C   UNL     2      -5.914  11.538  67.723  1.00  0.00    -0.049 A  
ENDBRANCH  22  29
ENDBRANCH  21  22
ENDBRANCH  20  21
ENDBRANCH  19  20
ENDBRANCH   4  19
TORSDOF 6
ENDMDL
MODEL      203
REMARK 921   NORMALIZED FREE ENERGY PREDICTED BY IDOCK:   -1.76 KCAL/MOL
REMARK 922        TOTAL FREE ENERGY PREDICTED BY IDOCK:   -0.76 KCAL/MOL
REMARK 923 INTER-LIGAND FREE ENERGY PREDICTED BY IDOCK:   -4.24 KCAL/MOL
REMARK 924 INTRA-LIGAND FREE ENERGY PREDICTED BY IDOCK:    3.48 KCAL/MOL
REMARK 927      BINDING AFFINITY PREDICTED BY RF-SCORE:    0.00 PKD
ROOT
HETATM    1  C   UNL     1      -6.573  12.851  69.092  1.00  0.00    -0.104 C  
HETATM    2  N   UNL     1      -7.825  13.317  68.485  1.00  0.00    -0.131 N  
HETATM    3  C   UNL     2      -8.684  14.822  69.932  1.00  0.00     0.479 C  
HETATM    4  N   UNL     2      -9.449  14.639  68.524  1.00  0.00    -0.212 NA 
HETATM    5  C   UNL     1      -9.427  12.577  68.792  1.00  0.00     0.110 A  
HETATM    6  O   UNL     1      -6.626  15.495  67.418  1.00  0.00    -0.174 OA 
HETATM    7  C   UNL     1     -10.800  13.120  68.042  1.00  0.00    -0.242 A  
HETATM    8  C   UNL     2     -10.401  15.931  68.744  1.00  0.00    -0.228 C  
HETATM    9  C   UNL     1      -9.085  16.441  65.690  1.00  0.00     0.158 C  
HETATM   10  N   UNL     1     -11.838  12.339  68.443  1.00  0.00    -0.327 NA 
HETATM   11  C   UNL     1     -10.787  14.589  66.888  1.00  0.00    -0.305 C  
HETATM   12  H   UNL     1     -12.809  12.378  68.135  1.00  0.00     0.000 HD 
HETATM   13  O   UNL     1     -11.788  14.938  66.257  1.00  0.00    -0.264 OA 
HETATM   14  N   UNL     1      -9.205  15.397  66.671  1.00  0.00    -0.253 N  
HETATM   15  C   UNL     1     -11.297  11.518  69.324  1.00  0.00    -0.288 A  
HETATM   16  C   UNL     1      -7.717  14.958  67.520  1.00  0.00    -0.192 C  
HETATM   17 CL   UNL     1     -12.178  10.388  70.251  1.00  0.00    -0.357 Cl 
HETATM   18  N   UNL     1      -9.935  11.574  69.559  1.00  0.00     0.337 NA 
ENDROOT
BRANCH   4  19
HETATM   19  C   UNL     2      -9.018  13.436  66.879  1.00  0.00    -0.209 C  
BRANCH  19  20
HETATM   20  C   UNL     2      -8.722  11.723  66.661  1.00  0.00    -0.186 C  
BRANCH  20  21
HETATM   21  O   UNL     2      -8.069  11.464  65.410  1.00  0.00     0.208 OA 
BRANCH  21  22
HETATM   22  C   UNL     2      -8.875  10.591  64.558  1.00  0.00    -0.200 C  
BRANCH  22  23
HETATM   23  C   UNL     2      -8.952   9.175  65.146  1.00  0.00    -0.238 A  
HETATM   24  C   UNL     2      -8.025   8.203  64.714  1.00  0.00    -0.147 A  
HETATM   25  C   UNL     2      -9.739   8.868  66.268  1.00  0.00    -0.345 A  
HETATM   26  C   UNL     2      -7.834   7.017  65.435  1.00  0.00    -0.119 A  
HETATM   27  C   UNL     2      -8.587   6.765  66.578  1.00  0.00    -0.128 A  
HETATM   28  C   UNL     2      -9.559   7.676  66.976  1.00  0.00    -0.228 A  
ENDBRANCH  22  23
BRANCH  22  29
HETATM   29  C   UNL     2     -10.181  11.328  64.301  1.00  0.00    -0.383 A  
HETATM   30  C   UNL     2     -12.489  12.925  64.024  1.00  0.00    -0.407 A  
HETATM   31  C   UNL     2     -12.472  11.878  64.939  1.00  0.00     0.183 A  
HETATM   32  C   UNL     2     -10.233  12.365  63.353  1.00  0.00    -0.252 A  
HETATM   33  C   UNL     2     -11.322  11.102  65.088  1.00  0.00     0.117 A  
HETATM   34  C   UNL     2     -11.373  13.167  63.229  1.00  0.00     0.088 A  
ENDBRANCH  22  29
ENDBRANCH  21  22
ENDBRANCH  20  21
ENDBRANCH  19  20
ENDBRANCH   4  19
TORSDOF 6
ENDMDL
MODEL      204
REMARK 921   NORMALIZED FREE ENERGY PREDICTED BY IDOCK:   -1.11 KCAL/MOL
REMARK 922        TOTAL FREE ENERGY PREDICTED BY IDOCK:    0.11 KCAL/MOL
REMARK 923 INTER-LIGAND FREE ENERGY PREDICTED BY IDOCK:   -3.08 KCAL/MOL
REMARK 924 INTRA-LIGAND FREE ENERGY PREDICTED BY IDOCK:    3.19 KCAL/MOL
REMARK 927      BINDING AFFINITY PREDICTED BY RF-SCORE:    0.00 PKD
ROOT
HETATM    1  C   UNL     1     -10.837   5.306  69.349  1.00  0.00     0.143 C  
HETATM    2  N   UNL     1      -9.878   6.286  68.828  1.00  0.00    -0.134 N  
HETATM    3  C   UNL     2     -10.843   7.172  66.990  1.00  0.00    -0.312 C  
HETATM    4  N   UNL     2      -9.445   7.818  67.468  1.00  0.00    -0.138 NA 
HETATM    5  C   UNL     1      -8.624   5.913  67.605  1.00  0.00    -0.102 A  
HETATM    6  O   UNL     1     -11.120   8.335  70.085  1.00  0.00    -0.252 OA 
HETATM    7  C   UNL     1      -7.539   7.052  67.089  1.00  0.00    -0.107 A  
HETATM    8  C   UNL     2      -9.551   9.077  66.453  1.00  0.00    -0.244 C  
HETATM    9  C   UNL     1      -8.947  10.521  69.432  1.00  0.00    -0.093 C  
HETATM   10  N   UNL     1      -6.697   6.461  66.200  1.00  0.00    -0.051 NA 
HETATM   11  C   UNL     1      -7.597   8.823  67.684  1.00  0.00    -0.097 C  
HETATM   12  H   UNL     1      -5.890   6.872  65.731  1.00  0.00     0.000 HD 
HETATM   13  O   UNL     1      -6.736   9.648  67.372  1.00  0.00    -0.070 OA 
HETATM   14  N   UNL     1      -8.922   9.221  68.820  1.00  0.00    -0.132 N  
HETATM   15  C   UNL     1      -7.165   5.233  66.086  1.00  0.00    -0.073 A  
HETATM   16  C   UNL     1     -10.189   8.099  69.332  1.00  0.00    -0.211 C  
HETATM   17 CL   UNL     1      -6.558   4.072  64.992  1.00  0.00    -0.046 Cl 
HETATM   18  N   UNL     1      -8.237   4.839  66.866  1.00  0.00    -0.107 NA 
ENDROOT
BRANCH   4  19
HETATM   19  C   UNL     2      -8.225   7.387  69.100  1.00  0.00    -0.121 C  
BRANCH  19  20
HETATM   20  C   UNL     2      -6.499   7.451  69.387  1.00  0.00    -0.036 C  
BRANCH  20  21
HETATM   21  O   UNL     2      -5.938   6.133  69.476  1.00  0.00    -0.023 OA 
BRANCH  21  22
HETATM   22  C   UNL     2      -5.784   5.711  70.867  1.00  0.00    -0.016 C  
BRANCH  22  23
HETATM   23  C   UNL     2      -6.488   6.693  71.816  1.00  0.00    -0.049 A  
HETATM   24  C   UNL     2      -7.851   6.491  72.121  1.00  0.00    -0.098 A  
HETATM   25  C   UNL     2      -5.783   7.633  72.584  1.00  0.00    -0.040 A  
HETATM   26  C   UNL     2      -8.449   7.138  73.209  1.00  0.00    -0.146 A  
HETATM   27  C   UNL     2      -7.711   8.022  73.990  1.00  0.00    -0.245 A  
HETATM   28  C   UNL     2      -6.388   8.291  73.659  1.00  0.00    -0.128 A  
ENDBRANCH  22  23
BRANCH  22  29
HETATM   29  C   UNL     2      -6.197   4.248  70.920  1.00  0.00    -0.015 A  
HETATM   30  C   UNL     2      -7.216   1.633  71.195  1.00  0.00    -0.032 A  
HETATM   31  C   UNL     2      -6.218   2.086  72.052  1.00  0.00    -0.014 A  
HETATM   32  C   UNL     2      -7.176   3.758  70.039  1.00  0.00    -0.042 A  
HETATM   33  C   UNL     2      -5.729   3.387  71.925  1.00  0.00    -0.008 A  
HETATM   34  C   UNL     2      -7.693   2.467  70.187  1.00  0.00    -0.045 A  
ENDBRANCH  22  29
ENDBRANCH  21  22
ENDBRANCH  20  21
ENDBRANCH  19  20
ENDBRANCH   4  19
TORSDOF 6
ENDMDL
MODEL      205
REMARK 921   NORMALIZED FREE ENERGY PREDICTED BY IDOCK:   -0.97 KCAL/MOL
REMARK 922        TOTAL FREE ENERGY PREDICTED BY IDOCK:    0.31 KCAL/MOL
REMARK 923 INTER-LIGAND FREE ENERGY PREDICTED BY IDOCK:   -5.34 KCAL/MOL
REMARK 924 INTRA-LIGAND FREE ENERGY PREDICTED BY IDOCK:    5.64 KCAL/MOL
REMARK 927      BINDING AFFINITY PREDICTED BY RF-SCORE:    0.00 PKD
ROOT
HETATM    1  C   UNL     1      -6.531  14.437  70.108  1.00  0.00    -0.134 C  
HETATM    2  N   UNL     1      -6.915  15.464  69.132  1.00  0.00    -0.141 N  
HETATM    3  C   UNL     2      -5.168  15.645  67.714  1.00  0.00    -0.109 C  
HETATM    4  N   UNL     2      -6.492  16.494  67.359  1.00  0.00    -0.150 NA 
HETATM    5  C   UNL     1      -6.546  17.208  69.311  1.00  0.00    -0.234 A  
HETATM    6  O   UNL     1      -7.765  13.612  67.352  1.00  0.00    -0.170 OA 
HETATM    7  C   UNL     1      -7.045  18.326  68.196  1.00  0.00    -0.236 A  
HETATM    8  C   UNL     2      -5.971  16.901  65.880  1.00  0.00     0.930 C  
HETATM    9  C   UNL     1      -9.040  15.644  65.310  1.00  0.00     0.964 C  
HETATM   10  N   UNL     1      -6.654  19.555  68.626  1.00  0.00    -0.270 NA 
HETATM   11  C   UNL     1      -7.956  17.839  66.639  1.00  0.00    -0.251 C  
HETATM   12  H   UNL     1      -6.841  20.459  68.196  1.00  0.00     0.000 HD 
HETATM   13  O   UNL     1      -8.409  18.676  65.855  1.00  0.00    -0.494 OA 
HETATM   14  N   UNL     1      -8.223  16.085  66.407  1.00  0.00    -0.297 N  
HETATM   15  C   UNL     1      -5.975  19.305  69.730  1.00  0.00    -0.263 A  
HETATM   16  C   UNL     1      -7.624  14.817  67.485  1.00  0.00    -0.193 C  
HETATM   17 CL   UNL     1      -5.139  20.488  70.632  1.00  0.00    -0.287 Cl 
HETATM   18  N   UNL     1      -5.890  18.005  70.196  1.00  0.00    -0.220 NA 
ENDROOT
BRANCH   4  19
HETATM   19  C   UNL     2      -8.339  16.611  68.314  1.00  0.00    -0.198 C  
BRANCH  19  20
HETATM   20  C   UNL     2      -9.154  15.642  69.524  1.00  0.00    -0.240 C  
BRANCH  20  21
HETATM   21  O   UNL     2     -10.352  15.053  68.997  1.00  0.00    -0.228 OA 
BRANCH  21  22
HETATM   22  C   UNL     2     -11.502  15.940  69.167  1.00  0.00    -0.377 C  
BRANCH  22  23
HETATM   23  C   UNL     2     -12.157  15.726  70.540  1.00  0.00    -0.407 A  
HETATM   24  C   UNL     2     -13.371  15.011  70.615  1.00  0.00    -0.279 A  
HETATM   25  C   UNL     2     -11.485  15.993  71.743  1.00  0.00    -0.425 A  
HETATM   26  C   UNL     2     -13.837  14.507  71.836  1.00  0.00    -0.545 A  
HETATM   27  C   UNL     2     -13.120  14.737  73.006  1.00  0.00    -0.614 A  
HETATM   28  C   UNL     2     -11.961  15.504  72.964  1.00  0.00    -0.571 A  
ENDBRANCH  22  23
BRANCH  22  29
HETATM   29  C   UNL     2     -11.020  17.340  68.818  1.00  0.00    -0.040 A  
HETATM   30  C   UNL     2     -10.404  20.042  68.299  1.00  0.00    -0.494 A  
HETATM   31  C   UNL     2     -10.964  19.251  67.301  1.00  0.00    -0.443 A  
HETATM   32  C   UNL     2     -10.416  18.144  69.800  1.00  0.00     0.834 A  
HETATM   33  C   UNL     2     -11.285  17.919  67.567  1.00  0.00     0.308 A  
HETATM   34  C   UNL     2     -10.126  19.490  69.546  1.00  0.00    -0.062 A  
ENDBRANCH  22  29
ENDBRANCH  21  22
ENDBRANCH  20  21
ENDBRANCH  19  20
ENDBRANCH   4  19
TORSDOF 6
ENDMDL
MODEL      206
REMARK 921   NORMALIZED FREE ENERGY PREDICTED BY IDOCK:   -0.57 KCAL/MOL
REMARK 922        TOTAL FREE ENERGY PREDICTED BY IDOCK:    0.85 KCAL/MOL
REMARK 923 INTER-LIGAND FREE ENERGY PREDICTED BY IDOCK:   -3.51 KCAL/MOL
REMARK 924 INTRA-LIGAND FREE ENERGY PREDICTED BY IDOCK:    4.36 KCAL/MOL
REMARK 927      BINDING AFFINITY PREDICTED BY RF-SCORE:    0.00 PKD
ROOT
HETATM    1  C   UNL     1     -10.179  16.364  69.550  1.00  0.00    -0.244 C  
HETATM    2  N   UNL     1      -9.199  16.700  68.511  1.00  0.00    -0.226 N  
HETATM    3  C   UNL     2      -8.022  18.447  69.323  1.00  0.00     0.154 C  
HETATM    4  N   UNL     2      -7.529  17.818  67.922  1.00  0.00    -0.206 NA 
HETATM    5  C   UNL     1      -9.482  17.898  67.211  1.00  0.00    -0.263 A  
HETATM    6  O   UNL     1      -7.263  15.241  69.714  1.00  0.00    -0.192 OA 
HETATM    7  C   UNL     1      -8.352  18.202  66.040  1.00  0.00    -0.029 A  
HETATM    8  C   UNL     2      -6.144  18.658  67.903  1.00  0.00    -0.191 C  
HETATM    9  C   UNL     1      -5.144  15.485  67.394  1.00  0.00     0.149 C  
HETATM   10  N   UNL     1      -8.870  19.119  65.181  1.00  0.00     1.118 NA 
HETATM   11  C   UNL     1      -6.675  17.377  66.039  1.00  0.00    -0.164 C  
HETATM   12  H   UNL     1      -8.450  19.488  64.328  1.00  0.00     0.000 HD 
HETATM   13  O   UNL     1      -5.868  17.532  65.119  1.00  0.00     0.180 OA 
HETATM   14  N   UNL     1      -6.351  16.265  67.403  1.00  0.00    -0.160 N  
HETATM   15  C   UNL     1     -10.042  19.421  65.706  1.00  0.00    -0.194 A  
HETATM   16  C   UNL     1      -7.453  15.972  68.755  1.00  0.00    -0.176 C  
HETATM   17 CL   UNL     1     -11.083  20.630  65.100  1.00  0.00     0.616 Cl 
HETATM   18  N   UNL     1     -10.471  18.756  66.841  1.00  0.00    -0.397 NA 
ENDROOT
BRANCH   4  19
HETATM   19  C   UNL     2      -8.245  16.201  66.821  1.00  0.00    -0.269 C  
BRANCH  19  20
HETATM   20  C   UNL     2      -8.094  14.462  66.965  1.00  0.00    -0.065 C  
BRANCH  20  21
HETATM   21  O   UNL     2      -9.315  13.872  67.434  1.00  0.00    -0.212 OA 
BRANCH  21  22
HETATM   22  C   UNL     2      -9.442  12.484  66.993  1.00  0.00    -0.217 C  
BRANCH  22  23
HETATM   23  C   UNL     2     -10.389  12.379  65.789  1.00  0.00    -0.289 A  
HETATM   24  C   UNL     2     -11.769  12.609  65.980  1.00  0.00    -0.470 A  
HETATM   25  C   UNL     2      -9.920  12.308  64.467  1.00  0.00    -0.217 A  
HETATM   26  C   UNL     2     -12.617  12.850  64.893  1.00  0.00    -0.525 A  
HETATM   27  C   UNL     2     -12.114  12.831  63.596  1.00  0.00    -0.624 A  
HETATM   28  C   UNL     2     -10.773  12.531  63.382  1.00  0.00    -0.321 A  
ENDBRANCH  22  23
BRANCH  22  29
HETATM   29  C   UNL     2      -8.026  11.953  66.834  1.00  0.00    -0.132 A  
HETATM   30  C   UNL     2      -5.519  10.680  66.624  1.00  0.00    -0.060 A  
HETATM   31  C   UNL     2      -5.860  11.358  67.789  1.00  0.00    -0.046 A  
HETATM   32  C   UNL     2      -7.645  11.298  65.650  1.00  0.00     0.336 A  
HETATM   33  C   UNL     2      -7.109  11.971  67.898  1.00  0.00    -0.097 A  
HETATM   34  C   UNL     2      -6.408  10.652  65.554  1.00  0.00    -0.081 A  
ENDBRANCH  22  29
ENDBRANCH  21  22
ENDBRANCH  20  21
ENDBRANCH  19  20
ENDBRANCH   4  19
TORSDOF 6
ENDMDL
MODEL      207
REMARK 921   NORMALIZED FREE ENERGY PREDICTED BY IDOCK:   -0.20 KCAL/MOL
REMARK 922        TOTAL FREE ENERGY PREDICTED BY IDOCK:    1.35 KCAL/MOL
REMARK 923 INTER-LIGAND FREE ENERGY PREDICTED BY IDOCK:   -1.79 KCAL/MOL
REMARK 924 INTRA-LIGAND FREE ENERGY PREDICTED BY IDOCK:    3.14 KCAL/MOL
REMARK 927      BINDING AFFINITY PREDICTED BY RF-SCORE:    0.00 PKD
ROOT
HETATM    1  C   UNL     1     -10.746  13.050  66.385  1.00  0.00    -0.282 C  
HETATM    2  N   UNL     1      -9.868  11.874  66.419  1.00  0.00    -0.209 N  
HETATM    3  C   UNL     2     -11.184  10.112  65.908  1.00  0.00     1.022 C  
HETATM    4  N   UNL     2      -9.604   9.828  66.063  1.00  0.00    -0.215 NA 
HETATM    5  C   UNL     1      -9.606  10.857  67.870  1.00  0.00    -0.166 A  
HETATM    6  O   UNL     1      -9.473  11.955  63.744  1.00  0.00    -0.139 OA 
HETATM    7  C   UNL     1      -8.567   9.568  67.858  1.00  0.00    -0.119 A  
HETATM    8  C   UNL     2      -9.701   8.325  65.466  1.00  0.00     0.571 C  
HETATM    9  C   UNL     1      -7.244   9.731  63.648  1.00  0.00    -0.119 C  
HETATM   10  N   UNL     1      -8.551   9.027  69.105  1.00  0.00    -0.131 NA 
HETATM   11  C   UNL     1      -7.659   9.037  66.314  1.00  0.00    -0.092 C  
HETATM   12  H   UNL     1      -7.985   8.251  69.445  1.00  0.00     0.000 HD 
HETATM   13  O   UNL     1      -6.816   8.137  66.325  1.00  0.00    -0.057 OA 
HETATM   14  N   UNL     1      -8.010   9.985  64.837  1.00  0.00    -0.136 N  
HETATM   15  C   UNL     1      -9.440   9.738  69.772  1.00  0.00    -0.228 A  
HETATM   16  C   UNL     1      -9.189  11.300  64.733  1.00  0.00    -0.089 C  
HETATM   17 CL   UNL     1      -9.925   9.410  71.375  1.00  0.00    -0.315 Cl 
HETATM   18  N   UNL     1     -10.062  10.806  69.150  1.00  0.00    -0.217 NA 
ENDROOT
BRANCH   4  19
HETATM   19  C   UNL     2      -8.015  11.113  66.467  1.00  0.00    -0.158 C  
BRANCH  19  20
HETATM   20  C   UNL     2      -7.241  11.677  67.933  1.00  0.00    -0.083 C  
BRANCH  20  21
HETATM   21  O   UNL     2      -5.815  11.727  67.781  1.00  0.00    -0.047 OA 
BRANCH  21  22
HETATM   22  C   UNL     2      -5.141  11.791  69.077  1.00  0.00    -0.047 C  
BRANCH  22  23
HETATM   23  C   UNL     2      -5.442  13.121  69.782  1.00  0.00    -0.100 A  
HETATM   24  C   UNL     2      -5.447  13.163  71.193  1.00  0.00    -0.184 A  
HETATM   25  C   UNL     2      -5.470  14.347  69.097  1.00  0.00    -0.080 A  
HETATM   26  C   UNL     2      -5.388  14.382  71.879  1.00  0.00    -0.168 A  
HETATM   27  C   UNL     2      -5.358  15.581  71.173  1.00  0.00    -0.044 A  
HETATM   28  C   UNL     2      -5.429  15.564  69.785  1.00  0.00    -0.112 A  
ENDBRANCH  22  23
BRANCH  22  29
HETATM   29  C   UNL     2      -5.490  10.503  69.806  1.00  0.00    -0.040 A  
HETATM   30  C   UNL     2      -5.856   8.149  71.315  1.00  0.00    -0.034 A  
HETATM   31  C   UNL     2      -5.333   8.077  70.028  1.00  0.00    -0.023 A  
HETATM   32  C   UNL     2      -6.055  10.550  71.092  1.00  0.00     0.178 A  
HETATM   33  C   UNL     2      -5.136   9.246  69.291  1.00  0.00    -0.036 A  
HETATM   34  C   UNL     2      -6.220   9.383  71.846  1.00  0.00     0.105 A  
ENDBRANCH  22  29
ENDBRANCH  21  22
ENDBRANCH  20  21
ENDBRANCH  19  20
ENDBRANCH   4  19
TORSDOF 6
ENDMDL
MODEL      208
REMARK 921   NORMALIZED FREE ENERGY PREDICTED BY IDOCK:    0.09 KCAL/MOL
REMARK 922        TOTAL FREE ENERGY PREDICTED BY IDOCK:    1.74 KCAL/MOL
REMARK 923 INTER-LIGAND FREE ENERGY PREDICTED BY IDOCK:   -5.45 KCAL/MOL
REMARK 924 INTRA-LIGAND FREE ENERGY PREDICTED BY IDOCK:    7.18 KCAL/MOL
REMARK 927      BINDING AFFINITY PREDICTED BY RF-SCORE:    0.00 PKD
ROOT
HETATM    1  C   UNL     1      -7.141  20.694  69.863  1.00  0.00     0.993 C  
HETATM    2  N   UNL     1      -7.295  19.552  68.955  1.00  0.00    -0.365 N  
HETATM    3  C   UNL     2      -5.912  19.960  67.218  1.00  0.00    -0.179 C  
HETATM    4  N   UNL     2      -6.660  18.531  67.241  1.00  0.00    -0.197 NA 
HETATM    5  C   UNL     1      -8.467  19.494  67.603  1.00  0.00    -0.310 A  
HETATM    6  O   UNL     1      -5.126  18.303  69.982  1.00  0.00    -0.184 OA 
HETATM    7  C   UNL     1      -8.625  18.157  66.638  1.00  0.00    -0.267 A  
HETATM    8  C   UNL     2      -5.775  17.922  66.028  1.00  0.00    -0.209 C  
HETATM    9  C   UNL     1      -5.517  15.585  68.435  1.00  0.00    -0.105 C  
HETATM   10  N   UNL     1      -9.614  18.400  65.738  1.00  0.00    -0.402 NA 
HETATM   11  C   UNL     1      -7.540  16.650  66.843  1.00  0.00    -0.227 C  
HETATM   12  H   UNL     1      -9.991  17.768  65.033  1.00  0.00     0.000 HD 
HETATM   13  O   UNL     1      -7.717  15.620  66.188  1.00  0.00     0.273 OA 
HETATM   14  N   UNL     1      -6.293  16.754  68.122  1.00  0.00    -0.136 N  
HETATM   15  C   UNL     1      -9.975  19.645  65.989  1.00  0.00    -0.422 A  
HETATM   16  C   UNL     1      -5.978  18.182  69.117  1.00  0.00    -0.228 C  
HETATM   17 CL   UNL     1     -11.110  20.521  65.064  1.00  0.00     0.476 Cl 
HETATM   18  N   UNL     1      -9.390  20.323  67.043  1.00  0.00    -0.387 NA 
ENDROOT
BRANCH   4  19
HETATM   19  C   UNL     2      -7.963  17.691  68.631  1.00  0.00    -0.275 C  
BRANCH  19  20
HETATM   20  C   UNL     2      -9.157  16.410  68.570  1.00  0.00    -0.223 C  
BRANCH  20  21
HETATM   21  O   UNL     2      -8.591  15.154  68.970  1.00  0.00    -0.193 OA 
BRANCH  21  22
HETATM   22  C   UNL     2      -9.409  14.031  68.515  1.00  0.00    -0.182 C  
BRANCH  22  23
HETATM   23  C   UNL     2     -10.290  14.444  67.327  1.00  0.00    -0.260 A  
HETATM   24  C   UNL     2      -9.681  14.701  66.080  1.00  0.00    -0.340 A  
HETATM   25  C   UNL     2     -11.690  14.340  67.356  1.00  0.00    -0.422 A  
HETATM   26  C   UNL     2     -10.440  14.757  64.904  1.00  0.00    -0.398 A  
HETATM   27  C   UNL     2     -11.821  14.593  64.956  1.00  0.00    -0.377 A  
HETATM   28  C   UNL     2     -12.448  14.414  66.184  1.00  0.00    -0.276 A  
ENDBRANCH  22  23
BRANCH  22  29
HETATM   29  C   UNL     2      -8.460  12.858  68.324  1.00  0.00    -0.161 A  
HETATM   30  C   UNL     2      -6.856  10.626  67.693  1.00  0.00    -0.074 A  
HETATM   31  C   UNL     2      -7.945  10.482  68.546  1.00  0.00    -0.118 A  
HETATM   32  C   UNL     2      -7.330  12.991  67.497  1.00  0.00    -0.154 A  
HETATM   33  C   UNL     2      -8.748  11.585  68.841  1.00  0.00     0.031 A  
HETATM   34  C   UNL     2      -6.546  11.879  67.172  1.00  0.00    -0.148 A  
ENDBRANCH  22  29
ENDBRANCH  21  22
ENDBRANCH  20  21
ENDBRANCH  19  20
ENDBRANCH   4  19
TORSDOF 6
ENDMDL
MODEL      209
REMARK 921   NORMALIZED FREE ENERGY PREDICTED BY IDOCK:    0.59 KCAL/MOL
REMARK 922        TOTAL FREE ENERGY PREDICTED BY IDOCK:    2.41 KCAL/MOL
REMARK 923 INTER-LIGAND FREE ENERGY PREDICTED BY IDOCK:   -0.95 KCAL/MOL
REMARK 924 INTRA-LIGAND FREE ENERGY PREDICTED BY IDOCK:    3.36 KCAL/MOL
REMARK 927      BINDING AFFINITY PREDICTED BY RF-SCORE:    0.00 PKD
ROOT
HETATM    1  C   UNL     1     -11.949  13.014  66.669  1.00  0.00    -0.387 C  
HETATM    2  N   UNL     1     -10.808  12.113  66.469  1.00  0.00    -0.258 N  
HETATM    3  C   UNL     2     -11.698  10.082  66.045  1.00  0.00     3.175 C  
HETATM    4  N   UNL     2     -10.096  10.222  65.919  1.00  0.00    -0.256 NA 
HETATM    5  C   UNL     1     -10.042  11.158  67.776  1.00  0.00    -0.178 A  
HETATM    6  O   UNL     1     -10.928  12.380  63.779  1.00  0.00    -0.377 OA 
HETATM    7  C   UNL     1      -8.727  10.191  67.496  1.00  0.00    -0.125 A  
HETATM    8  C   UNL     2      -9.910   8.767  65.233  1.00  0.00     0.667 C  
HETATM    9  C   UNL     1      -8.257  10.830  63.152  1.00  0.00    -0.013 C  
HETATM   10  N   UNL     1      -8.353   9.634  68.679  1.00  0.00    -0.112 NA 
HETATM   11  C   UNL     1      -8.002   9.968  65.788  1.00  0.00    -0.126 C  
HETATM   12  H   UNL     1      -7.555   9.027  68.862  1.00  0.00     0.000 HD 
HETATM   13  O   UNL     1      -6.969   9.323  65.593  1.00  0.00    -0.079 OA 
HETATM   14  N   UNL     1      -8.839  10.835  64.466  1.00  0.00    -0.167 N  
HETATM   15  C   UNL     1      -9.261  10.064  69.534  1.00  0.00    -0.221 A  
HETATM   16  C   UNL     1     -10.314  11.792  64.656  1.00  0.00    -0.290 C  
HETATM   17 CL   UNL     1      -9.354   9.569  71.165  1.00  0.00    -0.138 Cl 
HETATM   18  N   UNL     1     -10.235  10.947  69.106  1.00  0.00    -0.214 NA 
ENDROOT
BRANCH   4  19
HETATM   19  C   UNL     2      -8.844  11.870  66.156  1.00  0.00    -0.063 C  
BRANCH  19  20
HETATM   20  C   UNL     2      -7.750  12.403  67.416  1.00  0.00    -0.170 C  
BRANCH  20  21
HETATM   21  O   UNL     2      -6.490  12.816  66.869  1.00  0.00    -0.112 OA 
BRANCH  21  22
HETATM   22  C   UNL     2      -5.669  13.495  67.871  1.00  0.00    -0.125 C  
BRANCH  22  23
HETATM   23  C   UNL     2      -6.274  14.857  68.239  1.00  0.00    -0.125 A  
HETATM   24  C   UNL     2      -5.737  16.025  67.657  1.00  0.00    -0.169 A  
HETATM   25  C   UNL     2      -7.489  14.978  68.934  1.00  0.00    -0.143 A  
HETATM   26  C   UNL     2      -6.438  17.236  67.692  1.00  0.00    -0.166 A  
HETATM   27  C   UNL     2      -7.668  17.314  68.338  1.00  0.00    -0.247 A  
HETATM   28  C   UNL     2      -8.178  16.193  68.983  1.00  0.00    -0.244 A  
ENDBRANCH  22  23
BRANCH  22  29
HETATM   29  C   UNL     2      -5.441  12.490  68.990  1.00  0.00    -0.067 A  
HETATM   30  C   UNL     2      -5.330  10.548  71.032  1.00  0.00    -0.093 A  
HETATM   31  C   UNL     2      -5.523  11.887  71.354  1.00  0.00     0.115 A  
HETATM   32  C   UNL     2      -5.205  11.137  68.688  1.00  0.00    -0.040 A  
HETATM   33  C   UNL     2      -5.596  12.843  70.340  1.00  0.00    -0.162 A  
HETATM   34  C   UNL     2      -5.168  10.173  69.701  1.00  0.00    -0.038 A  
ENDBRANCH  22  29
ENDBRANCH  21  22
ENDBRANCH  20  21
ENDBRANCH  19  20
ENDBRANCH   4  19
TORSDOF 6
ENDMDL
MODEL      210
REMARK 921   NORMALIZED FREE ENERGY PREDICTED BY IDOCK:    0.77 KCAL/MOL
REMARK 922        TOTAL FREE ENERGY PREDICTED BY IDOCK:    2.65 KCAL/MOL
REMARK 923 INTER-LIGAND FREE ENERGY PREDICTED BY IDOCK:   -1.85 KCAL/MOL
REMARK 924 INTRA-LIGAND FREE ENERGY PREDICTED BY IDOCK:    4.51 KCAL/MOL
REMARK 927      BINDING AFFINITY PREDICTED BY RF-SCORE:    0.00 PKD
ROOT
HETATM    1  C   UNL     1     -10.031  15.974  70.291  1.00  0.00     0.358 C  
HETATM    2  N   UNL     1      -8.886  15.865  69.381  1.00  0.00    -0.245 N  
HETATM    3  C   UNL     2      -7.081  15.550  70.701  1.00  0.00     0.933 C  
HETATM    4  N   UNL     2      -6.850  15.458  69.107  1.00  0.00    -0.132 NA 
HETATM    5  C   UNL     1      -7.876  17.251  68.866  1.00  0.00    -0.206 A  
HETATM    6  O   UNL     1      -8.984  13.161  69.405  1.00  0.00     0.772 OA 
HETATM    7  C   UNL     1      -6.622  17.071  67.799  1.00  0.00    -0.145 A  
HETATM    8  C   UNL     2      -5.345  14.874  69.246  1.00  0.00    -0.090 C  
HETATM    9  C   UNL     1      -6.835  12.709  67.145  1.00  0.00    -0.020 C  
HETATM   10  N   UNL     1      -6.079  18.297  67.574  1.00  0.00    -0.168 NA 
HETATM   11  C   UNL     1      -6.124  15.402  67.122  1.00  0.00     0.367 C  
HETATM   12  H   UNL     1      -5.323  18.542  66.937  1.00  0.00     0.000 HD 
HETATM   13  O   UNL     1      -5.252  15.278  66.259  1.00  0.00     1.914 OA 
HETATM   14  N   UNL     1      -7.062  14.004  67.726  1.00  0.00    -0.158 N  
HETATM   15  C   UNL     1      -6.760  19.098  68.373  1.00  0.00    -0.260 A  
HETATM   16  C   UNL     1      -8.337  14.090  68.950  1.00  0.00     0.032 C  
HETATM   17 CL   UNL     1      -6.413  20.754  68.595  1.00  0.00    -0.260 Cl 
HETATM   18  N   UNL     1      -7.807  18.586  69.118  1.00  0.00    -0.111 NA 
ENDROOT
BRANCH   4  19
HETATM   19  C   UNL     2      -8.187  15.622  67.519  1.00  0.00    -0.166 C  
BRANCH  19  20
HETATM   20  C   UNL     2      -9.273  14.508  66.715  1.00  0.00    -0.267 C  
BRANCH  20  21
HETATM   21  O   UNL     2     -10.550  15.114  66.469  1.00  0.00    -0.291 OA 
BRANCH  21  22
HETATM   22  C   UNL     2     -11.577  14.108  66.202  1.00  0.00    -0.370 C  
BRANCH  22  23
HETATM   23  C   UNL     2     -11.243  13.313  64.931  1.00  0.00    -0.338 A  
HETATM   24  C   UNL     2     -10.034  12.587  64.875  1.00  0.00    -0.190 A  
HETATM   25  C   UNL     2     -12.191  13.074  63.923  1.00  0.00    -0.511 A  
HETATM   26  C   UNL     2      -9.830  11.600  63.904  1.00  0.00    -0.306 A  
HETATM   27  C   UNL     2     -10.811  11.343  62.951  1.00  0.00     0.139 A  
HETATM   28  C   UNL     2     -11.977  12.100  62.943  1.00  0.00     0.167 A  
ENDBRANCH  22  23
BRANCH  22  29
HETATM   29  C   UNL     2     -11.766  13.335  67.498  1.00  0.00    -0.410 A  
HETATM   30  C   UNL     2     -11.809  11.974  69.967  1.00  0.00    -0.392 A  
HETATM   31  C   UNL     2     -11.572  11.273  68.790  1.00  0.00    -0.383 A  
HETATM   32  C   UNL     2     -12.045  14.018  68.694  1.00  0.00    -0.332 A  
HETATM   33  C   UNL     2     -11.533  11.952  67.572  1.00  0.00    -0.396 A  
HETATM   34  C   UNL     2     -12.049  13.345  69.921  1.00  0.00    -0.389 A  
ENDBRANCH  22  29
ENDBRANCH  21  22
ENDBRANCH  20  21
ENDBRANCH  19  20
ENDBRANCH   4  19
TORSDOF 6
ENDMDL
MODEL      211
REMARK 921   NORMALIZED FREE ENERGY PREDICTED BY IDOCK:    0.90 KCAL/MOL
REMARK 922        TOTAL FREE ENERGY PREDICTED BY IDOCK:    2.83 KCAL/MOL
REMARK 923 INTER-LIGAND FREE ENERGY PREDICTED BY IDOCK:    0.39 KCAL/MOL
REMARK 924 INTRA-LIGAND FREE ENERGY PREDICTED BY IDOCK:    2.45 KCAL/MOL
REMARK 927      BINDING AFFINITY PREDICTED BY RF-SCORE:    0.00 PKD
ROOT
HETATM    1  C   UNL     1      -7.129  14.394  71.244  1.00  0.00     1.773 C  
HETATM    2  N   UNL     1      -7.513  14.315  69.830  1.00  0.00     0.154 N  
HETATM    3  C   UNL     2      -5.711  13.489  68.749  1.00  0.00    -0.082 C  
HETATM    4  N   UNL     2      -7.055  13.693  67.883  1.00  0.00    -0.130 NA 
HETATM    5  C   UNL     1      -7.237  15.623  68.638  1.00  0.00    -0.129 A  
HETATM    6  O   UNL     1      -8.187  11.703  70.046  1.00  0.00     1.310 OA 
HETATM    7  C   UNL     1      -7.735  15.491  67.064  1.00  0.00    -0.210 A  
HETATM    8  C   UNL     2      -6.484  12.890  66.598  1.00  0.00     1.386 C  
HETATM    9  C   UNL     1      -9.458  11.427  67.176  1.00  0.00    -0.175 C  
HETATM   10  N   UNL     1      -7.423  16.650  66.425  1.00  0.00    -0.269 NA 
HETATM   11  C   UNL     1      -8.545  13.943  66.404  1.00  0.00     0.367 C  
HETATM   12  H   UNL     1      -7.633  16.911  65.462  1.00  0.00     0.000 HD 
HETATM   13  O   UNL     1      -8.999  13.877  65.259  1.00  0.00     0.953 OA 
HETATM   14  N   UNL     1      -8.717  12.595  67.568  1.00  0.00    -0.173 N  
HETATM   15  C   UNL     1      -6.788  17.358  67.340  1.00  0.00    -0.160 A  
HETATM   16  C   UNL     1      -8.111  12.606  69.229  1.00  0.00     0.704 C  
HETATM   17 CL   UNL     1      -6.053  18.869  67.045  1.00  0.00    -0.170 Cl 
HETATM   18  N   UNL     1      -6.663  16.856  68.622  1.00  0.00    -0.169 NA 
ENDROOT
BRANCH   4  19
HETATM   19  C   UNL     2      -8.950  14.362  68.434  1.00  0.00    -0.188 C  
BRANCH  19  20
HETATM   20  C   UNL     2     -10.580  13.967  67.929  1.00  0.00    -0.244 C  
BRANCH  20  21
HETATM   21  O   UNL     2     -11.516  14.957  68.380  1.00  0.00    -0.290 OA 
BRANCH  21  22
HETATM   22  C   UNL     2     -10.867  15.964  69.217  1.00  0.00    -0.276 C  
BRANCH  22  23
HETATM   23  C   UNL     2     -10.641  17.263  68.431  1.00  0.00    -0.368 A  
HETATM   24  C   UNL     2      -9.800  18.257  68.977  1.00  0.00    -0.270 A  
HETATM   25  C   UNL     2     -11.031  17.409  67.090  1.00  0.00     0.040 A  
HETATM   26  C   UNL     2      -9.300  19.296  68.182  1.00  0.00    -0.400 A  
HETATM   27  C   UNL     2      -9.657  19.382  66.840  1.00  0.00    -0.419 A  
HETATM   28  C   UNL     2     -10.545  18.457  66.302  1.00  0.00    -0.343 A  
ENDBRANCH  22  23
BRANCH  22  29
HETATM   29  C   UNL     2     -11.678  16.041  70.502  1.00  0.00    -0.350 A  
HETATM   30  C   UNL     2     -13.061  15.890  72.955  1.00  0.00    -0.601 A  
HETATM   31  C   UNL     2     -13.701  15.539  71.771  1.00  0.00    -0.582 A  
HETATM   32  C   UNL     2     -11.061  16.430  71.704  1.00  0.00     0.346 A  
HETATM   33  C   UNL     2     -13.008  15.596  70.561  1.00  0.00    -0.260 A  
HETATM   34  C   UNL     2     -11.744  16.338  72.922  1.00  0.00    -0.387 A  
ENDBRANCH  22  29
ENDBRANCH  21  22
ENDBRANCH  20  21
ENDBRANCH  19  20
ENDBRANCH   4  19
TORSDOF 6
ENDMDL
MODEL      212
REMARK 921   NORMALIZED FREE ENERGY PREDICTED BY IDOCK:    1.25 KCAL/MOL
REMARK 922        TOTAL FREE ENERGY PREDICTED BY IDOCK:    3.31 KCAL/MOL
REMARK 923 INTER-LIGAND FREE ENERGY PREDICTED BY IDOCK:   -0.82 KCAL/MOL
REMARK 924 INTRA-LIGAND FREE ENERGY PREDICTED BY IDOCK:    4.13 KCAL/MOL
REMARK 927      BINDING AFFINITY PREDICTED BY RF-SCORE:    0.00 PKD
ROOT
HETATM    1  C   UNL     1     -11.891  13.017  66.636  1.00  0.00    -0.393 C  
HETATM    2  N   UNL     1     -10.686  12.190  66.505  1.00  0.00    -0.247 N  
HETATM    3  C   UNL     2     -11.372  10.248  65.580  1.00  0.00     1.404 C  
HETATM    4  N   UNL     2      -9.784  10.443  65.784  1.00  0.00    -0.212 NA 
HETATM    5  C   UNL     1     -10.119  11.034  67.750  1.00  0.00    -0.177 A  
HETATM    6  O   UNL     1     -10.327  12.928  63.926  1.00  0.00    -0.409 OA 
HETATM    7  C   UNL     1      -8.725  10.161  67.563  1.00  0.00    -0.125 A  
HETATM    8  C   UNL     2      -9.397   9.137  64.908  1.00  0.00     0.021 C  
HETATM    9  C   UNL     1      -7.507  11.572  63.559  1.00  0.00     1.839 C  
HETATM   10  N   UNL     1      -8.543   9.412  68.682  1.00  0.00    -0.122 NA 
HETATM   11  C   UNL     1      -7.690  10.261  66.010  1.00  0.00    -0.130 C  
HETATM   12  H   UNL     1      -7.760   8.798  68.907  1.00  0.00     0.000 HD 
HETATM   13  O   UNL     1      -6.605   9.684  65.907  1.00  0.00    -0.075 OA 
HETATM   14  N   UNL     1      -8.318  11.331  64.721  1.00  0.00     0.337 N  
HETATM   15  C   UNL     1      -9.614   9.663  69.411  1.00  0.00    -0.191 A  
HETATM   16  C   UNL     1      -9.853  12.208  64.789  1.00  0.00    -0.133 C  
HETATM   17 CL   UNL     1      -9.975   8.884  70.886  1.00  0.00    -0.276 Cl 
HETATM   18  N   UNL     1     -10.540  10.587  68.963  1.00  0.00    -0.207 NA 
ENDROOT
BRANCH   4  19
HETATM   19  C   UNL     2      -8.687  12.048  66.531  1.00  0.00    -0.138 C  
BRANCH  19  20
HETATM   20  C   UNL     2      -9.066  13.417  67.556  1.00  0.00    -0.215 C  
BRANCH  20  21
HETATM   21  O   UNL     2      -8.250  13.424  68.736  1.00  0.00    -0.069 OA 
BRANCH  21  22
HETATM   22  C   UNL     2      -8.273  14.730  69.394  1.00  0.00    -0.012 C  
BRANCH  22  23
HETATM   23  C   UNL     2      -7.259  15.684  68.746  1.00  0.00    -0.133 A  
HETATM   24  C   UNL     2      -7.691  16.542  67.711  1.00  0.00    -0.165 A  
HETATM   25  C   UNL     2      -5.989  15.919  69.296  1.00  0.00    -0.128 A  
HETATM   26  C   UNL     2      -6.918  17.641  67.316  1.00  0.00    -0.189 A  
HETATM   27  C   UNL     2      -5.688  17.883  67.920  1.00  0.00    -0.156 A  
HETATM   28  C   UNL     2      -5.211  17.006  68.887  1.00  0.00    -0.137 A  
ENDBRANCH  22  23
BRANCH  22  29
HETATM   29  C   UNL     2      -9.731  15.162  69.439  1.00  0.00    -0.206 A  
HETATM   30  C   UNL     2     -12.456  15.852  69.219  1.00  0.00     0.263 A  
HETATM   31  C   UNL     2     -11.474  16.809  68.986  1.00  0.00     0.157 A  
HETATM   32  C   UNL     2     -10.738  14.220  69.711  1.00  0.00     0.035 A  
HETATM   33  C   UNL     2     -10.126  16.459  69.076  1.00  0.00    -0.262 A  
HETATM   34  C   UNL     2     -12.090  14.560  69.585  1.00  0.00    -0.369 A  
ENDBRANCH  22  29
ENDBRANCH  21  22
ENDBRANCH  20  21
ENDBRANCH  19  20
ENDBRANCH   4  19
TORSDOF 6
ENDMDL
MODEL      213
REMARK 921   NORMALIZED FREE ENERGY PREDICTED BY IDOCK:    1.43 KCAL/MOL
REMARK 922        TOTAL FREE ENERGY PREDICTED BY IDOCK:    3.55 KCAL/MOL
REMARK 923 INTER-LIGAND FREE ENERGY PREDICTED BY IDOCK:   -1.64 KCAL/MOL
REMARK 924 INTRA-LIGAND FREE ENERGY PREDICTED BY IDOCK:    5.19 KCAL/MOL
REMARK 927      BINDING AFFINITY PREDICTED BY RF-SCORE:    0.00 PKD
ROOT
HETATM    1  C   UNL     1     -10.213  16.025  70.398  1.00  0.00     0.264 C  
HETATM    2  N   UNL     1      -9.030  15.948  69.534  1.00  0.00    -0.211 N  
HETATM    3  C   UNL     2      -7.352  15.218  70.856  1.00  0.00     1.489 C  
HETATM    4  N   UNL     2      -7.032  15.374  69.283  1.00  0.00    -0.154 NA 
HETATM    5  C   UNL     1      -7.856  17.283  69.315  1.00  0.00     0.075 A  
HETATM    6  O   UNL     1      -9.400  13.307  69.077  1.00  0.00     0.171 OA 
HETATM    7  C   UNL     1      -6.562  17.151  68.290  1.00  0.00    -0.158 A  
HETATM    8  C   UNL     2      -5.605  14.613  69.383  1.00  0.00    -0.094 C  
HETATM    9  C   UNL     1      -7.170  13.014  66.871  1.00  0.00     0.445 C  
HETATM   10  N   UNL     1      -5.887  18.331  68.309  1.00  0.00    -0.176 NA 
HETATM   11  C   UNL     1      -6.193  15.577  67.353  1.00  0.00    -0.037 C  
HETATM   12  H   UNL     1      -5.071  18.595  67.758  1.00  0.00     0.000 HD 
HETATM   13  O   UNL     1      -5.286  15.507  66.521  1.00  0.00     0.739 OA 
HETATM   14  N   UNL     1      -7.302  14.207  67.660  1.00  0.00    -0.165 N  
HETATM   15  C   UNL     1      -6.532  19.053  69.205  1.00  0.00    -0.286 A  
HETATM   16  C   UNL     1      -8.636  14.224  68.822  1.00  0.00    -0.101 C  
HETATM   17 CL   UNL     1      -6.036  20.600  69.729  1.00  0.00    -0.299 Cl 
HETATM   18  N   UNL     1      -7.670  18.540  69.801  1.00  0.00     0.578 NA 
ENDROOT
BRANCH   4  19
HETATM   19  C   UNL     2      -8.244  15.951  67.691  1.00  0.00    -0.150 C  
BRANCH  19  20
HETATM   20  C   UNL     2      -8.856  15.141  66.264  1.00  0.00    -0.176 C  
BRANCH  20  21
HETATM   21  O   UNL     2      -9.132  16.078  65.213  1.00  0.00    -0.081 OA 
BRANCH  21  22
HETATM   22  C   UNL     2     -10.552  16.426  65.167  1.00  0.00    -0.264 C  
BRANCH  22  23
HETATM   23  C   UNL     2     -11.425  15.187  65.415  1.00  0.00    -0.239 A  
HETATM   24  C   UNL     2     -11.877  14.435  64.309  1.00  0.00    -0.385 A  
HETATM   25  C   UNL     2     -11.592  14.628  66.692  1.00  0.00    -0.359 A  
HETATM   26  C   UNL     2     -12.385  13.141  64.476  1.00  0.00    -0.447 A  
HETATM   27  C   UNL     2     -12.485  12.588  65.749  1.00  0.00    -0.040 A  
HETATM   28  C   UNL     2     -12.117  13.342  66.857  1.00  0.00    -0.406 A  
ENDBRANCH  22  23
BRANCH  22  29
HETATM   29  C   UNL     2     -10.731  17.620  66.091  1.00  0.00    -0.105 A  
HETATM   30  C   UNL     2     -10.739  19.848  67.820  1.00  0.00    -0.365 A  
HETATM   31  C   UNL     2     -10.888  18.566  68.336  1.00  0.00     0.188 A  
HETATM   32  C   UNL     2     -10.623  18.928  65.585  1.00  0.00    -0.236 A  
HETATM   33  C   UNL     2     -10.864  17.464  67.480  1.00  0.00    -0.203 A  
HETATM   34  C   UNL     2     -10.610  20.031  66.446  1.00  0.00    -0.460 A  
ENDBRANCH  22  29
ENDBRANCH  21  22
ENDBRANCH  20  21
ENDBRANCH  19  20
ENDBRANCH   4  19
TORSDOF 6
ENDMDL
MODEL      214
REMARK 921   NORMALIZED FREE ENERGY PREDICTED BY IDOCK:    1.58 KCAL/MOL
REMARK 922        TOTAL FREE ENERGY PREDICTED BY IDOCK:    3.75 KCAL/MOL
REMARK 923 INTER-LIGAND FREE ENERGY PREDICTED BY IDOCK:   -1.28 KCAL/MOL
REMARK 924 INTRA-LIGAND FREE ENERGY PREDICTED BY IDOCK:    5.04 KCAL/MOL
REMARK 927      BINDING AFFINITY PREDICTED BY RF-SCORE:    0.00 PKD
ROOT
HETATM    1  C   UNL     1     -10.579  19.570  66.754  1.00  0.00    -0.488 C  
HETATM    2  N   UNL     1      -9.603  18.489  66.932  1.00  0.00    -0.296 N  
HETATM    3  C   UNL     2      -8.061  18.782  65.310  1.00  0.00     1.388 C  
HETATM    4  N   UNL     2      -7.775  17.623  66.394  1.00  0.00    -0.268 NA 
HETATM    5  C   UNL     1      -9.704  16.899  66.115  1.00  0.00    -0.272 A  
HETATM    6  O   UNL     1      -7.943  20.076  68.362  1.00  0.00    -0.256 OA 
HETATM    7  C   UNL     1      -8.594  15.702  66.391  1.00  0.00    -0.284 A  
HETATM    8  C   UNL     2      -6.251  17.380  65.898  1.00  0.00     0.022 C  
HETATM    9  C   UNL     1      -5.935  17.805  69.221  1.00  0.00    -0.226 C  
HETATM   10  N   UNL     1      -8.960  14.612  65.665  1.00  0.00    -0.108 NA 
HETATM   11  C   UNL     1      -7.119  15.952  67.511  1.00  0.00    -0.179 C  
HETATM   12  H   UNL     1      -8.516  13.694  65.645  1.00  0.00     0.000 HD 
HETATM   13  O   UNL     1      -6.344  15.034  67.790  1.00  0.00    -0.143 OA 
HETATM   14  N   UNL     1      -6.959  17.579  68.238  1.00  0.00    -0.202 N  
HETATM   15  C   UNL     1     -10.020  15.017  64.993  1.00  0.00    -0.153 A  
HETATM   16  C   UNL     1      -8.029  18.948  67.906  1.00  0.00    -0.271 C  
HETATM   17 CL   UNL     1     -10.826  14.082  63.815  1.00  0.00     0.577 Cl 
HETATM   18  N   UNL     1     -10.517  16.290  65.210  1.00  0.00    -0.604 NA 
ENDROOT
BRANCH   4  19
HETATM   19  C   UNL     2      -8.853  17.021  68.071  1.00  0.00    -0.223 C  
BRANCH  19  20
HETATM   20  C   UNL     2      -9.598  15.516  68.570  1.00  0.00    -0.203 C  
BRANCH  20  21
HETATM   21  O   UNL     2      -8.700  14.733  69.370  1.00  0.00    -0.092 OA 
BRANCH  21  22
HETATM   22  C   UNL     2      -8.506  13.399  68.804  1.00  0.00     0.103 C  
BRANCH  22  23
HETATM   23  C   UNL     2      -7.548  12.572  69.674  1.00  0.00     0.930 A  
HETATM   24  C   UNL     2      -7.807  11.197  69.861  1.00  0.00     0.713 A  
HETATM   25  C   UNL     2      -6.298  13.059  70.089  1.00  0.00     0.053 A  
HETATM   26  C   UNL     2      -6.818  10.338  70.356  1.00  0.00    -0.109 A  
HETATM   27  C   UNL     2      -5.568  10.839  70.706  1.00  0.00    -0.110 A  
HETATM   28  C   UNL     2      -5.319  12.202  70.600  1.00  0.00    -0.152 A  
ENDBRANCH  22  23
BRANCH  22  29
HETATM   29  C   UNL     2      -9.895  12.838  68.542  1.00  0.00    -0.147 A  
HETATM   30  C   UNL     2     -12.382  11.544  68.238  1.00  0.00     0.482 A  
HETATM   31  C   UNL     2     -11.404  11.413  67.257  1.00  0.00    -0.347 A  
HETATM   32  C   UNL     2     -10.911  12.991  69.502  1.00  0.00     0.035 A  
HETATM   33  C   UNL     2     -10.168  12.039  67.420  1.00  0.00    -0.216 A  
HETATM   34  C   UNL     2     -12.138  12.334  69.357  1.00  0.00    -0.234 A  
ENDBRANCH  22  29
ENDBRANCH  21  22
ENDBRANCH  20  21
ENDBRANCH  19  20
ENDBRANCH   4  19
TORSDOF 6
ENDMDL
MODEL      215
REMARK 921   NORMALIZED FREE ENERGY PREDICTED BY IDOCK:    4.53 KCAL/MOL
REMARK 922        TOTAL FREE ENERGY PREDICTED BY IDOCK:    7.73 KCAL/MOL
REMARK 923 INTER-LIGAND FREE ENERGY PREDICTED BY IDOCK:    2.47 KCAL/MOL
REMARK 924 INTRA-LIGAND FREE ENERGY PREDICTED BY IDOCK:    5.26 KCAL/MOL
REMARK 927      BINDING AFFINITY PREDICTED BY RF-SCORE:    0.00 PKD
ROOT
HETATM    1  C   UNL     1      -6.956  18.370  70.703  1.00  0.00     1.950 C  
HETATM    2  N   UNL     1      -7.124  17.432  69.587  1.00  0.00     0.073 N  
HETATM    3  C   UNL     2      -5.280  17.664  68.306  1.00  0.00    -0.148 C  
HETATM    4  N   UNL     2      -6.315  16.497  67.898  1.00  0.00    -0.129 NA 
HETATM    5  C   UNL     1      -7.883  17.857  68.022  1.00  0.00    -0.251 A  
HETATM    6  O   UNL     1      -5.646  15.530  70.820  1.00  0.00    -0.135 OA 
HETATM    7  C   UNL     1      -8.086  16.740  66.816  1.00  0.00    -0.238 A  
HETATM    8  C   UNL     2      -5.308  15.826  66.820  1.00  0.00     0.961 C  
HETATM    9  C   UNL     1      -6.233  13.229  68.749  1.00  0.00    -0.090 C  
HETATM   10  N   UNL     1      -8.722  17.349  65.780  1.00  0.00    -0.480 NA 
HETATM   11  C   UNL     1      -7.468  14.984  66.973  1.00  0.00     0.014 C  
HETATM   12  H   UNL     1      -9.035  16.932  64.904  1.00  0.00     0.000 HD 
HETATM   13  O   UNL     1      -7.699  14.128  66.116  1.00  0.00     1.425 OA 
HETATM   14  N   UNL     1      -6.609  14.592  68.494  1.00  0.00    -0.089 N  
HETATM   15  C   UNL     1      -8.840  18.604  66.171  1.00  0.00    -0.118 A  
HETATM   16  C   UNL     1      -6.247  15.750  69.781  1.00  0.00    -0.172 C  
HETATM   17 CL   UNL     1      -9.461  19.859  65.195  1.00  0.00     0.873 Cl 
HETATM   18  N   UNL     1      -8.411  18.965  67.435  1.00  0.00    -0.274 NA 
ENDROOT
BRANCH   4  19
HETATM   19  C   UNL     2      -8.094  15.873  68.784  1.00  0.00    -0.190 C  
BRANCH  19  20
HETATM   20  C   UNL     2      -9.720  15.594  68.198  1.00  0.00    -0.204 C  
BRANCH  20  21
HETATM   21  O   UNL     2     -10.323  14.470  68.855  1.00  0.00    -0.233 OA 
BRANCH  21  22
HETATM   22  C   UNL     2     -11.383  13.879  68.039  1.00  0.00    -0.288 C  
BRANCH  22  23
HETATM   23  C   UNL     2     -11.697  14.769  66.827  1.00  0.00    -0.309 A  
HETATM   24  C   UNL     2     -11.674  16.171  66.982  1.00  0.00     0.703 A  
HETATM   25  C   UNL     2     -11.765  14.262  65.519  1.00  0.00    -0.353 A  
HETATM   26  C   UNL     2     -11.626  17.019  65.869  1.00  0.00     1.498 A  
HETATM   27  C   UNL     2     -11.636  16.487  64.584  1.00  0.00     0.159 A  
HETATM   28  C   UNL     2     -11.735  15.111  64.409  1.00  0.00    -0.301 A  
ENDBRANCH  22  23
BRANCH  22  29
HETATM   29  C   UNL     2     -10.970  12.439  67.778  1.00  0.00    -0.267 A  
HETATM   30  C   UNL     2      -9.954   9.890  67.128  1.00  0.00    -0.252 A  
HETATM   31  C   UNL     2     -10.964  10.454  66.357  1.00  0.00     0.031 A  
HETATM   32  C   UNL     2      -9.978  11.834  68.569  1.00  0.00    -0.203 A  
HETATM   33  C   UNL     2     -11.452  11.724  66.670  1.00  0.00    -0.337 A  
HETATM   34  C   UNL     2      -9.463  10.576  68.235  1.00  0.00    -0.158 A  
ENDBRANCH  22  29
ENDBRANCH  21  22
ENDBRANCH  20  21
ENDBRANCH  19  20
ENDBRANCH   4  19
TORSDOF 6
ENDMDL
MODEL      216
REMARK 921   NORMALIZED FREE ENERGY PREDICTED BY IDOCK:    4.76 KCAL/MOL
REMARK 922        TOTAL FREE ENERGY PREDICTED BY IDOCK:    8.04 KCAL/MOL
REMARK 923 INTER-LIGAND FREE ENERGY PREDICTED BY IDOCK:    3.01 KCAL/MOL
REMARK 924 INTRA-LIGAND FREE ENERGY PREDICTED BY IDOCK:    5.03 KCAL/MOL
REMARK 927      BINDING AFFINITY PREDICTED BY RF-SCORE:    0.00 PKD
ROOT
HETATM    1  C   UNL     1      -6.915  13.732  66.807  1.00  0.00     1.428 C  
HETATM    2  N   UNL     1      -7.905  12.649  66.786  1.00  0.00     0.070 N  
HETATM    3  C   UNL     2      -8.896  12.763  64.761  1.00  0.00     1.864 C  
HETATM    4  N   UNL     2      -9.302  11.522  65.707  1.00  0.00    -0.229 NA 
HETATM    5  C   UNL     1      -9.615  12.840  67.285  1.00  0.00    -0.208 A  
HETATM    6  O   UNL     1      -6.206  10.972  65.512  1.00  0.00    -0.041 OA 
HETATM    7  C   UNL     1     -10.675  11.568  67.281  1.00  0.00    -0.244 A  
HETATM    8  C   UNL     2     -10.104  10.745  64.534  1.00  0.00    -0.350 C  
HETATM    9  C   UNL     1      -8.013   8.400  65.738  1.00  0.00    -0.108 C  
HETATM   10  N   UNL     1     -11.872  12.014  67.746  1.00  0.00    -0.545 NA 
HETATM   11  C   UNL     1     -10.184   9.867  66.683  1.00  0.00    -0.226 C  
HETATM   12  H   UNL     1     -12.721  11.476  67.910  1.00  0.00     0.000 HD 
HETATM   13  O   UNL     1     -10.943   8.898  66.766  1.00  0.00    -0.008 OA 
HETATM   14  N   UNL     1      -8.508   9.706  66.079  1.00  0.00    -0.122 N  
HETATM   15  C   UNL     1     -11.679  13.306  67.935  1.00  0.00    -0.357 A  
HETATM   16  C   UNL     1      -7.348  11.034  65.938  1.00  0.00     0.028 C  
HETATM   17 CL   UNL     1     -12.902  14.402  68.400  1.00  0.00     0.861 Cl 
HETATM   18  N   UNL     1     -10.423  13.844  67.719  1.00  0.00    -0.240 NA 
ENDROOT
BRANCH   4  19
HETATM   19  C   UNL     2      -8.633  10.969  67.600  1.00  0.00    -0.125 C  
BRANCH  19  20
HETATM   20  C   UNL     2      -9.177   9.814  68.800  1.00  0.00    -0.143 C  
BRANCH  20  21
HETATM   21  O   UNL     2      -8.443   9.954  70.025  1.00  0.00    -0.193 OA 
BRANCH  21  22
HETATM   22  C   UNL     2      -7.591   8.791  70.273  1.00  0.00    -0.073 C  
BRANCH  22  23
HETATM   23  C   UNL     2      -7.459   8.523  71.779  1.00  0.00    -0.127 A  
HETATM   24  C   UNL     2      -7.284   9.614  72.656  1.00  0.00     1.710 A  
HETATM   25  C   UNL     2      -7.750   7.273  72.348  1.00  0.00    -0.093 A  
HETATM   26  C   UNL     2      -7.485   9.471  74.034  1.00  0.00     1.655 A  
HETATM   27  C   UNL     2      -7.829   8.232  74.566  1.00  0.00    -0.300 A  
HETATM   28  C   UNL     2      -7.932   7.129  73.727  1.00  0.00    -0.129 A  
ENDBRANCH  22  23
BRANCH  22  29
HETATM   29  C   UNL     2      -8.127   7.672  69.393  1.00  0.00    -0.127 A  
HETATM   30  C   UNL     2      -9.164   5.822  67.534  1.00  0.00    -0.108 A  
HETATM   31  C   UNL     2      -9.998   6.387  68.493  1.00  0.00    -0.155 A  
HETATM   32  C   UNL     2      -7.293   7.058  68.443  1.00  0.00    -0.100 A  
HETATM   33  C   UNL     2      -9.486   7.317  69.400  1.00  0.00    -0.154 A  
HETATM   34  C   UNL     2      -7.812   6.153  67.510  1.00  0.00    -0.102 A  
ENDBRANCH  22  29
ENDBRANCH  21  22
ENDBRANCH  20  21
ENDBRANCH  19  20
ENDBRANCH   4  19
TORSDOF 6
ENDMDL
MODEL      217
REMARK 921   NORMALIZED FREE ENERGY PREDICTED BY IDOCK:    5.49 KCAL/MOL
REMARK 922        TOTAL FREE ENERGY PREDICTED BY IDOCK:    9.03 KCAL/MOL
REMARK 923 INTER-LIGAND FREE ENERGY PREDICTED BY IDOCK:    4.49 KCAL/MOL
REMARK 924 INTRA-LIGAND FREE ENERGY PREDICTED BY IDOCK:    4.54 KCAL/MOL
REMARK 927      BINDING AFFINITY PREDICTED BY RF-SCORE:    0.00 PKD
ROOT
HETATM    1  C   UNL     1      -9.801  15.766  71.128  1.00  0.00     1.934 C  
HETATM    2  N   UNL     1      -8.771  15.776  70.084  1.00  0.00     0.526 N  
HETATM    3  C   UNL     2      -7.032  14.609  70.928  1.00  0.00     0.777 C  
HETATM    4  N   UNL     2      -6.918  15.087  69.392  1.00  0.00    -0.158 NA 
HETATM    5  C   UNL     1      -7.477  17.008  69.960  1.00  0.00     1.284 A  
HETATM    6  O   UNL     1      -9.538  13.354  69.152  1.00  0.00     0.216 OA 
HETATM    7  C   UNL     1      -6.368  16.990  68.730  1.00  0.00    -0.172 A  
HETATM    8  C   UNL     2      -5.601  14.192  69.094  1.00  0.00    -0.084 C  
HETATM    9  C   UNL     1      -7.696  13.359  66.596  1.00  0.00     0.817 C  
HETATM   10  N   UNL     1      -5.550  18.066  68.884  1.00  0.00    -0.186 NA 
HETATM   11  C   UNL     1      -6.339  15.642  67.437  1.00  0.00    -0.109 C  
HETATM   12  H   UNL     1      -4.793  18.370  68.274  1.00  0.00     0.000 HD 
HETATM   13  O   UNL     1      -5.574  15.677  66.470  1.00  0.00     0.545 OA 
HETATM   14  N   UNL     1      -7.561  14.350  67.628  1.00  0.00    -0.165 N  
HETATM   15  C   UNL     1      -5.965  18.624  70.005  1.00  0.00    -0.201 A  
HETATM   16  C   UNL     1      -8.705  14.228  68.972  1.00  0.00     0.060 C  
HETATM   17 CL   UNL     1      -5.206  19.957  70.753  1.00  0.00    -0.240 Cl 
HETATM   18  N   UNL     1      -7.065  18.099  70.660  1.00  0.00     2.070 NA 
ENDROOT
BRANCH   4  19
HETATM   19  C   UNL     2      -8.257  16.122  68.179  1.00  0.00    -0.157 C  
BRANCH  19  20
HETATM   20  C   UNL     2      -9.352  17.465  68.434  1.00  0.00    -0.285 C  
BRANCH  20  21
HETATM   21  O   UNL     2     -10.687  17.131  68.028  1.00  0.00    -0.372 OA 
BRANCH  21  22
HETATM   22  C   UNL     2     -10.903  17.422  66.611  1.00  0.00     0.042 C  
BRANCH  22  23
HETATM   23  C   UNL     2      -9.836  18.393  66.085  1.00  0.00    -0.279 A  
HETATM   24  C   UNL     2     -10.103  19.779  66.103  1.00  0.00    -0.600 A  
HETATM   25  C   UNL     2      -8.518  17.990  65.816  1.00  0.00     0.310 A  
HETATM   26  C   UNL     2      -9.072  20.714  65.951  1.00  0.00     0.358 A  
HETATM   27  C   UNL     2      -7.765  20.286  65.744  1.00  0.00    -0.137 A  
HETATM   28  C   UNL     2      -7.493  18.926  65.647  1.00  0.00    -0.056 A  
ENDBRANCH  22  23
BRANCH  22  29
HETATM   29  C   UNL     2     -11.048  16.077  65.915  1.00  0.00    -0.002 A  
HETATM   30  C   UNL     2     -11.625  13.588  64.722  1.00  0.00    -0.372 A  
HETATM   31  C   UNL     2     -11.039  13.637  65.981  1.00  0.00    -0.297 A  
HETATM   32  C   UNL     2     -11.603  16.006  64.625  1.00  0.00    -0.169 A  
HETATM   33  C   UNL     2     -10.771  14.871  66.577  1.00  0.00    -0.309 A  
HETATM   34  C   UNL     2     -11.904  14.770  64.042  1.00  0.00    -0.095 A  
ENDBRANCH  22  29
ENDBRANCH  21  22
ENDBRANCH  20  21
ENDBRANCH  19  20
ENDBRANCH   4  19
TORSDOF 6
ENDMDL
MODEL      218
REMARK 921   NORMALIZED FREE ENERGY PREDICTED BY IDOCK:    5.95 KCAL/MOL
REMARK 922        TOTAL FREE ENERGY PREDICTED BY IDOCK:    9.66 KCAL/MOL
REMARK 923 INTER-LIGAND FREE ENERGY PREDICTED BY IDOCK:    4.13 KCAL/MOL
REMARK 924 INTRA-LIGAND FREE ENERGY PREDICTED BY IDOCK:    5.52 KCAL/MOL
REMARK 927      BINDING AFFINITY PREDICTED BY RF-SCORE:    0.00 PKD
ROOT
HETATM    1  C   UNL     1      -8.233  13.771  68.852  1.00  0.00     0.089 C  
HETATM    2  N   UNL     1      -9.052  12.777  68.149  1.00  0.00    -0.202 N  
HETATM    3  C   UNL     2      -7.617  11.591  66.872  1.00  0.00    -0.151 C  
HETATM    4  N   UNL     2      -9.150  11.092  66.910  1.00  0.00    -0.154 NA 
HETATM    5  C   UNL     1      -9.782  13.037  66.535  1.00  0.00    -0.266 A  
HETATM    6  O   UNL     1      -8.506  10.867  69.985  1.00  0.00     0.511 OA 
HETATM    7  C   UNL     1     -10.736  11.893  65.812  1.00  0.00    -0.284 A  
HETATM    8  C   UNL     2      -8.833   9.698  66.147  1.00  0.00    -0.150 C  
HETATM    9  C   UNL     1     -10.536   8.724  68.881  1.00  0.00    -0.197 C  
HETATM   10  N   UNL     1     -11.171  12.394  64.625  1.00  0.00    -0.300 NA 
HETATM   11  C   UNL     1     -11.051  10.224  66.591  1.00  0.00     0.159 C  
HETATM   12  H   UNL     1     -11.810  11.963  63.958  1.00  0.00     0.000 HD 
HETATM   13  O   UNL     1     -11.834   9.408  66.100  1.00  0.00     3.339 OA 
HETATM   14  N   UNL     1     -10.229   9.924  68.151  1.00  0.00    -0.170 N  
HETATM   15  C   UNL     1     -10.576  13.568  64.538  1.00  0.00    -0.424 A  
HETATM   16  C   UNL     1      -9.104  11.041  68.936  1.00  0.00    -0.123 C  
HETATM   17 CL   UNL     1     -10.666  14.592  63.175  1.00  0.00     4.021 Cl 
HETATM   18  N   UNL     1      -9.793  14.014  65.588  1.00  0.00    -0.268 NA 
ENDROOT
BRANCH   4  19
HETATM   19  C   UNL     2     -10.798  11.812  67.960  1.00  0.00    -0.213 C  
BRANCH  19  20
HETATM   20  C   UNL     2     -11.345  11.678  69.619  1.00  0.00    -0.236 C  
BRANCH  20  21
HETATM   21  O   UNL     2     -12.232  12.753  69.961  1.00  0.00    -0.284 OA 
BRANCH  21  22
HETATM   22  C   UNL     2     -11.506  14.010  70.137  1.00  0.00    -0.133 C  
BRANCH  22  23
HETATM   23  C   UNL     2     -11.612  14.883  68.878  1.00  0.00    -0.339 A  
HETATM   24  C   UNL     2     -10.606  15.838  68.621  1.00  0.00    -0.250 A  
HETATM   25  C   UNL     2     -12.527  14.609  67.849  1.00  0.00     0.316 A  
HETATM   26  C   UNL     2     -10.472  16.420  67.354  1.00  0.00    -0.309 A  
HETATM   27  C   UNL     2     -11.358  16.087  66.334  1.00  0.00     0.301 A  
HETATM   28  C   UNL     2     -12.401  15.205  66.590  1.00  0.00     0.612 A  
ENDBRANCH  22  23
BRANCH  22  29
HETATM   29  C   UNL     2     -11.983  14.599  71.456  1.00  0.00    -0.400 A  
HETATM   30  C   UNL     2     -12.556  15.763  73.960  1.00  0.00    -0.758 A  
HETATM   31  C   UNL     2     -12.408  14.385  73.850  1.00  0.00     0.325 A  
HETATM   32  C   UNL     2     -12.177  15.986  71.580  1.00  0.00    -0.514 A  
HETATM   33  C   UNL     2     -12.105  13.814  72.613  1.00  0.00     0.743 A  
HETATM   34  C   UNL     2     -12.445  16.563  72.827  1.00  0.00    -0.158 A  
ENDBRANCH  22  29
ENDBRANCH  21  22
ENDBRANCH  20  21
ENDBRANCH  19  20
ENDBRANCH   4  19
TORSDOF 6
ENDMDL
MODEL      219
REMARK 921   NORMALIZED FREE ENERGY PREDICTED BY IDOCK:    8.10 KCAL/MOL
REMARK 922        TOTAL FREE ENERGY PREDICTED BY IDOCK:   12.56 KCAL/MOL
REMARK 923 INTER-LIGAND FREE ENERGY PREDICTED BY IDOCK:    6.56 KCAL/MOL
REMARK 924 INTRA-LIGAND FREE ENERGY PREDICTED BY IDOCK:    6.00 KCAL/MOL
REMARK 927      BINDING AFFINITY PREDICTED BY RF-SCORE:    0.00 PKD
ROOT
HETATM    1  C   UNL     1      -5.140  19.318  67.136  1.00  0.00    -0.149 C  
HETATM    2  N   UNL     1      -6.265  18.884  67.972  1.00  0.00    -0.213 N  
HETATM    3  C   UNL     2      -5.863  19.730  70.026  1.00  0.00    -0.285 C  
HETATM    4  N   UNL     2      -7.275  18.982  69.804  1.00  0.00     0.090 NA 
HETATM    5  C   UNL     1      -6.275  17.376  68.939  1.00  0.00    -0.198 A  
HETATM    6  O   UNL     1      -7.579  21.221  67.609  1.00  0.00    -0.301 OA 
HETATM    7  C   UNL     1      -7.594  16.917  69.829  1.00  0.00     0.706 A  
HETATM    8  C   UNL     2      -7.886  19.472  71.222  1.00  0.00     2.859 C  
HETATM    9  C   UNL     1     -10.263  20.337  69.003  1.00  0.00     0.010 C  
HETATM   10  N   UNL     1      -7.314  15.721  70.412  1.00  0.00     0.707 NA 
HETATM   11  C   UNL     1      -9.128  17.976  69.951  1.00  0.00     1.538 C  
HETATM   12  H   UNL     1      -7.927  15.145  70.987  1.00  0.00     0.000 HD 
HETATM   13  O   UNL     1     -10.144  17.594  70.537  1.00  0.00     1.314 OA 
HETATM   14  N   UNL     1      -9.072  19.536  69.076  1.00  0.00    -0.304 N  
HETATM   15  C   UNL     1      -6.065  15.479  70.060  1.00  0.00    -0.148 A  
HETATM   16  C   UNL     1      -7.667  20.156  68.199  1.00  0.00    -0.188 C  
HETATM   17 CL   UNL     1      -5.149  14.153  70.620  1.00  0.00    -0.099 Cl 
HETATM   18  N   UNL     1      -5.417  16.356  69.209  1.00  0.00    -0.122 NA 
ENDROOT
BRANCH   4  19
HETATM   19  C   UNL     2      -8.105  18.102  68.108  1.00  0.00    -0.281 C  
BRANCH  19  20
HETATM   20  C   UNL     2      -9.433  16.995  67.831  1.00  0.00    -0.245 C  
BRANCH  20  21
HETATM   21  O   UNL     2      -9.000  15.838  67.101  1.00  0.00    -0.198 OA 
BRANCH  21  22
HETATM   22  C   UNL     2      -9.269  15.977  65.671  1.00  0.00    -0.035 C  
BRANCH  22  23
HETATM   23  C   UNL     2     -10.222  14.876  65.185  1.00  0.00    -0.409 A  
HETATM   24  C   UNL     2      -9.811  13.529  65.268  1.00  0.00    -0.116 A  
HETATM   25  C   UNL     2     -11.573  15.126  64.892  1.00  0.00    -0.336 A  
HETATM   26  C   UNL     2     -10.737  12.484  65.155  1.00  0.00    -0.323 A  
HETATM   27  C   UNL     2     -12.080  12.762  64.922  1.00  0.00    -0.490 A  
HETATM   28  C   UNL     2     -12.492  14.080  64.762  1.00  0.00    -0.392 A  
ENDBRANCH  22  23
BRANCH  22  29
HETATM   29  C   UNL     2      -9.681  17.425  65.451  1.00  0.00     0.652 A  
HETATM   30  C   UNL     2     -10.421  20.145  65.366  1.00  0.00    -0.110 A  
HETATM   31  C   UNL     2     -11.400  19.157  65.371  1.00  0.00     1.132 A  
HETATM   32  C   UNL     2      -8.707  18.437  65.403  1.00  0.00     1.456 A  
HETATM   33  C   UNL     2     -11.031  17.812  65.433  1.00  0.00     0.295 A  
HETATM   34  C   UNL     2      -9.076  19.787  65.378  1.00  0.00     0.740 A  
ENDBRANCH  22  29
ENDBRANCH  21  22
ENDBRANCH  20  21
ENDBRANCH  19  20
ENDBRANCH   4  19
TORSDOF 6
ENDMDL
MODEL      220
REMARK 921   NORMALIZED FREE ENERGY PREDICTED BY IDOCK:    8.79 KCAL/MOL
REMARK 922        TOTAL FREE ENERGY PREDICTED BY IDOCK:   13.50 KCAL/MOL
REMARK 923 INTER-LIGAND FREE ENERGY PREDICTED BY IDOCK:    8.81 KCAL/MOL
REMARK 924 INTRA-LIGAND FREE ENERGY PREDICTED BY IDOCK:    4.68 KCAL/MOL
REMARK 927      BINDING AFFINITY PREDICTED BY RF-SCORE:    0.00 PKD
ROOT
HETATM    1  C   UNL     1      -5.139  19.317  67.134  1.00  0.00    -0.149 C  
HETATM    2  N   UNL     1      -6.267  18.873  67.961  1.00  0.00    -0.213 N  
HETATM    3  C   UNL     2      -5.895  19.730  70.017  1.00  0.00    -0.285 C  
HETATM    4  N   UNL     2      -7.295  18.966  69.783  1.00  0.00     0.207 NA 
HETATM    5  C   UNL     1      -6.270  17.368  68.933  1.00  0.00    -0.198 A  
HETATM    6  O   UNL     1      -7.603  21.195  67.579  1.00  0.00    -0.344 OA 
HETATM    7  C   UNL     1      -7.592  16.898  69.812  1.00  0.00     0.706 A  
HETATM    8  C   UNL     2      -7.926  19.453  71.193  1.00  0.00     3.154 C  
HETATM    9  C   UNL     1     -10.291  20.285  68.949  1.00  0.00     0.017 C  
HETATM   10  N   UNL     1      -7.305  15.706  70.400  1.00  0.00     0.578 NA 
HETATM   11  C   UNL     1      -9.139  17.940  69.916  1.00  0.00     1.554 C  
HETATM   12  H   UNL     1      -7.917  15.125  70.971  1.00  0.00     0.000 HD 
HETATM   13  O   UNL     1     -10.157  17.549  70.493  1.00  0.00     1.272 OA 
HETATM   14  N   UNL     1      -9.092  19.497  69.036  1.00  0.00    -0.304 N  
HETATM   15  C   UNL     1      -6.050  15.477  70.061  1.00  0.00    -0.148 A  
HETATM   16  C   UNL     1      -7.685  20.131  68.171  1.00  0.00    -0.188 C  
HETATM   17 CL   UNL     1      -5.125  14.163  70.635  1.00  0.00    -0.099 Cl 
HETATM   18  N   UNL     1      -5.403  16.359  69.214  1.00  0.00    -0.120 NA 
ENDROOT
BRANCH   4  19
HETATM   19  C   UNL     2      -8.100  18.072  68.082  1.00  0.00    -0.273 C  
BRANCH  19  20
HETATM   20  C   UNL     2      -9.409  16.944  67.796  1.00  0.00    -0.235 C  
BRANCH  20  21
HETATM   21  O   UNL     2      -9.013  15.909  66.885  1.00  0.00    -0.202 OA 
BRANCH  21  22
HETATM   22  C   UNL     2      -9.789  14.688  67.095  1.00  0.00    -0.237 C  
BRANCH  22  23
HETATM   23  C   UNL     2      -8.871  13.519  67.482  1.00  0.00    -0.209 A  
HETATM   24  C   UNL     2      -7.894  13.082  66.563  1.00  0.00     0.738 A  
HETATM   25  C   UNL     2      -8.794  13.027  68.795  1.00  0.00     0.174 A  
HETATM   26  C   UNL     2      -6.834  12.263  66.972  1.00  0.00    -0.034 A  
HETATM   27  C   UNL     2      -6.750  11.837  68.294  1.00  0.00    -0.065 A  
HETATM   28  C   UNL     2      -7.745  12.194  69.197  1.00  0.00     0.230 A  
ENDBRANCH  22  23
BRANCH  22  29
HETATM   29  C   UNL     2     -10.917  15.054  68.047  1.00  0.00    -0.285 A  
HETATM   30  C   UNL     2     -12.876  16.029  69.826  1.00  0.00     0.818 A  
HETATM   31  C   UNL     2     -11.783  15.322  70.313  1.00  0.00    -0.341 A  
HETATM   32  C   UNL     2     -12.051  15.735  67.570  1.00  0.00     0.718 A  
HETATM   33  C   UNL     2     -10.805  14.857  69.432  1.00  0.00    -0.274 A  
HETATM   34  C   UNL     2     -13.013  16.233  68.455  1.00  0.00     2.849 A  
ENDBRANCH  22  29
ENDBRANCH  21  22
ENDBRANCH  20  21
ENDBRANCH  19  20
ENDBRANCH   4  19
TORSDOF 6
ENDMDL
MODEL      221
REMARK 921   NORMALIZED FREE ENERGY PREDICTED BY IDOCK:   19.10 KCAL/MOL
REMARK 922        TOTAL FREE ENERGY PREDICTED BY IDOCK:   27.42 KCAL/MOL
REMARK 923 INTER-LIGAND FREE ENERGY PREDICTED BY IDOCK:   22.72 KCAL/MOL
REMARK 924 INTRA-LIGAND FREE ENERGY PREDICTED BY IDOCK:    4.70 KCAL/MOL
REMARK 927      BINDING AFFINITY PREDICTED BY RF-SCORE:    0.00 PKD
ROOT
HETATM    1  C   UNL     1      -7.405   8.126  69.116  1.00  0.00    -0.082 C  
HETATM    2  N   UNL     1      -7.787   9.024  68.021  1.00  0.00    -0.100 N  
HETATM    3  C   UNL     2      -6.171   8.807  66.459  1.00  0.00    -0.061 C  
HETATM    4  N   UNL     2      -7.444   9.721  66.076  1.00  0.00    -0.099 NA 
HETATM    5  C   UNL     1      -7.252  10.728  67.886  1.00  0.00    -0.087 A  
HETATM    6  O   UNL     1      -8.958   7.016  66.636  1.00  0.00    -0.131 OA 
HETATM    7  C   UNL     1      -7.753  11.706  66.647  1.00  0.00    -0.065 A  
HETATM    8  C   UNL     2      -7.029   9.841  64.514  1.00  0.00    -0.125 C  
HETATM    9  C   UNL     1     -10.236   8.829  64.398  1.00  0.00     3.824 C  
HETATM   10  N   UNL     1      -7.217  12.941  66.841  1.00  0.00    -0.319 NA 
HETATM   11  C   UNL     1      -8.845  11.081  65.265  1.00  0.00    -0.129 C  
HETATM   12  H   UNL     1      -7.364  13.783  66.285  1.00  0.00     0.000 HD 
HETATM   13  O   UNL     1      -9.294  11.829  64.394  1.00  0.00    -0.036 OA 
HETATM   14  N   UNL     1      -9.285   9.348  65.342  1.00  0.00    -0.233 N  
HETATM   15  C   UNL     1      -6.463  12.796  67.914  1.00  0.00    -0.120 A  
HETATM   16  C   UNL     1      -8.701   8.207  66.561  1.00  0.00    -0.143 C  
HETATM   17 CL   UNL     1      -5.446  14.013  68.544  1.00  0.00    -0.090 Cl 
HETATM   18  N   UNL     1      -6.448  11.581  68.576  1.00  0.00    -0.052 NA 
ENDROOT
BRANCH   4  19
HETATM   19  C   UNL     2      -9.176  10.170  67.142  1.00  0.00    -0.138 C  
BRANCH  19  20
HETATM   20  C   UNL     2     -10.265   9.243  68.153  1.00  0.00    -0.205 C  
BRANCH  20  21
HETATM   21  O   UNL     2     -10.902  10.077  69.131  1.00  0.00    -0.209 OA 
BRANCH  21  22
HETATM   22  C   UNL     2     -10.071  10.233  70.324  1.00  0.00     0.049 C  
BRANCH  22  23
HETATM   23  C   UNL     2     -10.392  11.549  71.045  1.00  0.00     4.626 A  
HETATM   24  C   UNL     2     -10.062  12.771  70.420  1.00  0.00     3.897 A  
HETATM   25  C   UNL     2     -11.218  11.603  72.180  1.00  0.00     6.298 A  
HETATM   26  C   UNL     2     -10.614  13.980  70.862  1.00  0.00     2.067 A  
HETATM   27  C   UNL     2     -11.476  13.996  71.955  1.00  0.00     1.371 A  
HETATM   28  C   UNL     2     -11.754  12.814  72.630  1.00  0.00     4.741 A  
ENDBRANCH  22  23
BRANCH  22  29
HETATM   29  C   UNL     2     -10.204   8.938  71.111  1.00  0.00    -0.336 A  
HETATM   30  C   UNL     2     -10.671   6.448  72.350  1.00  0.00    -0.255 A  
HETATM   31  C   UNL     2     -11.326   7.587  72.806  1.00  0.00    -0.388 A  
HETATM   32  C   UNL     2      -9.520   7.783  70.692  1.00  0.00    -0.162 A  
HETATM   33  C   UNL     2     -11.107   8.814  72.178  1.00  0.00    -0.406 A  
HETATM   34  C   UNL     2      -9.766   6.545  71.296  1.00  0.00    -0.186 A  
ENDBRANCH  22  29
ENDBRANCH  21  22
ENDBRANCH  20  21
ENDBRANCH  19  20
ENDBRANCH   4  19
TORSDOF 6
ENDMDL
MODEL      222
REMARK 921   NORMALIZED FREE ENERGY PREDICTED BY IDOCK:   25.62 KCAL/MOL
REMARK 922        TOTAL FREE ENERGY PREDICTED BY IDOCK:   36.23 KCAL/MOL
REMARK 923 INTER-LIGAND FREE ENERGY PREDICTED BY IDOCK:   16.34 KCAL/MOL
REMARK 924 INTRA-LIGAND FREE ENERGY PREDICTED BY IDOCK:   19.89 KCAL/MOL
REMARK 927      BINDING AFFINITY PREDICTED BY RF-SCORE:    0.00 PKD
ROOT
HETATM    1  C   UNL     1     -11.448  19.989  67.289  1.00  0.00     0.959 C  
HETATM    2  N   UNL     1     -10.781  18.686  67.185  1.00  0.00    -0.413 N  
HETATM    3  C   UNL     2      -8.889  19.057  66.010  1.00  0.00    -0.043 C  
HETATM    4  N   UNL     2      -9.098  17.577  66.616  1.00  0.00    -0.261 NA 
HETATM    5  C   UNL     1     -11.024  17.538  65.831  1.00  0.00     0.198 A  
HETATM    6  O   UNL     1      -9.191  19.206  69.311  1.00  0.00    -0.201 OA 
HETATM    7  C   UNL     1     -10.276  16.061  65.792  1.00  0.00    -0.377 A  
HETATM    8  C   UNL     2      -7.587  17.103  66.277  1.00  0.00    -0.317 C  
HETATM    9  C   UNL     1      -7.940  16.322  69.531  1.00  0.00     0.073 C  
HETATM   10  N   UNL     1     -10.687  15.410  64.672  1.00  0.00    -0.610 NA 
HETATM   11  C   UNL     1      -9.069  15.522  67.113  1.00  0.00    -0.217 C  
HETATM   12  H   UNL     1     -10.450  14.464  64.373  1.00  0.00     0.000 HD 
HETATM   13  O   UNL     1      -8.583  14.389  67.135  1.00  0.00    -0.202 OA 
HETATM   14  N   UNL     1      -8.742  16.716  68.405  1.00  0.00    -0.217 N  
HETATM   15  C   UNL     1     -11.463  16.284  64.061  1.00  0.00     0.413 A  
HETATM   16  C   UNL     1      -9.405  18.355  68.463  1.00  0.00    -0.335 C  
HETATM   17 CL   UNL     1     -12.161  16.040  62.523  1.00  0.00     6.808 Cl 
HETATM   18  N   UNL     1     -11.722  17.502  64.664  1.00  0.00     0.652 NA 
ENDROOT
BRANCH   4  19
HETATM   19  C   UNL     2     -10.625  16.781  67.789  1.00  0.00    -0.341 C  
BRANCH  19  20
HETATM   20  C   UNL     2     -11.155  15.156  68.167  1.00  0.00    -0.304 C  
BRANCH  20  21
HETATM   21  O   UNL     2     -10.049  14.324  68.546  1.00  0.00    -0.235 OA 
BRANCH  21  22
HETATM   22  C   UNL     2      -9.627  13.461  67.444  1.00  0.00    -0.223 C  
BRANCH  22  23
HETATM   23  C   UNL     2      -8.399  12.629  67.841  1.00  0.00    -0.172 A  
HETATM   24  C   UNL     2      -8.432  11.230  67.660  1.00  0.00    -0.124 A  
HETATM   25  C   UNL     2      -7.160  13.215  68.145  1.00  0.00    -0.109 A  
HETATM   26  C   UNL     2      -7.255  10.471  67.690  1.00  0.00    -0.086 A  
HETATM   27  C   UNL     2      -6.032  11.087  67.936  1.00  0.00    -0.046 A  
HETATM   28  C   UNL     2      -5.989  12.453  68.193  1.00  0.00    -0.062 A  
ENDBRANCH  22  23
BRANCH  22  29
HETATM   29  C   UNL     2     -10.872  12.718  66.981  1.00  0.00    -0.282 A  
HETATM   30  C   UNL     2     -13.288  11.628  66.019  1.00  0.00     6.733 A  
HETATM   31  C   UNL     2     -13.162  11.965  67.362  1.00  0.00     6.009 A  
HETATM   32  C   UNL     2     -11.005  12.332  65.636  1.00  0.00    -0.338 A  
HETATM   33  C   UNL     2     -11.971  12.522  67.832  1.00  0.00    -0.283 A  
HETATM   34  C   UNL     2     -12.211  11.808  65.157  1.00  0.00     0.290 A  
ENDBRANCH  22  29
ENDBRANCH  21  22
ENDBRANCH  20  21
ENDBRANCH  19  20
ENDBRANCH   4  19
TORSDOF 6
ENDMDL
MODEL      223
REMARK 921   NORMALIZED FREE ENERGY PREDICTED BY IDOCK:   27.64 KCAL/MOL
REMARK 922        TOTAL FREE ENERGY PREDICTED BY IDOCK:   38.95 KCAL/MOL
REMARK 923 INTER-LIGAND FREE ENERGY PREDICTED BY IDOCK:   34.50 KCAL/MOL
REMARK 924 INTRA-LIGAND FREE ENERGY PREDICTED BY IDOCK:    4.45 KCAL/MOL
REMARK 927      BINDING AFFINITY PREDICTED BY RF-SCORE:    0.00 PKD
ROOT
HETATM    1  C   UNL     1      -7.114  18.370  70.507  1.00  0.00     1.881 C  
HETATM    2  N   UNL     1      -7.431  17.312  69.541  1.00  0.00     0.102 N  
HETATM    3  C   UNL     2      -5.461  16.326  69.044  1.00  0.00    -0.111 C  
HETATM    4  N   UNL     2      -6.792  15.660  68.424  1.00  0.00    -0.112 NA 
HETATM    5  C   UNL     1      -7.410  17.534  67.764  1.00  0.00    -0.186 A  
HETATM    6  O   UNL     1      -7.529  15.424  71.477  1.00  0.00     2.451 OA 
HETATM    7  C   UNL     1      -7.821  16.311  66.726  1.00  0.00    -0.265 A  
HETATM    8  C   UNL     2      -6.022  14.331  67.908  1.00  0.00    -0.136 C  
HETATM    9  C   UNL     1      -8.625  13.102  69.650  1.00  0.00     1.840 C  
HETATM   10  N   UNL     1      -7.749  16.794  65.457  1.00  0.00     0.581 NA 
HETATM   11  C   UNL     1      -8.256  14.598  67.329  1.00  0.00    -0.212 C  
HETATM   12  H   UNL     1      -7.982  16.314  64.588  1.00  0.00     0.000 HD 
HETATM   13  O   UNL     1      -8.651  13.714  66.566  1.00  0.00    -0.009 OA 
HETATM   14  N   UNL     1      -8.166  14.347  69.099  1.00  0.00    -0.031 N  
HETATM   15  C   UNL     1      -7.309  18.029  65.610  1.00  0.00     0.005 A  
HETATM   16  C   UNL     1      -7.626  15.560  70.268  1.00  0.00     0.621 C  
HETATM   17 CL   UNL     1      -6.911  19.073  64.320  1.00  0.00     1.532 Cl 
HETATM   18  N   UNL     1      -7.116  18.529  66.885  1.00  0.00    -0.200 NA 
ENDROOT
BRANCH   4  19
HETATM   19  C   UNL     2      -8.802  16.166  68.634  1.00  0.00    -0.218 C  
BRANCH  19  20
HETATM   20  C   UNL     2      -9.935  16.143  69.970  1.00  0.00     0.137 C  
BRANCH  20  21
HETATM   21  O   UNL     2     -10.648  17.384  70.066  1.00  0.00     0.102 OA 
BRANCH  21  22
HETATM   22  C   UNL     2     -11.769  17.285  71.000  1.00  0.00     2.231 C  
BRANCH  22  23
HETATM   23  C   UNL     2     -12.086  15.816  71.317  1.00  0.00    -0.487 A  
HETATM   24  C   UNL     2     -12.029  14.863  70.277  1.00  0.00    -0.365 A  
HETATM   25  C   UNL     2     -12.189  15.336  72.632  1.00  0.00    -0.502 A  
HETATM   26  C   UNL     2     -11.983  13.492  70.557  1.00  0.00    -0.344 A  
HETATM   27  C   UNL     2     -12.028  13.046  71.875  1.00  0.00     1.358 A  
HETATM   28  C   UNL     2     -12.161  13.966  72.909  1.00  0.00     0.662 A  
ENDBRANCH  22  23
BRANCH  22  29
HETATM   29  C   UNL     2     -11.443  18.211  72.162  1.00  0.00     3.513 A  
HETATM   30  C   UNL     2     -10.630  19.699  74.415  1.00  0.00     6.141 A  
HETATM   31  C   UNL     2     -11.784  18.925  74.471  1.00  0.00     3.694 A  
HETATM   32  C   UNL     2     -10.303  19.031  72.112  1.00  0.00     3.677 A  
HETATM   33  C   UNL     2     -12.173  18.175  73.360  1.00  0.00     3.405 A  
HETATM   34  C   UNL     2      -9.891  19.755  73.237  1.00  0.00     3.746 A  
ENDBRANCH  22  29
ENDBRANCH  21  22
ENDBRANCH  20  21
ENDBRANCH  19  20
ENDBRANCH   4  19
TORSDOF 6
ENDMDL
MODEL      224
REMARK 921   NORMALIZED FREE ENERGY PREDICTED BY IDOCK:   28.05 KCAL/MOL
REMARK 922        TOTAL FREE ENERGY PREDICTED BY IDOCK:   39.51 KCAL/MOL
REMARK 923 INTER-LIGAND FREE ENERGY PREDICTED BY IDOCK:   10.95 KCAL/MOL
REMARK 924 INTRA-LIGAND FREE ENERGY PREDICTED BY IDOCK:   28.56 KCAL/MOL
REMARK 927      BINDING AFFINITY PREDICTED BY RF-SCORE:    0.00 PKD
ROOT
HETATM    1  C   UNL     1     -11.995   7.782  66.657  1.00  0.00     5.212 C  
HETATM    2  N   UNL     1     -10.971   6.952  67.300  1.00  0.00    -0.348 N  
HETATM    3  C   UNL     2     -11.346   4.846  66.578  1.00  0.00     1.590 C  
HETATM    4  N   UNL     2     -10.034   5.089  67.484  1.00  0.00    -0.171 NA 
HETATM    5  C   UNL     1     -11.193   6.119  68.870  1.00  0.00    -0.261 A  
HETATM    6  O   UNL     1      -9.356   7.072  65.133  1.00  0.00     0.544 OA 
HETATM    7  C   UNL     1      -9.982   5.231  69.568  1.00  0.00    -0.227 A  
HETATM    8  C   UNL     2      -9.425   3.616  67.194  1.00  0.00    -0.194 C  
HETATM    9  C   UNL     1      -6.866   5.678  66.470  1.00  0.00    -0.059 C  
HETATM   10  N   UNL     1     -10.436   4.762  70.761  1.00  0.00    -0.105 NA 
HETATM   11  C   UNL     1      -8.331   4.971  68.732  1.00  0.00    -0.084 C  
HETATM   12  H   UNL     1      -9.925   4.220  71.457  1.00  0.00     0.000 HD 
HETATM   13  O   UNL     1      -7.398   4.389  69.289  1.00  0.00    -0.051 OA 
HETATM   14  N   UNL     1      -8.152   5.711  67.112  1.00  0.00    -0.102 N  
HETATM   15  C   UNL     1     -11.689   5.172  70.808  1.00  0.00     2.125 A  
HETATM   16  C   UNL     1      -9.429   6.574  66.245  1.00  0.00    -0.083 C  
HETATM   17 CL   UNL     1     -12.789   4.756  72.045  1.00  0.00     2.670 Cl 
HETATM   18  N   UNL     1     -12.185   5.964  69.788  1.00  0.00     1.664 NA 
ENDROOT
BRANCH   4  19
HETATM   19  C   UNL     2      -9.253   6.827  68.324  1.00  0.00    -0.122 C  
BRANCH  19  20
HETATM   20  C   UNL     2      -9.425   7.620  69.876  1.00  0.00    -0.160 C  
BRANCH  20  21
HETATM   21  O   UNL     2      -8.344   7.278  70.756  1.00  0.00    -0.121 OA 
BRANCH  21  22
HETATM   22  C   UNL     2      -7.059   7.724  70.220  1.00  0.00    -0.050 C  
BRANCH  22  23
HETATM   23  C   UNL     2      -6.263   6.538  69.656  1.00  0.00    -0.037 A  
HETATM   24  C   UNL     2      -6.402   5.270  70.260  1.00  0.00    -0.030 A  
HETATM   25  C   UNL     2      -5.596   6.599  68.422  1.00  0.00    -0.016 A  
HETATM   26  C   UNL     2      -5.973   4.108  69.607  1.00  0.00    -0.022 A  
HETATM   27  C   UNL     2      -5.366   4.193  68.357  1.00  0.00    -0.012 A  
HETATM   28  C   UNL     2      -5.152   5.439  67.779  1.00  0.00    -0.004 A  
ENDBRANCH  22  23
BRANCH  22  29
HETATM   29  C   UNL     2      -7.362   8.886  69.288  1.00  0.00    -0.070 A  
HETATM   30  C   UNL     2      -8.115  11.158  67.795  1.00  0.00    -0.117 A  
HETATM   31  C   UNL     2      -8.780   9.951  67.609  1.00  0.00    -0.121 A  
HETATM   32  C   UNL     2      -6.676  10.105  69.431  1.00  0.00    -0.065 A  
HETATM   33  C   UNL     2      -8.418   8.833  68.363  1.00  0.00    -0.130 A  
HETATM   34  C   UNL     2      -7.062  11.235  68.702  1.00  0.00    -0.093 A  
ENDBRANCH  22  29
ENDBRANCH  21  22
ENDBRANCH  20  21
ENDBRANCH  19  20
ENDBRANCH   4  19
TORSDOF 6
ENDMDL
MODEL      225
REMARK 921   NORMALIZED FREE ENERGY PREDICTED BY IDOCK:   35.78 KCAL/MOL
REMARK 922        TOTAL FREE ENERGY PREDICTED BY IDOCK:   49.94 KCAL/MOL
REMARK 923 INTER-LIGAND FREE ENERGY PREDICTED BY IDOCK:   38.17 KCAL/MOL
REMARK 924 INTRA-LIGAND FREE ENERGY PREDICTED BY IDOCK:   11.78 KCAL/MOL
REMARK 927      BINDING AFFINITY PREDICTED BY RF-SCORE:    0.00 PKD
ROOT
HETATM    1  C   UNL     1      -7.056  18.422  69.732  1.00  0.00     0.324 C  
HETATM    2  N   UNL     1      -7.305  17.843  68.407  1.00  0.00    -0.249 N  
HETATM    3  C   UNL     2      -5.347  16.920  67.764  1.00  0.00    -0.122 C  
HETATM    4  N   UNL     2      -6.622  16.677  66.808  1.00  0.00    -0.206 NA 
HETATM    5  C   UNL     1      -7.041  18.713  66.864  1.00  0.00    -0.203 A  
HETATM    6  O   UNL     1      -7.761  15.386  69.446  1.00  0.00    -0.203 OA 
HETATM    7  C   UNL     1      -7.382  18.020  65.400  1.00  0.00     0.500 A  
HETATM    8  C   UNL     2      -5.869  15.568  65.898  1.00  0.00     5.358 C  
HETATM    9  C   UNL     1      -8.741  14.047  66.767  1.00  0.00    -0.110 C  
HETATM   10  N   UNL     1      -7.119  18.934  64.428  1.00  0.00     1.163 NA 
HETATM   11  C   UNL     1      -7.990  16.259  65.250  1.00  0.00     3.363 C  
HETATM   12  H   UNL     1      -7.264  18.841  63.423  1.00  0.00     0.000 HD 
HETATM   13  O   UNL     1      -8.332  15.772  64.170  1.00  0.00     7.781 OA 
HETATM   14  N   UNL     1      -8.145  15.354  66.786  1.00  0.00    -0.222 N  
HETATM   15  C   UNL     1      -6.633  19.969  65.088  1.00  0.00    -0.295 A  
HETATM   16  C   UNL     1      -7.692  15.976  68.379  1.00  0.00    -0.147 C  
HETATM   17 CL   UNL     1      -6.012  21.374  64.346  1.00  0.00    -0.158 Cl 
HETATM   18  N   UNL     1      -6.579  19.930  66.469  1.00  0.00    -0.192 NA 
ENDROOT
BRANCH   4  19
HETATM   19  C   UNL     2      -8.609  17.269  66.999  1.00  0.00    -0.227 C  
BRANCH  19  20
HETATM   20  C   UNL     2      -9.635  17.687  68.355  1.00  0.00    -0.310 C  
BRANCH  20  21
HETATM   21  O   UNL     2      -9.651  19.105  68.576  1.00  0.00    -0.348 OA 
BRANCH  21  22
HETATM   22  C   UNL     2     -10.328  19.443  69.827  1.00  0.00     0.615 C  
BRANCH  22  23
HETATM   23  C   UNL     2     -11.124  18.242  70.358  1.00  0.00     3.006 A  
HETATM   24  C   UNL     2     -11.257  17.096  69.546  1.00  0.00     0.570 A  
HETATM   25  C   UNL     2     -11.516  18.135  71.702  1.00  0.00     4.101 A  
HETATM   26  C   UNL     2     -11.675  15.874  70.087  1.00  0.00    -0.342 A  
HETATM   27  C   UNL     2     -12.002  15.782  71.436  1.00  0.00    -0.499 A  
HETATM   28  C   UNL     2     -11.950  16.918  72.236  1.00  0.00     0.410 A  
ENDBRANCH  22  23
BRANCH  22  29
HETATM   29  C   UNL     2      -9.273  20.057  70.734  1.00  0.00     1.727 A  
HETATM   30  C   UNL     2      -7.258  20.893  72.521  1.00  0.00     3.681 A  
HETATM   31  C   UNL     2      -8.595  20.962  72.897  1.00  0.00     4.679 A  
HETATM   32  C   UNL     2      -7.918  20.034  70.358  1.00  0.00     1.194 A  
HETATM   33  C   UNL     2      -9.589  20.529  72.017  1.00  0.00     2.712 A  
HETATM   34  C   UNL     2      -6.919  20.433  71.252  1.00  0.00     0.818 A  
ENDBRANCH  22  29
ENDBRANCH  21  22
ENDBRANCH  20  21
ENDBRANCH  19  20
ENDBRANCH   4  19
TORSDOF 6
ENDMDL
