MODEL        1
REMARK 921   NORMALIZED FREE ENERGY PREDICTED BY IDOCK:   -5.97 KCAL/MOL
REMARK 922        TOTAL FREE ENERGY PREDICTED BY IDOCK:  -12.21 KCAL/MOL
REMARK 923 INTER-LIGAND FREE ENERGY PREDICTED BY IDOCK:   -9.82 KCAL/MOL
REMARK 924 INTRA-LIGAND FREE ENERGY PREDICTED BY IDOCK:   -2.39 KCAL/MOL
REMARK 927      BINDING AFFINITY PREDICTED BY RF-SCORE:    0.00 PKD
ROOT
HETATM    1  C   UNL     1      -9.646  12.427  68.110  1.00  0.00    -0.218 C  
HETATM    2  C   UNL     1      -8.864  13.500  68.302  1.00  0.00    -0.179 C  
ENDROOT
BRANCH   1   3
HETATM    3  C   UNL     1     -10.524  12.162  66.918  1.00  0.00    -0.250 C  
BRANCH   3   4
HETATM    4  C   UNL     1     -11.860  12.900  67.025  1.00  0.00    -0.437 C  
BRANCH   4   5
HETATM    5  C   UNL     1     -11.990  14.013  65.985  1.00  0.00    -0.434 C  
HETATM    6  O   UNL     1     -12.774  14.517  63.798  1.00  0.00    -0.780 OA 
HETATM    7  C   UNL     1     -12.645  13.530  64.716  1.00  0.00    -0.301 C  
HETATM    8  O   UNL     1     -13.037  12.391  64.510  1.00  0.00    -0.823 OA 
ENDBRANCH   4   5
ENDBRANCH   3   4
ENDBRANCH   1   3
BRANCH   2   9
HETATM    9  C   UNL     1      -8.747  14.693  67.392  1.00  0.00    -0.209 C  
BRANCH   9  10
HETATM   10  C   UNL     1      -8.814  16.069  68.075  1.00  0.00    -0.175 C  
HETATM   11  H   UNL     1     -11.646  18.409  66.798  1.00  0.00     0.000 HD 
HETATM   12  C   UNL     1      -8.033  17.127  67.278  1.00  0.00    -0.179 C  
HETATM   13  O   UNL     1     -10.711  18.561  66.723  1.00  0.00    -0.372 OA 
HETATM   14  O   UNL     1      -8.338  17.069  65.886  1.00  0.00    -0.515 OA 
HETATM   15  C   UNL     1      -8.560  18.443  67.826  1.00  0.00    -0.278 C  
HETATM   16  C   UNL     1     -10.238  16.679  68.197  1.00  0.00    -0.280 C  
HETATM   17  H   UNL     1      -7.855  17.722  65.394  1.00  0.00     0.000 HD 
HETATM   18  C   UNL     1     -10.064  18.200  67.946  1.00  0.00    -0.357 C  
BRANCH  16  19
HETATM   19  C   UNL     1     -10.915  16.379  69.514  1.00  0.00    -0.317 C  
HETATM   20  C   UNL     1     -11.985  15.579  69.671  1.00  0.00    -0.380 C  
BRANCH  20  21
HETATM   21  C   UNL     1     -12.714  15.325  70.962  1.00  0.00    -0.424 C  
HETATM   22  O   UNL     1     -14.117  15.469  70.772  1.00  0.00    -0.871 OA 
HETATM   23  H   UNL     1     -14.578  15.308  71.587  1.00  0.00     0.000 HD 
BRANCH  21  24
HETATM   24  C   UNL     1     -12.442  13.916  71.499  1.00  0.00    -0.384 C  
BRANCH  24  25
HETATM   25  C   UNL     1     -12.234  12.840  70.427  1.00  0.00    -0.371 C  
BRANCH  25  26
HETATM   26  C   UNL     1     -12.739  11.464  70.859  1.00  0.00    -0.397 C  
BRANCH  26  27
HETATM   27  C   UNL     1     -11.808  10.350  70.383  1.00  0.00    -0.418 C  
HETATM   28  C   UNL     1     -11.464   9.406  71.524  1.00  0.00    -0.467 C  
ENDBRANCH  26  27
ENDBRANCH  25  26
ENDBRANCH  24  25
ENDBRANCH  21  24
ENDBRANCH  20  21
ENDBRANCH  16  19
ENDBRANCH   9  10
ENDBRANCH   2   9
TORSDOF 11
ENDMDL
MODEL        2
REMARK 921   NORMALIZED FREE ENERGY PREDICTED BY IDOCK:   -5.97 KCAL/MOL
REMARK 922        TOTAL FREE ENERGY PREDICTED BY IDOCK:  -12.20 KCAL/MOL
REMARK 923 INTER-LIGAND FREE ENERGY PREDICTED BY IDOCK:  -10.37 KCAL/MOL
REMARK 924 INTRA-LIGAND FREE ENERGY PREDICTED BY IDOCK:   -1.83 KCAL/MOL
REMARK 927      BINDING AFFINITY PREDICTED BY RF-SCORE:    0.00 PKD
ROOT
HETATM    1  C   UNL     1      -9.676  10.609  69.165  1.00  0.00    -0.205 C  
HETATM    2  C   UNL     1      -9.157  10.879  67.958  1.00  0.00    -0.152 C  
ENDROOT
BRANCH   1   3
HETATM    3  C   UNL     1     -11.033  10.025  69.445  1.00  0.00    -0.280 C  
BRANCH   3   4
HETATM    4  C   UNL     1     -11.633  10.585  70.736  1.00  0.00    -0.432 C  
BRANCH   4   5
HETATM    5  C   UNL     1     -13.055  10.078  70.979  1.00  0.00    -0.435 C  
HETATM    6  O   UNL     1     -14.346   8.470  72.162  1.00  0.00    -0.437 OA 
HETATM    7  C   UNL     1     -13.087   8.912  71.935  1.00  0.00    -0.386 C  
HETATM    8  O   UNL     1     -12.110   8.408  72.469  1.00  0.00    -0.393 OA 
ENDBRANCH   4   5
ENDBRANCH   3   4
ENDBRANCH   1   3
BRANCH   2   9
HETATM    9  C   UNL     1      -9.848  10.710  66.632  1.00  0.00    -0.245 C  
BRANCH   9  10
HETATM   10  C   UNL     1     -10.179  12.007  65.875  1.00  0.00    -0.263 C  
HETATM   11  H   UNL     1     -13.948  12.538  65.075  1.00  0.00     0.000 HD 
HETATM   12  C   UNL     1     -10.230  11.771  64.357  1.00  0.00    -0.289 C  
HETATM   13  O   UNL     1     -13.248  12.421  64.444  1.00  0.00    -0.816 OA 
HETATM   14  O   UNL     1     -10.989  10.608  64.031  1.00  0.00    -0.266 OA 
HETATM   15  C   UNL     1     -10.976  12.988  63.834  1.00  0.00    -0.375 C  
HETATM   16  C   UNL     1     -11.567  12.626  66.197  1.00  0.00    -0.445 C  
HETATM   17  H   UNL     1     -11.020  10.463  63.092  1.00  0.00     0.000 HD 
HETATM   18  C   UNL     1     -12.102  13.176  64.849  1.00  0.00    -0.402 C  
BRANCH  16  19
HETATM   19  C   UNL     1     -11.525  13.679  67.280  1.00  0.00    -0.370 C  
HETATM   20  C   UNL     1     -11.882  13.486  68.563  1.00  0.00    -0.398 C  
BRANCH  20  21
HETATM   21  C   UNL     1     -11.913  14.539  69.637  1.00  0.00    -0.328 C  
HETATM   22  O   UNL     1     -12.452  15.752  69.123  1.00  0.00    -0.565 OA 
HETATM   23  H   UNL     1     -12.472  16.416  69.801  1.00  0.00     0.000 HD 
BRANCH  21  24
HETATM   24  C   UNL     1     -12.764  14.102  70.835  1.00  0.00    -0.432 C  
BRANCH  24  25
HETATM   25  C   UNL     1     -13.991  14.977  71.115  1.00  0.00    -0.451 C  
BRANCH  25  26
HETATM   26  C   UNL     1     -13.985  15.578  72.520  1.00  0.00    -0.646 C  
BRANCH  26  27
HETATM   27  C   UNL     1     -12.894  14.959  73.391  1.00  0.00    -0.638 C  
HETATM   28  C   UNL     1     -12.291  15.997  74.324  1.00  0.00    -0.717 C  
ENDBRANCH  26  27
ENDBRANCH  25  26
ENDBRANCH  24  25
ENDBRANCH  21  24
ENDBRANCH  20  21
ENDBRANCH  16  19
ENDBRANCH   9  10
ENDBRANCH   2   9
TORSDOF 11
ENDMDL
MODEL        3
REMARK 921   NORMALIZED FREE ENERGY PREDICTED BY IDOCK:   -5.95 KCAL/MOL
REMARK 922        TOTAL FREE ENERGY PREDICTED BY IDOCK:  -12.17 KCAL/MOL
REMARK 923 INTER-LIGAND FREE ENERGY PREDICTED BY IDOCK:  -10.25 KCAL/MOL
REMARK 924 INTRA-LIGAND FREE ENERGY PREDICTED BY IDOCK:   -1.91 KCAL/MOL
REMARK 927      BINDING AFFINITY PREDICTED BY RF-SCORE:    0.00 PKD
ROOT
HETATM    1  C   UNL     1     -10.165   9.095  67.589  1.00  0.00    -0.293 C  
HETATM    2  C   UNL     1     -10.383   9.564  66.351  1.00  0.00    -0.243 C  
ENDROOT
BRANCH   1   3
HETATM    3  C   UNL     1      -9.085   9.537  68.537  1.00  0.00    -0.131 C  
BRANCH   3   4
HETATM    4  C   UNL     1      -9.629   9.757  69.949  1.00  0.00    -0.269 C  
BRANCH   4   5
HETATM    5  C   UNL     1     -11.034  10.361  69.940  1.00  0.00    -0.364 C  
HETATM    6  O   UNL     1     -13.084  10.474  71.138  1.00  0.00    -0.376 OA 
HETATM    7  C   UNL     1     -11.844   9.930  71.137  1.00  0.00    -0.386 C  
HETATM    8  O   UNL     1     -11.455   9.188  72.025  1.00  0.00    -0.362 OA 
ENDBRANCH   4   5
ENDBRANCH   3   4
ENDBRANCH   1   3
BRANCH   2   9
HETATM    9  C   UNL     1      -9.552  10.590  65.628  1.00  0.00    -0.278 C  
BRANCH   9  10
HETATM   10  C   UNL     1     -10.244  11.931  65.334  1.00  0.00    -0.300 C  
HETATM   11  H   UNL     1     -14.100  11.733  64.862  1.00  0.00     0.000 HD 
HETATM   12  C   UNL     1     -10.403  12.159  63.822  1.00  0.00    -0.437 C  
HETATM   13  O   UNL     1     -13.463  11.988  64.205  1.00  0.00    -0.672 OA 
HETATM   14  O   UNL     1     -10.913  11.000  63.166  1.00  0.00    -0.780 OA 
HETATM   15  C   UNL     1     -11.454  13.254  63.737  1.00  0.00    -0.363 C  
HETATM   16  C   UNL     1     -11.693  12.062  65.879  1.00  0.00    -0.312 C  
HETATM   17  H   UNL     1     -11.011  11.141  62.232  1.00  0.00     0.000 HD 
HETATM   18  C   UNL     1     -12.479  12.843  64.794  1.00  0.00    -0.455 C  
BRANCH  16  19
HETATM   19  C   UNL     1     -11.773  12.715  67.239  1.00  0.00    -0.435 C  
HETATM   20  C   UNL     1     -11.495  14.006  67.498  1.00  0.00    -0.369 C  
BRANCH  20  21
HETATM   21  C   UNL     1     -11.502  14.655  68.855  1.00  0.00    -0.298 C  
HETATM   22  O   UNL     1     -12.157  15.916  68.794  1.00  0.00    -0.526 OA 
HETATM   23  H   UNL     1     -12.161  16.326  69.651  1.00  0.00     0.000 HD 
BRANCH  21  24
HETATM   24  C   UNL     1     -12.220  13.787  69.895  1.00  0.00    -0.383 C  
BRANCH  24  25
HETATM   25  C   UNL     1     -13.151  14.548  70.845  1.00  0.00    -0.405 C  
BRANCH  25  26
HETATM   26  C   UNL     1     -13.222  13.923  72.237  1.00  0.00    -0.568 C  
BRANCH  26  27
HETATM   27  C   UNL     1     -12.770  14.904  73.317  1.00  0.00    -0.624 C  
HETATM   28  C   UNL     1     -12.248  16.190  72.698  1.00  0.00    -0.625 C  
ENDBRANCH  26  27
ENDBRANCH  25  26
ENDBRANCH  24  25
ENDBRANCH  21  24
ENDBRANCH  20  21
ENDBRANCH  16  19
ENDBRANCH   9  10
ENDBRANCH   2   9
TORSDOF 11
ENDMDL
MODEL        4
REMARK 921   NORMALIZED FREE ENERGY PREDICTED BY IDOCK:   -5.88 KCAL/MOL
REMARK 922        TOTAL FREE ENERGY PREDICTED BY IDOCK:  -12.06 KCAL/MOL
REMARK 923 INTER-LIGAND FREE ENERGY PREDICTED BY IDOCK:   -9.75 KCAL/MOL
REMARK 924 INTRA-LIGAND FREE ENERGY PREDICTED BY IDOCK:   -2.31 KCAL/MOL
REMARK 927      BINDING AFFINITY PREDICTED BY RF-SCORE:    0.00 PKD
ROOT
HETATM    1  C   UNL     1     -11.435  13.788  69.863  1.00  0.00    -0.230 C  
HETATM    2  C   UNL     1     -11.504  12.770  68.993  1.00  0.00    -0.360 C  
ENDROOT
BRANCH   1   3
HETATM    3  C   UNL     1     -12.030  15.157  69.688  1.00  0.00    -0.359 C  
BRANCH   3   4
HETATM    4  C   UNL     1     -13.207  15.387  70.638  1.00  0.00    -0.356 C  
BRANCH   4   5
HETATM    5  C   UNL     1     -12.750  15.840  72.025  1.00  0.00    -0.518 C  
HETATM    6  O   UNL     1     -12.617  15.195  74.309  1.00  0.00    -0.535 OA 
HETATM    7  C   UNL     1     -13.032  14.802  73.082  1.00  0.00    -0.517 C  
HETATM    8  O   UNL     1     -13.562  13.719  72.887  1.00  0.00    -0.681 OA 
ENDBRANCH   4   5
ENDBRANCH   3   4
ENDBRANCH   1   3
BRANCH   2   9
HETATM    9  C   UNL     1     -12.141  12.804  67.630  1.00  0.00    -0.200 C  
BRANCH   9  10
HETATM   10  C   UNL     1     -11.224  13.223  66.469  1.00  0.00    -0.329 C  
HETATM   11  H   UNL     1     -12.698  15.931  64.097  1.00  0.00     0.000 HD 
HETATM   12  C   UNL     1     -11.529  12.416  65.196  1.00  0.00    -0.334 C  
HETATM   13  O   UNL     1     -12.478  15.036  63.865  1.00  0.00    -0.790 OA 
HETATM   14  O   UNL     1     -12.930  12.352  64.937  1.00  0.00    -0.762 OA 
HETATM   15  C   UNL     1     -10.878  13.235  64.093  1.00  0.00    -0.369 C  
HETATM   16  C   UNL     1     -11.371  14.701  66.010  1.00  0.00    -0.344 C  
HETATM   17  H   UNL     1     -13.117  11.853  64.150  1.00  0.00     0.000 HD 
HETATM   18  C   UNL     1     -11.231  14.674  64.465  1.00  0.00    -0.282 C  
BRANCH  16  19
HETATM   19  C   UNL     1     -10.388  15.641  66.668  1.00  0.00    -0.290 C  
HETATM   20  C   UNL     1      -9.183  15.289  67.151  1.00  0.00    -0.223 C  
BRANCH  20  21
HETATM   21  C   UNL     1      -8.222  16.196  67.871  1.00  0.00    -0.153 C  
HETATM   22  O   UNL     1      -7.533  17.022  66.939  1.00  0.00    -0.171 OA 
HETATM   23  H   UNL     1      -6.926  17.595  67.393  1.00  0.00     0.000 HD 
BRANCH  21  24
HETATM   24  C   UNL     1      -8.941  17.100  68.878  1.00  0.00    -0.189 C  
BRANCH  24  25
HETATM   25  C   UNL     1      -8.890  18.598  68.560  1.00  0.00    -0.361 C  
BRANCH  25  26
HETATM   26  C   UNL     1     -10.234  19.154  68.091  1.00  0.00    -0.489 C  
BRANCH  26  27
HETATM   27  C   UNL     1     -10.245  19.401  66.584  1.00  0.00    -0.533 C  
HETATM   28  C   UNL     1      -8.913  19.964  66.117  1.00  0.00    -0.373 C  
ENDBRANCH  26  27
ENDBRANCH  25  26
ENDBRANCH  24  25
ENDBRANCH  21  24
ENDBRANCH  20  21
ENDBRANCH  16  19
ENDBRANCH   9  10
ENDBRANCH   2   9
TORSDOF 11
ENDMDL
MODEL        5
REMARK 921   NORMALIZED FREE ENERGY PREDICTED BY IDOCK:   -5.85 KCAL/MOL
REMARK 922        TOTAL FREE ENERGY PREDICTED BY IDOCK:  -12.01 KCAL/MOL
REMARK 923 INTER-LIGAND FREE ENERGY PREDICTED BY IDOCK:  -10.13 KCAL/MOL
REMARK 924 INTRA-LIGAND FREE ENERGY PREDICTED BY IDOCK:   -1.88 KCAL/MOL
REMARK 927      BINDING AFFINITY PREDICTED BY RF-SCORE:    0.00 PKD
ROOT
HETATM    1  C   UNL     1      -9.706  15.827  68.707  1.00  0.00    -0.213 C  
HETATM    2  C   UNL     1     -10.237  14.942  67.850  1.00  0.00    -0.228 C  
ENDROOT
BRANCH   1   3
HETATM    3  C   UNL     1     -10.363  17.078  69.221  1.00  0.00    -0.276 C  
BRANCH   3   4
HETATM    4  C   UNL     1      -9.852  18.324  68.494  1.00  0.00    -0.400 C  
BRANCH   4   5
HETATM    5  C   UNL     1     -10.754  18.721  67.325  1.00  0.00    -0.490 C  
HETATM    6  O   UNL     1     -10.973  18.655  64.959  1.00  0.00    -0.559 OA 
HETATM    7  C   UNL     1     -10.170  18.316  65.995  1.00  0.00    -0.323 C  
HETATM    8  O   UNL     1      -9.105  17.739  65.836  1.00  0.00    -0.516 OA 
ENDBRANCH   4   5
ENDBRANCH   3   4
ENDBRANCH   1   3
BRANCH   2   9
HETATM    9  C   UNL     1     -11.578  15.047  67.175  1.00  0.00    -0.271 C  
BRANCH   9  10
HETATM   10  C   UNL     1     -12.109  13.758  66.528  1.00  0.00    -0.483 C  
HETATM   11  H   UNL     1      -9.506  11.759  64.442  1.00  0.00     0.000 HD 
HETATM   12  C   UNL     1     -12.581  14.008  65.087  1.00  0.00    -0.428 C  
HETATM   13  O   UNL     1     -10.293  12.176  64.113  1.00  0.00    -0.305 OA 
HETATM   14  O   UNL     1     -11.628  14.768  64.346  1.00  0.00    -0.577 OA 
HETATM   15  C   UNL     1     -12.643  12.613  64.487  1.00  0.00    -0.491 C  
HETATM   16  C   UNL     1     -11.070  12.613  66.381  1.00  0.00    -0.325 C  
HETATM   17  H   UNL     1     -11.919  14.923  63.456  1.00  0.00     0.000 HD 
HETATM   18  C   UNL     1     -11.377  11.942  65.017  1.00  0.00    -0.273 C  
BRANCH  16  19
HETATM   19  C   UNL     1     -11.082  11.631  67.529  1.00  0.00    -0.333 C  
HETATM   20  C   UNL     1     -11.824  11.751  68.645  1.00  0.00    -0.369 C  
BRANCH  20  21
HETATM   21  C   UNL     1     -11.797  10.820  69.827  1.00  0.00    -0.335 C  
HETATM   22  O   UNL     1     -10.455  10.582  70.235  1.00  0.00    -0.441 OA 
HETATM   23  H   UNL     1     -10.437   9.994  70.981  1.00  0.00     0.000 HD 
BRANCH  21  24
HETATM   24  C   UNL     1     -12.569  11.396  71.019  1.00  0.00    -0.487 C  
BRANCH  24  25
HETATM   25  C   UNL     1     -12.589  12.926  71.104  1.00  0.00    -0.373 C  
BRANCH  25  26
HETATM   26  C   UNL     1     -13.523  13.450  72.194  1.00  0.00    -0.646 C  
BRANCH  26  27
HETATM   27  C   UNL     1     -13.341  14.950  72.416  1.00  0.00    -0.502 C  
HETATM   28  C   UNL     1     -11.981  15.412  71.918  1.00  0.00    -0.483 C  
ENDBRANCH  26  27
ENDBRANCH  25  26
ENDBRANCH  24  25
ENDBRANCH  21  24
ENDBRANCH  20  21
ENDBRANCH  16  19
ENDBRANCH   9  10
ENDBRANCH   2   9
TORSDOF 11
ENDMDL
MODEL        6
REMARK 921   NORMALIZED FREE ENERGY PREDICTED BY IDOCK:   -5.75 KCAL/MOL
REMARK 922        TOTAL FREE ENERGY PREDICTED BY IDOCK:  -11.84 KCAL/MOL
REMARK 923 INTER-LIGAND FREE ENERGY PREDICTED BY IDOCK:   -9.52 KCAL/MOL
REMARK 924 INTRA-LIGAND FREE ENERGY PREDICTED BY IDOCK:   -2.32 KCAL/MOL
REMARK 927      BINDING AFFINITY PREDICTED BY RF-SCORE:    0.00 PKD
ROOT
HETATM    1  C   UNL     1     -12.013  11.595  63.721  1.00  0.00    -0.357 C  
HETATM    2  C   UNL     1     -12.766  12.515  64.342  1.00  0.00    -0.447 C  
ENDROOT
BRANCH   1   3
HETATM    3  C   UNL     1     -10.586  11.758  63.277  1.00  0.00    -0.427 C  
BRANCH   3   4
HETATM    4  C   UNL     1      -9.697  10.631  63.807  1.00  0.00    -0.382 C  
BRANCH   4   5
HETATM    5  C   UNL     1      -9.956  10.338  65.285  1.00  0.00    -0.387 C  
HETATM    6  O   UNL     1      -8.924  10.170  67.419  1.00  0.00    -0.134 OA 
HETATM    7  C   UNL     1      -8.695  10.416  66.108  1.00  0.00    -0.152 C  
HETATM    8  O   UNL     1      -7.583  10.679  65.676  1.00  0.00    -0.151 OA 
ENDBRANCH   4   5
ENDBRANCH   3   4
ENDBRANCH   1   3
BRANCH   2   9
HETATM    9  C   UNL     1     -12.358  13.926  64.671  1.00  0.00    -0.421 C  
BRANCH   9  10
HETATM   10  C   UNL     1     -11.205  14.076  65.677  1.00  0.00    -0.310 C  
HETATM   11  H   UNL     1     -11.525  17.086  68.119  1.00  0.00     0.000 HD 
HETATM   12  C   UNL     1     -10.129  15.041  65.154  1.00  0.00    -0.315 C  
HETATM   13  O   UNL     1     -10.852  16.963  67.460  1.00  0.00    -0.304 OA 
HETATM   14  O   UNL     1     -10.704  16.237  64.630  1.00  0.00    -0.782 OA 
HETATM   15  C   UNL     1      -9.338  15.401  66.401  1.00  0.00    -0.331 C  
HETATM   16  C   UNL     1     -11.600  14.680  67.053  1.00  0.00    -0.385 C  
HETATM   17  H   UNL     1     -10.039  16.833  64.307  1.00  0.00     0.000 HD 
HETATM   18  C   UNL     1     -10.420  15.600  67.461  1.00  0.00    -0.285 C  
BRANCH  16  19
HETATM   19  C   UNL     1     -11.919  13.640  68.102  1.00  0.00    -0.390 C  
HETATM   20  C   UNL     1     -11.770  12.312  67.949  1.00  0.00    -0.410 C  
BRANCH  20  21
HETATM   21  C   UNL     1     -12.147  11.260  68.956  1.00  0.00    -0.257 C  
HETATM   22  O   UNL     1     -11.470  10.041  68.672  1.00  0.00    -0.493 OA 
HETATM   23  H   UNL     1     -11.708   9.377  69.307  1.00  0.00     0.000 HD 
BRANCH  21  24
HETATM   24  C   UNL     1     -11.792  11.689  70.384  1.00  0.00    -0.385 C  
BRANCH  24  25
HETATM   25  C   UNL     1     -12.880  11.428  71.431  1.00  0.00    -0.502 C  
BRANCH  25  26
HETATM   26  C   UNL     1     -13.489  12.714  71.989  1.00  0.00    -0.516 C  
BRANCH  26  27
HETATM   27  C   UNL     1     -12.704  13.946  71.546  1.00  0.00    -0.440 C  
HETATM   28  C   UNL     1     -13.635  15.119  71.287  1.00  0.00    -0.559 C  
ENDBRANCH  26  27
ENDBRANCH  25  26
ENDBRANCH  24  25
ENDBRANCH  21  24
ENDBRANCH  20  21
ENDBRANCH  16  19
ENDBRANCH   9  10
ENDBRANCH   2   9
TORSDOF 11
ENDMDL
MODEL        7
REMARK 921   NORMALIZED FREE ENERGY PREDICTED BY IDOCK:   -5.74 KCAL/MOL
REMARK 922        TOTAL FREE ENERGY PREDICTED BY IDOCK:  -11.83 KCAL/MOL
REMARK 923 INTER-LIGAND FREE ENERGY PREDICTED BY IDOCK:  -10.06 KCAL/MOL
REMARK 924 INTRA-LIGAND FREE ENERGY PREDICTED BY IDOCK:   -1.77 KCAL/MOL
REMARK 927      BINDING AFFINITY PREDICTED BY RF-SCORE:    0.00 PKD
ROOT
HETATM    1  C   UNL     1     -11.059  14.328  68.860  1.00  0.00    -0.283 C  
HETATM    2  C   UNL     1     -11.052  14.378  67.520  1.00  0.00    -0.312 C  
ENDROOT
BRANCH   1   3
HETATM    3  C   UNL     1     -12.240  14.017  69.737  1.00  0.00    -0.396 C  
BRANCH   3   4
HETATM    4  C   UNL     1     -12.728  15.257  70.489  1.00  0.00    -0.440 C  
BRANCH   4   5
HETATM    5  C   UNL     1     -12.053  15.407  71.853  1.00  0.00    -0.463 C  
HETATM    6  O   UNL     1     -12.266  14.908  74.168  1.00  0.00    -0.546 OA 
HETATM    7  C   UNL     1     -12.867  14.788  72.961  1.00  0.00    -0.485 C  
HETATM    8  O   UNL     1     -13.943  14.225  72.819  1.00  0.00    -0.600 OA 
ENDBRANCH   4   5
ENDBRANCH   3   4
ENDBRANCH   1   3
BRANCH   2   9
HETATM    9  C   UNL     1     -12.239  14.193  66.614  1.00  0.00    -0.450 C  
BRANCH   9  10
HETATM   10  C   UNL     1     -12.239  12.917  65.756  1.00  0.00    -0.498 C  
HETATM   11  H   UNL     1      -8.958  12.256  63.776  1.00  0.00     0.000 HD 
HETATM   12  C   UNL     1     -12.662  13.215  64.309  1.00  0.00    -0.115 C  
HETATM   13  O   UNL     1      -9.815  12.430  63.406  1.00  0.00    -0.370 OA 
HETATM   14  O   UNL     1     -11.984  14.356  63.787  1.00  0.00    -0.769 OA 
HETATM   15  C   UNL     1     -12.190  11.990  63.542  1.00  0.00    -0.653 C  
HETATM   16  C   UNL     1     -10.857  12.224  65.599  1.00  0.00    -0.321 C  
HETATM   17  H   UNL     1     -12.245  14.541  62.893  1.00  0.00     0.000 HD 
HETATM   18  C   UNL     1     -10.811  11.710  64.137  1.00  0.00    -0.372 C  
BRANCH  16  19
HETATM   19  C   UNL     1     -10.609  11.129  66.610  1.00  0.00    -0.314 C  
HETATM   20  C   UNL     1      -9.697  11.176  67.597  1.00  0.00    -0.184 C  
BRANCH  20  21
HETATM   21  C   UNL     1      -9.389  10.069  68.568  1.00  0.00    -0.145 C  
HETATM   22  O   UNL     1      -8.426  10.503  69.521  1.00  0.00    -0.304 OA 
HETATM   23  H   UNL     1      -8.231   9.804  70.134  1.00  0.00     0.000 HD 
BRANCH  21  24
HETATM   24  C   UNL     1     -10.642   9.610  69.322  1.00  0.00    -0.236 C  
BRANCH  24  25
HETATM   25  C   UNL     1     -11.188  10.612  70.345  1.00  0.00    -0.334 C  
BRANCH  25  26
HETATM   26  C   UNL     1     -12.709  10.557  70.479  1.00  0.00    -0.385 C  
BRANCH  26  27
HETATM   27  C   UNL     1     -13.143  10.509  71.943  1.00  0.00    -0.567 C  
HETATM   28  C   UNL     1     -13.410   9.079  72.383  1.00  0.00    -0.516 C  
ENDBRANCH  26  27
ENDBRANCH  25  26
ENDBRANCH  24  25
ENDBRANCH  21  24
ENDBRANCH  20  21
ENDBRANCH  16  19
ENDBRANCH   9  10
ENDBRANCH   2   9
TORSDOF 11
ENDMDL
MODEL        8
REMARK 921   NORMALIZED FREE ENERGY PREDICTED BY IDOCK:   -5.69 KCAL/MOL
REMARK 922        TOTAL FREE ENERGY PREDICTED BY IDOCK:  -11.74 KCAL/MOL
REMARK 923 INTER-LIGAND FREE ENERGY PREDICTED BY IDOCK:   -9.52 KCAL/MOL
REMARK 924 INTRA-LIGAND FREE ENERGY PREDICTED BY IDOCK:   -2.22 KCAL/MOL
REMARK 927      BINDING AFFINITY PREDICTED BY RF-SCORE:    0.00 PKD
ROOT
HETATM    1  C   UNL     1     -10.877  12.766  68.589  1.00  0.00    -0.284 C  
HETATM    2  C   UNL     1      -9.715  13.362  68.281  1.00  0.00    -0.226 C  
ENDROOT
BRANCH   1   3
HETATM    3  C   UNL     1     -12.111  13.436  69.127  1.00  0.00    -0.306 C  
BRANCH   3   4
HETATM    4  C   UNL     1     -12.311  13.140  70.615  1.00  0.00    -0.405 C  
BRANCH   4   5
HETATM    5  C   UNL     1     -12.299  14.412  71.463  1.00  0.00    -0.427 C  
HETATM    6  O   UNL     1     -13.472  15.609  73.149  1.00  0.00    -0.531 OA 
HETATM    7  C   UNL     1     -13.488  14.490  72.387  1.00  0.00    -0.448 C  
HETATM    8  O   UNL     1     -14.374  13.653  72.472  1.00  0.00    -0.707 OA 
ENDBRANCH   4   5
ENDBRANCH   3   4
ENDBRANCH   1   3
BRANCH   2   9
HETATM    9  C   UNL     1      -9.383  14.817  68.468  1.00  0.00    -0.199 C  
BRANCH   9  10
HETATM   10  C   UNL     1     -10.228  15.811  67.653  1.00  0.00    -0.266 C  
HETATM   11  H   UNL     1      -8.243  17.942  65.075  1.00  0.00     0.000 HD 
HETATM   12  C   UNL     1     -10.234  17.204  68.303  1.00  0.00    -0.334 C  
HETATM   13  O   UNL     1      -8.708  18.267  65.837  1.00  0.00    -0.500 OA 
HETATM   14  O   UNL     1      -8.921  17.614  68.680  1.00  0.00    -0.286 OA 
HETATM   15  C   UNL     1     -10.713  18.115  67.184  1.00  0.00    -0.309 C  
HETATM   16  C   UNL     1      -9.722  16.082  66.209  1.00  0.00    -0.332 C  
HETATM   17  H   UNL     1      -8.926  18.475  69.082  1.00  0.00     0.000 HD 
HETATM   18  C   UNL     1      -9.964  17.593  65.958  1.00  0.00    -0.209 C  
BRANCH  16  19
HETATM   19  C   UNL     1     -10.373  15.206  65.164  1.00  0.00    -0.416 C  
HETATM   20  C   UNL     1     -11.511  14.509  65.335  1.00  0.00    -0.348 C  
BRANCH  20  21
HETATM   21  C   UNL     1     -12.135  13.579  64.331  1.00  0.00    -0.420 C  
HETATM   22  O   UNL     1     -12.608  14.312  63.207  1.00  0.00    -1.069 OA 
HETATM   23  H   UNL     1     -13.002  13.725  62.573  1.00  0.00     0.000 HD 
BRANCH  21  24
HETATM   24  C   UNL     1     -11.137  12.526  63.837  1.00  0.00    -0.476 C  
BRANCH  24  25
HETATM   25  C   UNL     1     -10.758  11.455  64.866  1.00  0.00    -0.350 C  
BRANCH  25  26
HETATM   26  C   UNL     1      -9.313  11.580  65.349  1.00  0.00    -0.177 C  
BRANCH  26  27
HETATM   27  C   UNL     1      -8.921  10.412  66.253  1.00  0.00    -0.172 C  
HETATM   28  C   UNL     1     -10.140   9.592  66.640  1.00  0.00    -0.321 C  
ENDBRANCH  26  27
ENDBRANCH  25  26
ENDBRANCH  24  25
ENDBRANCH  21  24
ENDBRANCH  20  21
ENDBRANCH  16  19
ENDBRANCH   9  10
ENDBRANCH   2   9
TORSDOF 11
ENDMDL
MODEL        9
REMARK 921   NORMALIZED FREE ENERGY PREDICTED BY IDOCK:   -5.68 KCAL/MOL
REMARK 922        TOTAL FREE ENERGY PREDICTED BY IDOCK:  -11.72 KCAL/MOL
REMARK 923 INTER-LIGAND FREE ENERGY PREDICTED BY IDOCK:   -9.76 KCAL/MOL
REMARK 924 INTRA-LIGAND FREE ENERGY PREDICTED BY IDOCK:   -1.96 KCAL/MOL
REMARK 927      BINDING AFFINITY PREDICTED BY RF-SCORE:    0.00 PKD
ROOT
HETATM    1  C   UNL     1     -10.886  12.855  68.231  1.00  0.00    -0.263 C  
HETATM    2  C   UNL     1     -11.145  12.582  69.519  1.00  0.00    -0.073 C  
ENDROOT
BRANCH   1   3
HETATM    3  C   UNL     1     -11.871  13.342  67.205  1.00  0.00    -0.429 C  
BRANCH   3   4
HETATM    4  C   UNL     1     -11.230  13.464  65.821  1.00  0.00    -0.305 C  
BRANCH   4   5
HETATM    5  C   UNL     1     -10.710  14.876  65.547  1.00  0.00    -0.369 C  
HETATM    6  O   UNL     1     -11.105  16.860  64.300  1.00  0.00    -1.135 OA 
HETATM    7  C   UNL     1     -11.556  15.605  64.534  1.00  0.00    -0.262 C  
HETATM    8  O   UNL     1     -12.545  15.151  63.979  1.00  0.00    -0.791 OA 
ENDBRANCH   4   5
ENDBRANCH   3   4
ENDBRANCH   1   3
BRANCH   2   9
HETATM    9  C   UNL     1     -12.489  12.648  70.192  1.00  0.00    -0.099 C  
BRANCH   9  10
HETATM   10  C   UNL     1     -12.969  14.050  70.601  1.00  0.00    -0.261 C  
HETATM   11  H   UNL     1     -11.551  15.362  73.977  1.00  0.00     0.000 HD 
HETATM   12  C   UNL     1     -14.195  13.973  71.526  1.00  0.00    -0.134 C  
HETATM   13  O   UNL     1     -12.462  15.174  73.782  1.00  0.00    -0.521 OA 
HETATM   14  O   UNL     1     -14.011  13.012  72.564  1.00  0.00    -0.632 OA 
HETATM   15  C   UNL     1     -14.248  15.353  72.160  1.00  0.00    -0.660 C  
HETATM   16  C   UNL     1     -11.947  14.888  71.417  1.00  0.00    -0.399 C  
HETATM   17  H   UNL     1     -14.769  12.965  73.135  1.00  0.00     0.000 HD 
HETATM   18  C   UNL     1     -12.784  15.655  72.474  1.00  0.00    -0.433 C  
BRANCH  16  19
HETATM   19  C   UNL     1     -11.100  15.806  70.567  1.00  0.00    -0.383 C  
HETATM   20  C   UNL     1     -11.465  16.320  69.378  1.00  0.00    -0.238 C  
BRANCH  20  21
HETATM   21  C   UNL     1     -10.609  17.177  68.487  1.00  0.00    -0.361 C  
HETATM   22  O   UNL     1     -10.339  18.425  69.116  1.00  0.00    -0.477 OA 
HETATM   23  H   UNL     1      -9.798  18.966  68.553  1.00  0.00     0.000 HD 
BRANCH  21  24
HETATM   24  C   UNL     1      -9.272  16.500  68.163  1.00  0.00    -0.217 C  
BRANCH  24  25
HETATM   25  C   UNL     1      -8.112  17.459  67.870  1.00  0.00    -0.220 C  
BRANCH  25  26
HETATM   26  C   UNL     1      -8.033  17.866  66.399  1.00  0.00    -0.302 C  
BRANCH  26  27
HETATM   27  C   UNL     1      -8.004  19.385  66.237  1.00  0.00    -0.330 C  
HETATM   28  C   UNL     1      -9.413  19.953  66.191  1.00  0.00    -0.466 C  
ENDBRANCH  26  27
ENDBRANCH  25  26
ENDBRANCH  24  25
ENDBRANCH  21  24
ENDBRANCH  20  21
ENDBRANCH  16  19
ENDBRANCH   9  10
ENDBRANCH   2   9
TORSDOF 11
ENDMDL
MODEL       10
REMARK 921   NORMALIZED FREE ENERGY PREDICTED BY IDOCK:   -5.67 KCAL/MOL
REMARK 922        TOTAL FREE ENERGY PREDICTED BY IDOCK:  -11.71 KCAL/MOL
REMARK 923 INTER-LIGAND FREE ENERGY PREDICTED BY IDOCK:   -9.02 KCAL/MOL
REMARK 924 INTRA-LIGAND FREE ENERGY PREDICTED BY IDOCK:   -2.69 KCAL/MOL
REMARK 927      BINDING AFFINITY PREDICTED BY RF-SCORE:    0.00 PKD
ROOT
HETATM    1  C   UNL     1      -9.164  10.312  68.052  1.00  0.00    -0.138 C  
HETATM    2  C   UNL     1      -8.725  10.742  66.860  1.00  0.00    -0.141 C  
ENDROOT
BRANCH   1   3
HETATM    3  C   UNL     1     -10.513   9.718  68.348  1.00  0.00    -0.250 C  
BRANCH   3   4
HETATM    4  C   UNL     1     -10.844   9.781  69.840  1.00  0.00    -0.306 C  
BRANCH   4   5
HETATM    5  C   UNL     1     -11.566  11.075  70.218  1.00  0.00    -0.414 C  
HETATM    6  O   UNL     1     -13.242  11.998  71.627  1.00  0.00    -0.410 OA 
HETATM    7  C   UNL     1     -12.610  10.852  71.282  1.00  0.00    -0.421 C  
HETATM    8  O   UNL     1     -12.874   9.778  71.801  1.00  0.00    -0.370 OA 
ENDBRANCH   4   5
ENDBRANCH   3   4
ENDBRANCH   1   3
BRANCH   2   9
HETATM    9  C   UNL     1      -9.514  10.776  65.579  1.00  0.00    -0.253 C  
BRANCH   9  10
HETATM   10  C   UNL     1     -10.225  12.101  65.260  1.00  0.00    -0.304 C  
HETATM   11  H   UNL     1     -14.104  11.893  65.065  1.00  0.00     0.000 HD 
HETATM   12  C   UNL     1     -10.487  12.248  63.753  1.00  0.00    -0.444 C  
HETATM   13  O   UNL     1     -13.513  12.109  64.353  1.00  0.00    -0.675 OA 
HETATM   14  O   UNL     1     -11.041  11.056  63.197  1.00  0.00    -0.770 OA 
HETATM   15  C   UNL     1     -11.542  13.340  63.681  1.00  0.00    -0.376 C  
HETATM   16  C   UNL     1     -11.633  12.268  65.896  1.00  0.00    -0.450 C  
HETATM   17  H   UNL     1     -11.203  11.147  62.266  1.00  0.00     0.000 HD 
HETATM   18  C   UNL     1     -12.491  12.991  64.826  1.00  0.00    -0.427 C  
BRANCH  16  19
HETATM   19  C   UNL     1     -11.619  12.994  67.220  1.00  0.00    -0.409 C  
HETATM   20  C   UNL     1     -11.998  14.271  67.409  1.00  0.00    -0.426 C  
BRANCH  20  21
HETATM   21  C   UNL     1     -11.925  15.030  68.706  1.00  0.00    -0.249 C  
HETATM   22  O   UNL     1     -12.823  14.469  69.656  1.00  0.00    -0.545 OA 
HETATM   23  H   UNL     1     -12.777  14.949  70.475  1.00  0.00     0.000 HD 
BRANCH  21  24
HETATM   24  C   UNL     1     -10.512  15.002  69.301  1.00  0.00    -0.252 C  
BRANCH  24  25
HETATM   25  C   UNL     1      -9.625  16.195  68.926  1.00  0.00    -0.245 C  
BRANCH  25  26
HETATM   26  C   UNL     1      -8.233  15.776  68.456  1.00  0.00    -0.166 C  
BRANCH  26  27
HETATM   27  C   UNL     1      -8.289  15.037  67.120  1.00  0.00    -0.244 C  
HETATM   28  C   UNL     1      -8.953  15.893  66.054  1.00  0.00    -0.337 C  
ENDBRANCH  26  27
ENDBRANCH  25  26
ENDBRANCH  24  25
ENDBRANCH  21  24
ENDBRANCH  20  21
ENDBRANCH  16  19
ENDBRANCH   9  10
ENDBRANCH   2   9
TORSDOF 11
ENDMDL
MODEL       11
REMARK 921   NORMALIZED FREE ENERGY PREDICTED BY IDOCK:   -5.60 KCAL/MOL
REMARK 922        TOTAL FREE ENERGY PREDICTED BY IDOCK:  -11.59 KCAL/MOL
REMARK 923 INTER-LIGAND FREE ENERGY PREDICTED BY IDOCK:   -9.16 KCAL/MOL
REMARK 924 INTRA-LIGAND FREE ENERGY PREDICTED BY IDOCK:   -2.44 KCAL/MOL
REMARK 927      BINDING AFFINITY PREDICTED BY RF-SCORE:    0.00 PKD
ROOT
HETATM    1  C   UNL     1     -13.426  13.408  72.198  1.00  0.00    -0.646 C  
HETATM    2  C   UNL     1     -13.181  12.089  72.199  1.00  0.00    -0.400 C  
ENDROOT
BRANCH   1   3
HETATM    3  C   UNL     1     -13.660  14.274  70.992  1.00  0.00    -0.216 C  
BRANCH   3   4
HETATM    4  C   UNL     1     -12.820  15.551  71.041  1.00  0.00    -0.543 C  
BRANCH   4   5
HETATM    5  C   UNL     1     -11.328  15.268  70.862  1.00  0.00    -0.380 C  
HETATM    6  O   UNL     1      -9.466  15.613  69.425  1.00  0.00    -0.251 OA 
HETATM    7  C   UNL     1     -10.790  15.851  69.580  1.00  0.00    -0.305 C  
HETATM    8  O   UNL     1     -11.441  16.480  68.760  1.00  0.00    -0.291 OA 
ENDBRANCH   4   5
ENDBRANCH   3   4
ENDBRANCH   1   3
BRANCH   2   9
HETATM    9  C   UNL     1     -13.029  11.210  70.987  1.00  0.00    -0.338 C  
BRANCH   9  10
HETATM   10  C   UNL     1     -11.668  11.277  70.274  1.00  0.00    -0.415 C  
HETATM   11  H   UNL     1     -11.508   9.444  66.847  1.00  0.00     0.000 HD 
HETATM   12  C   UNL     1     -10.805  10.047  70.598  1.00  0.00    -0.297 C  
HETATM   13  O   UNL     1     -11.017   9.222  67.630  1.00  0.00    -0.204 OA 
HETATM   14  O   UNL     1     -11.550   8.836  70.480  1.00  0.00    -0.377 OA 
HETATM   15  C   UNL     1      -9.745  10.061  69.510  1.00  0.00    -0.253 C  
HETATM   16  C   UNL     1     -11.734  11.280  68.722  1.00  0.00    -0.405 C  
HETATM   17  H   UNL     1     -11.016   8.076  70.681  1.00  0.00     0.000 HD 
HETATM   18  C   UNL     1     -10.534  10.417  68.251  1.00  0.00    -0.191 C  
BRANCH  16  19
HETATM   19  C   UNL     1     -11.729  12.664  68.117  1.00  0.00    -0.396 C  
HETATM   20  C   UNL     1     -11.885  12.940  66.810  1.00  0.00    -0.452 C  
BRANCH  20  21
HETATM   21  C   UNL     1     -11.813  14.306  66.181  1.00  0.00    -0.402 C  
HETATM   22  O   UNL     1     -10.492  14.824  66.280  1.00  0.00    -0.281 OA 
HETATM   23  H   UNL     1     -10.446  15.686  65.884  1.00  0.00     0.000 HD 
BRANCH  21  24
HETATM   24  C   UNL     1     -12.209  14.270  64.701  1.00  0.00    -0.470 C  
BRANCH  24  25
HETATM   25  C   UNL     1     -12.283  12.870  64.081  1.00  0.00    -0.487 C  
BRANCH  25  26
HETATM   26  C   UNL     1     -10.944  12.397  63.518  1.00  0.00    -0.506 C  
BRANCH  26  27
HETATM   27  C   UNL     1     -10.616  10.975  63.968  1.00  0.00    -0.395 C  
HETATM   28  C   UNL     1      -9.335  10.946  64.784  1.00  0.00    -0.259 C  
ENDBRANCH  26  27
ENDBRANCH  25  26
ENDBRANCH  24  25
ENDBRANCH  21  24
ENDBRANCH  20  21
ENDBRANCH  16  19
ENDBRANCH   9  10
ENDBRANCH   2   9
TORSDOF 11
ENDMDL
MODEL       12
REMARK 921   NORMALIZED FREE ENERGY PREDICTED BY IDOCK:   -5.58 KCAL/MOL
REMARK 922        TOTAL FREE ENERGY PREDICTED BY IDOCK:  -11.57 KCAL/MOL
REMARK 923 INTER-LIGAND FREE ENERGY PREDICTED BY IDOCK:   -9.71 KCAL/MOL
REMARK 924 INTRA-LIGAND FREE ENERGY PREDICTED BY IDOCK:   -1.86 KCAL/MOL
REMARK 927      BINDING AFFINITY PREDICTED BY RF-SCORE:    0.00 PKD
ROOT
HETATM    1  C   UNL     1     -10.607  10.471  66.593  1.00  0.00    -0.263 C  
HETATM    2  C   UNL     1     -11.354  11.095  67.516  1.00  0.00    -0.351 C  
ENDROOT
BRANCH   1   3
HETATM    3  C   UNL     1      -9.781  11.124  65.520  1.00  0.00    -0.271 C  
BRANCH   3   4
HETATM    4  C   UNL     1     -10.505  11.129  64.173  1.00  0.00    -0.442 C  
BRANCH   4   5
HETATM    5  C   UNL     1     -10.821  12.545  63.692  1.00  0.00    -0.486 C  
HETATM    6  O   UNL     1     -12.539  14.181  63.530  1.00  0.00    -0.834 OA 
HETATM    7  C   UNL     1     -12.260  12.922  63.943  1.00  0.00    -0.449 C  
HETATM    8  O   UNL     1     -13.098  12.204  64.467  1.00  0.00    -0.720 OA 
ENDBRANCH   4   5
ENDBRANCH   3   4
ENDBRANCH   1   3
BRANCH   2   9
HETATM    9  C   UNL     1     -11.570  12.579  67.634  1.00  0.00    -0.416 C  
BRANCH   9  10
HETATM   10  C   UNL     1     -11.119  13.222  68.956  1.00  0.00    -0.291 C  
HETATM   11  H   UNL     1     -13.757  15.513  70.664  1.00  0.00     0.000 HD 
HETATM   12  C   UNL     1     -10.535  14.626  68.725  1.00  0.00    -0.246 C  
HETATM   13  O   UNL     1     -12.915  15.783  70.317  1.00  0.00    -0.340 OA 
HETATM   14  O   UNL     1     -11.365  15.405  67.865  1.00  0.00    -0.327 OA 
HETATM   15  C   UNL     1     -10.563  15.253  70.109  1.00  0.00    -0.279 C  
HETATM   16  C   UNL     1     -12.248  13.461  69.996  1.00  0.00    -0.367 C  
HETATM   17  H   UNL     1     -11.004  16.272  67.722  1.00  0.00     0.000 HD 
HETATM   18  C   UNL     1     -11.917  14.820  70.667  1.00  0.00    -0.309 C  
BRANCH  16  19
HETATM   19  C   UNL     1     -12.399  12.339  70.996  1.00  0.00    -0.320 C  
HETATM   20  C   UNL     1     -12.320  11.027  70.708  1.00  0.00    -0.496 C  
BRANCH  20  21
HETATM   21  C   UNL     1     -12.537   9.896  71.676  1.00  0.00    -0.424 C  
HETATM   22  O   UNL     1     -13.675   9.132  71.293  1.00  0.00    -0.515 OA 
HETATM   23  H   UNL     1     -13.812   8.418  71.904  1.00  0.00     0.000 HD 
BRANCH  21  24
HETATM   24  C   UNL     1     -11.324   8.961  71.737  1.00  0.00    -0.431 C  
BRANCH  24  25
HETATM   25  C   UNL     1     -10.256   9.210  70.666  1.00  0.00    -0.306 C  
BRANCH  25  26
HETATM   26  C   UNL     1      -9.809   7.931  69.961  1.00  0.00    -0.181 C  
BRANCH  26  27
HETATM   27  C   UNL     1     -11.001   7.062  69.563  1.00  0.00    -0.251 C  
HETATM   28  C   UNL     1     -10.731   5.598  69.868  1.00  0.00    -0.399 C  
ENDBRANCH  26  27
ENDBRANCH  25  26
ENDBRANCH  24  25
ENDBRANCH  21  24
ENDBRANCH  20  21
ENDBRANCH  16  19
ENDBRANCH   9  10
ENDBRANCH   2   9
TORSDOF 11
ENDMDL
MODEL       13
REMARK 921   NORMALIZED FREE ENERGY PREDICTED BY IDOCK:   -5.58 KCAL/MOL
REMARK 922        TOTAL FREE ENERGY PREDICTED BY IDOCK:  -11.56 KCAL/MOL
REMARK 923 INTER-LIGAND FREE ENERGY PREDICTED BY IDOCK:   -9.43 KCAL/MOL
REMARK 924 INTRA-LIGAND FREE ENERGY PREDICTED BY IDOCK:   -2.13 KCAL/MOL
REMARK 927      BINDING AFFINITY PREDICTED BY RF-SCORE:    0.00 PKD
ROOT
HETATM    1  C   UNL     1      -9.948   8.968  67.222  1.00  0.00    -0.275 C  
HETATM    2  C   UNL     1     -10.233   9.487  66.018  1.00  0.00    -0.242 C  
ENDROOT
BRANCH   1   3
HETATM    3  C   UNL     1      -8.860   9.418  68.156  1.00  0.00    -0.124 C  
BRANCH   3   4
HETATM    4  C   UNL     1      -9.407  10.308  69.274  1.00  0.00    -0.221 C  
BRANCH   4   5
HETATM    5  C   UNL     1      -9.932   9.494  70.456  1.00  0.00    -0.335 C  
HETATM    6  O   UNL     1     -11.810   9.159  71.875  1.00  0.00    -0.354 OA 
HETATM    7  C   UNL     1     -11.337   9.888  70.837  1.00  0.00    -0.370 C  
HETATM    8  O   UNL     1     -12.004  10.751  70.286  1.00  0.00    -0.290 OA 
ENDBRANCH   4   5
ENDBRANCH   3   4
ENDBRANCH   1   3
BRANCH   2   9
HETATM    9  C   UNL     1      -9.482  10.591  65.323  1.00  0.00    -0.281 C  
BRANCH   9  10
HETATM   10  C   UNL     1     -10.221  11.934  65.202  1.00  0.00    -0.314 C  
HETATM   11  H   UNL     1     -14.096  11.676  64.994  1.00  0.00     0.000 HD 
HETATM   12  C   UNL     1     -10.496  12.290  63.732  1.00  0.00    -0.444 C  
HETATM   13  O   UNL     1     -13.515  12.005  64.318  1.00  0.00    -0.654 OA 
HETATM   14  O   UNL     1     -11.030  11.179  63.013  1.00  0.00    -0.820 OA 
HETATM   15  C   UNL     1     -11.572  13.359  63.822  1.00  0.00    -0.362 C  
HETATM   16  C   UNL     1     -11.628  11.979  65.860  1.00  0.00    -0.364 C  
HETATM   17  H   UNL     1     -11.200  11.399  62.105  1.00  0.00     0.000 HD 
HETATM   18  C   UNL     1     -12.507  12.831  64.908  1.00  0.00    -0.497 C  
BRANCH  16  19
HETATM   19  C   UNL     1     -11.619  12.507  67.275  1.00  0.00    -0.434 C  
HETATM   20  C   UNL     1     -12.022  13.735  67.647  1.00  0.00    -0.392 C  
BRANCH  20  21
HETATM   21  C   UNL     1     -11.955  14.302  69.039  1.00  0.00    -0.325 C  
HETATM   22  O   UNL     1     -11.045  13.550  69.834  1.00  0.00    -0.468 OA 
HETATM   23  H   UNL     1     -11.003  13.908  70.712  1.00  0.00     0.000 HD 
BRANCH  21  24
HETATM   24  C   UNL     1     -11.498  15.765  69.034  1.00  0.00    -0.394 C  
BRANCH  24  25
HETATM   25  C   UNL     1     -10.839  16.236  67.733  1.00  0.00    -0.315 C  
BRANCH  25  26
HETATM   26  C   UNL     1      -9.641  17.154  67.971  1.00  0.00    -0.267 C  
BRANCH  26  27
HETATM   27  C   UNL     1      -9.603  18.301  66.963  1.00  0.00    -0.291 C  
HETATM   28  C   UNL     1     -10.657  19.345  67.289  1.00  0.00    -0.599 C  
ENDBRANCH  26  27
ENDBRANCH  25  26
ENDBRANCH  24  25
ENDBRANCH  21  24
ENDBRANCH  20  21
ENDBRANCH  16  19
ENDBRANCH   9  10
ENDBRANCH   2   9
TORSDOF 11
ENDMDL
MODEL       14
REMARK 921   NORMALIZED FREE ENERGY PREDICTED BY IDOCK:   -5.56 KCAL/MOL
REMARK 922        TOTAL FREE ENERGY PREDICTED BY IDOCK:  -11.53 KCAL/MOL
REMARK 923 INTER-LIGAND FREE ENERGY PREDICTED BY IDOCK:   -9.83 KCAL/MOL
REMARK 924 INTRA-LIGAND FREE ENERGY PREDICTED BY IDOCK:   -1.70 KCAL/MOL
REMARK 927      BINDING AFFINITY PREDICTED BY RF-SCORE:    0.00 PKD
ROOT
HETATM    1  C   UNL     1     -11.649  11.758  63.866  1.00  0.00    -0.469 C  
HETATM    2  C   UNL     1     -10.509  11.063  63.994  1.00  0.00    -0.433 C  
ENDROOT
BRANCH   1   3
HETATM    3  C   UNL     1     -12.269  12.659  64.898  1.00  0.00    -0.531 C  
BRANCH   3   4
HETATM    4  C   UNL     1     -12.067  14.135  64.554  1.00  0.00    -0.489 C  
BRANCH   4   5
HETATM    5  C   UNL     1     -10.908  14.757  65.335  1.00  0.00    -0.372 C  
HETATM    6  O   UNL     1      -9.672  16.759  65.668  1.00  0.00    -0.539 OA 
HETATM    7  C   UNL     1     -10.689  16.203  64.969  1.00  0.00    -0.337 C  
HETATM    8  O   UNL     1     -11.341  16.833  64.150  1.00  0.00    -1.194 OA 
ENDBRANCH   4   5
ENDBRANCH   3   4
ENDBRANCH   1   3
BRANCH   2   9
HETATM    9  C   UNL     1      -9.642  10.991  65.223  1.00  0.00    -0.270 C  
BRANCH   9  10
HETATM   10  C   UNL     1     -10.271  10.313  66.451  1.00  0.00    -0.290 C  
HETATM   11  H   UNL     1      -8.073  10.341  69.659  1.00  0.00     0.000 HD 
HETATM   12  C   UNL     1      -9.834   8.844  66.564  1.00  0.00    -0.274 C  
HETATM   13  O   UNL     1      -8.350   9.575  69.172  1.00  0.00    -0.113 OA 
HETATM   14  O   UNL     1      -8.427   8.698  66.382  1.00  0.00    -0.106 OA 
HETATM   15  C   UNL     1     -10.167   8.485  68.003  1.00  0.00    -0.264 C  
HETATM   16  C   UNL     1      -9.868  10.922  67.823  1.00  0.00    -0.194 C  
HETATM   17  H   UNL     1      -8.157   7.790  66.451  1.00  0.00     0.000 HD 
HETATM   18  C   UNL     1      -9.720   9.717  68.788  1.00  0.00    -0.161 C  
BRANCH  16  19
HETATM   19  C   UNL     1     -10.837  11.963  68.333  1.00  0.00    -0.263 C  
HETATM   20  C   UNL     1     -10.492  13.146  68.872  1.00  0.00    -0.117 C  
BRANCH  20  21
HETATM   21  C   UNL     1     -11.440  14.162  69.448  1.00  0.00    -0.288 C  
HETATM   22  O   UNL     1     -12.535  14.372  68.564  1.00  0.00    -0.585 OA 
HETATM   23  H   UNL     1     -13.133  15.014  68.928  1.00  0.00     0.000 HD 
BRANCH  21  24
HETATM   24  C   UNL     1     -11.994  13.716  70.806  1.00  0.00    -0.286 C  
BRANCH  24  25
HETATM   25  C   UNL     1     -13.315  14.376  71.218  1.00  0.00    -0.409 C  
BRANCH  25  26
HETATM   26  C   UNL     1     -13.119  15.748  71.862  1.00  0.00    -0.492 C  
BRANCH  26  27
HETATM   27  C   UNL     1     -11.936  15.752  72.827  1.00  0.00    -0.598 C  
HETATM   28  C   UNL     1     -12.410  15.886  74.265  1.00  0.00    -0.755 C  
ENDBRANCH  26  27
ENDBRANCH  25  26
ENDBRANCH  24  25
ENDBRANCH  21  24
ENDBRANCH  20  21
ENDBRANCH  16  19
ENDBRANCH   9  10
ENDBRANCH   2   9
TORSDOF 11
ENDMDL
MODEL       15
REMARK 921   NORMALIZED FREE ENERGY PREDICTED BY IDOCK:   -5.55 KCAL/MOL
REMARK 922        TOTAL FREE ENERGY PREDICTED BY IDOCK:  -11.51 KCAL/MOL
REMARK 923 INTER-LIGAND FREE ENERGY PREDICTED BY IDOCK:   -9.33 KCAL/MOL
REMARK 924 INTRA-LIGAND FREE ENERGY PREDICTED BY IDOCK:   -2.19 KCAL/MOL
REMARK 927      BINDING AFFINITY PREDICTED BY RF-SCORE:    0.00 PKD
ROOT
HETATM    1  C   UNL     1     -11.962  13.328  69.790  1.00  0.00    -0.391 C  
HETATM    2  C   UNL     1     -11.664  14.599  70.097  1.00  0.00    -0.353 C  
ENDROOT
BRANCH   1   3
HETATM    3  C   UNL     1     -11.235  12.451  68.807  1.00  0.00    -0.318 C  
BRANCH   3   4
HETATM    4  C   UNL     1     -11.718  11.002  68.878  1.00  0.00    -0.400 C  
BRANCH   4   5
HETATM    5  C   UNL     1     -10.801  10.129  69.735  1.00  0.00    -0.320 C  
HETATM    6  O   UNL     1     -10.654   8.927  71.781  1.00  0.00    -0.314 OA 
HETATM    7  C   UNL     1     -11.459   9.711  71.026  1.00  0.00    -0.371 C  
HETATM    8  O   UNL     1     -12.589  10.016  71.376  1.00  0.00    -0.349 OA 
ENDBRANCH   4   5
ENDBRANCH   3   4
ENDBRANCH   1   3
BRANCH   2   9
HETATM    9  C   UNL     1     -10.578  15.436  69.478  1.00  0.00    -0.270 C  
BRANCH   9  10
HETATM   10  C   UNL     1     -10.984  16.263  68.247  1.00  0.00    -0.348 C  
HETATM   11  H   UNL     1      -8.394  16.292  65.346  1.00  0.00     0.000 HD 
HETATM   12  C   UNL     1     -10.421  17.692  68.323  1.00  0.00    -0.375 C  
HETATM   13  O   UNL     1      -8.671  17.039  65.863  1.00  0.00    -0.524 OA 
HETATM   14  O   UNL     1      -9.042  17.694  68.690  1.00  0.00    -0.282 OA 
HETATM   15  C   UNL     1     -10.532  18.193  66.892  1.00  0.00    -0.372 C  
HETATM   16  C   UNL     1     -10.455  15.732  66.887  1.00  0.00    -0.315 C  
HETATM   17  H   UNL     1      -8.695  18.577  68.737  1.00  0.00     0.000 HD 
HETATM   18  C   UNL     1     -10.087  16.991  66.060  1.00  0.00    -0.302 C  
BRANCH  16  19
HETATM   19  C   UNL     1     -11.429  14.827  66.168  1.00  0.00    -0.311 C  
HETATM   20  C   UNL     1     -11.178  14.175  65.019  1.00  0.00    -0.356 C  
BRANCH  20  21
HETATM   21  C   UNL     1     -12.158  13.327  64.254  1.00  0.00    -0.416 C  
HETATM   22  O   UNL     1     -12.437  13.916  62.989  1.00  0.00    -1.099 OA 
HETATM   23  H   UNL     1     -13.055  13.381  62.506  1.00  0.00     0.000 HD 
BRANCH  21  24
HETATM   24  C   UNL     1     -11.621  11.911  64.020  1.00  0.00    -0.476 C  
BRANCH  24  25
HETATM   25  C   UNL     1     -10.753  11.349  65.152  1.00  0.00    -0.332 C  
BRANCH  25  26
HETATM   26  C   UNL     1      -9.757  10.295  64.671  1.00  0.00    -0.398 C  
BRANCH  26  27
HETATM   27  C   UNL     1      -8.579  10.155  65.633  1.00  0.00    -0.166 C  
HETATM   28  C   UNL     1      -8.480  11.363  66.550  1.00  0.00    -0.170 C  
ENDBRANCH  26  27
ENDBRANCH  25  26
ENDBRANCH  24  25
ENDBRANCH  21  24
ENDBRANCH  20  21
ENDBRANCH  16  19
ENDBRANCH   9  10
ENDBRANCH   2   9
TORSDOF 11
ENDMDL
MODEL       16
REMARK 921   NORMALIZED FREE ENERGY PREDICTED BY IDOCK:   -5.53 KCAL/MOL
REMARK 922        TOTAL FREE ENERGY PREDICTED BY IDOCK:  -11.48 KCAL/MOL
REMARK 923 INTER-LIGAND FREE ENERGY PREDICTED BY IDOCK:   -9.35 KCAL/MOL
REMARK 924 INTRA-LIGAND FREE ENERGY PREDICTED BY IDOCK:   -2.14 KCAL/MOL
REMARK 927      BINDING AFFINITY PREDICTED BY RF-SCORE:    0.00 PKD
ROOT
HETATM    1  C   UNL     1     -10.929  14.452  68.557  1.00  0.00    -0.264 C  
HETATM    2  C   UNL     1     -11.984  14.167  67.780  1.00  0.00    -0.389 C  
ENDROOT
BRANCH   1   3
HETATM    3  C   UNL     1      -9.577  14.919  68.094  1.00  0.00    -0.210 C  
BRANCH   3   4
HETATM    4  C   UNL     1      -9.356  16.401  68.398  1.00  0.00    -0.217 C  
BRANCH   4   5
HETATM    5  C   UNL     1     -10.294  17.302  67.594  1.00  0.00    -0.350 C  
HETATM    6  O   UNL     1     -10.546  18.460  65.533  1.00  0.00    -0.627 OA 
HETATM    7  C   UNL     1      -9.712  17.673  66.253  1.00  0.00    -0.263 C  
HETATM    8  O   UNL     1      -8.623  17.315  65.830  1.00  0.00    -0.528 OA 
ENDBRANCH   4   5
ENDBRANCH   3   4
ENDBRANCH   1   3
BRANCH   2   9
HETATM    9  C   UNL     1     -12.018  14.197  66.276  1.00  0.00    -0.448 C  
BRANCH   9  10
HETATM   10  C   UNL     1     -12.028  12.828  65.575  1.00  0.00    -0.497 C  
HETATM   11  H   UNL     1      -9.101  12.224  63.086  1.00  0.00     0.000 HD 
HETATM   12  C   UNL     1     -12.735  12.903  64.212  1.00  0.00    -0.205 C  
HETATM   13  O   UNL     1     -10.025  12.272  62.870  1.00  0.00    -0.195 OA 
HETATM   14  O   UNL     1     -12.293  14.026  63.452  1.00  0.00    -1.099 OA 
HETATM   15  C   UNL     1     -12.273  11.639  63.504  1.00  0.00    -0.354 C  
HETATM   16  C   UNL     1     -10.628  12.249  65.232  1.00  0.00    -0.322 C  
HETATM   17  H   UNL     1     -12.730  14.072  62.610  1.00  0.00     0.000 HD 
HETATM   18  C   UNL     1     -10.787  11.562  63.851  1.00  0.00    -0.401 C  
BRANCH  16  19
HETATM   19  C   UNL     1     -10.081  11.317  66.287  1.00  0.00    -0.271 C  
HETATM   20  C   UNL     1     -10.825  10.572  67.125  1.00  0.00    -0.319 C  
BRANCH  20  21
HETATM   21  C   UNL     1     -10.300   9.692  68.226  1.00  0.00    -0.204 C  
HETATM   22  O   UNL     1      -8.960   9.300  67.947  1.00  0.00    -0.128 OA 
HETATM   23  H   UNL     1      -8.628   8.745  68.642  1.00  0.00     0.000 HD 
BRANCH  21  24
HETATM   24  C   UNL     1     -10.320  10.407  69.582  1.00  0.00    -0.261 C  
BRANCH  24  25
HETATM   25  C   UNL     1     -11.676  11.000  69.984  1.00  0.00    -0.437 C  
BRANCH  25  26
HETATM   26  C   UNL     1     -12.535  10.027  70.790  1.00  0.00    -0.386 C  
BRANCH  26  27
HETATM   27  C   UNL     1     -13.274  10.736  71.923  1.00  0.00    -0.524 C  
HETATM   28  C   UNL     1     -13.095  12.242  71.829  1.00  0.00    -0.449 C  
ENDBRANCH  26  27
ENDBRANCH  25  26
ENDBRANCH  24  25
ENDBRANCH  21  24
ENDBRANCH  20  21
ENDBRANCH  16  19
ENDBRANCH   9  10
ENDBRANCH   2   9
TORSDOF 11
ENDMDL
MODEL       17
REMARK 921   NORMALIZED FREE ENERGY PREDICTED BY IDOCK:   -5.53 KCAL/MOL
REMARK 922        TOTAL FREE ENERGY PREDICTED BY IDOCK:  -11.48 KCAL/MOL
REMARK 923 INTER-LIGAND FREE ENERGY PREDICTED BY IDOCK:  -10.01 KCAL/MOL
REMARK 924 INTRA-LIGAND FREE ENERGY PREDICTED BY IDOCK:   -1.47 KCAL/MOL
REMARK 927      BINDING AFFINITY PREDICTED BY RF-SCORE:    0.00 PKD
ROOT
HETATM    1  C   UNL     1     -10.783  15.889  67.546  1.00  0.00    -0.318 C  
HETATM    2  C   UNL     1     -11.626  14.851  67.646  1.00  0.00    -0.357 C  
ENDROOT
BRANCH   1   3
HETATM    3  C   UNL     1     -10.358  16.578  66.279  1.00  0.00    -0.327 C  
BRANCH   3   4
HETATM    4  C   UNL     1     -10.378  18.100  66.430  1.00  0.00    -0.404 C  
BRANCH   4   5
HETATM    5  C   UNL     1      -9.027  18.653  66.885  1.00  0.00    -0.296 C  
HETATM    6  O   UNL     1      -7.857  19.587  68.732  1.00  0.00    -0.355 OA 
HETATM    7  C   UNL     1      -9.056  19.109  68.323  1.00  0.00    -0.338 C  
HETATM    8  O   UNL     1     -10.026  19.056  69.062  1.00  0.00    -0.402 OA 
ENDBRANCH   4   5
ENDBRANCH   3   4
ENDBRANCH   1   3
BRANCH   2   9
HETATM    9  C   UNL     1     -12.279  14.119  66.505  1.00  0.00    -0.463 C  
BRANCH   9  10
HETATM   10  C   UNL     1     -11.839  12.660  66.302  1.00  0.00    -0.471 C  
HETATM   11  H   UNL     1      -8.392  11.741  67.852  1.00  0.00     0.000 HD 
HETATM   12  C   UNL     1     -10.948  12.511  65.058  1.00  0.00    -0.294 C  
HETATM   13  O   UNL     1      -8.615  11.738  66.928  1.00  0.00    -0.167 OA 
HETATM   14  O   UNL     1      -9.935  13.514  65.015  1.00  0.00    -0.538 OA 
HETATM   15  C   UNL     1     -10.275  11.164  65.263  1.00  0.00    -0.337 C  
HETATM   16  C   UNL     1     -10.974  12.063  67.447  1.00  0.00    -0.311 C  
HETATM   17  H   UNL     1      -9.384  13.423  64.246  1.00  0.00     0.000 HD 
HETATM   18  C   UNL     1      -9.916  11.170  66.749  1.00  0.00    -0.208 C  
BRANCH  16  19
HETATM   19  C   UNL     1     -11.775  11.314  68.485  1.00  0.00    -0.378 C  
HETATM   20  C   UNL     1     -11.830  11.621  69.794  1.00  0.00    -0.428 C  
BRANCH  20  21
HETATM   21  C   UNL     1     -12.565  10.846  70.852  1.00  0.00    -0.397 C  
HETATM   22  O   UNL     1     -11.660  10.021  71.577  1.00  0.00    -0.353 OA 
HETATM   23  H   UNL     1     -12.124   9.532  72.246  1.00  0.00     0.000 HD 
BRANCH  21  24
HETATM   24  C   UNL     1     -13.275  11.773  71.845  1.00  0.00    -0.468 C  
BRANCH  24  25
HETATM   25  C   UNL     1     -13.077  13.272  71.590  1.00  0.00    -0.453 C  
BRANCH  25  26
HETATM   26  C   UNL     1     -14.243  14.121  72.094  1.00  0.00    -0.638 C  
BRANCH  26  27
HETATM   27  C   UNL     1     -13.802  15.547  72.416  1.00  0.00    -0.662 C  
HETATM   28  C   UNL     1     -12.589  15.546  73.332  1.00  0.00    -0.646 C  
ENDBRANCH  26  27
ENDBRANCH  25  26
ENDBRANCH  24  25
ENDBRANCH  21  24
ENDBRANCH  20  21
ENDBRANCH  16  19
ENDBRANCH   9  10
ENDBRANCH   2   9
TORSDOF 11
ENDMDL
MODEL       18
REMARK 921   NORMALIZED FREE ENERGY PREDICTED BY IDOCK:   -5.52 KCAL/MOL
REMARK 922        TOTAL FREE ENERGY PREDICTED BY IDOCK:  -11.46 KCAL/MOL
REMARK 923 INTER-LIGAND FREE ENERGY PREDICTED BY IDOCK:   -9.61 KCAL/MOL
REMARK 924 INTRA-LIGAND FREE ENERGY PREDICTED BY IDOCK:   -1.84 KCAL/MOL
REMARK 927      BINDING AFFINITY PREDICTED BY RF-SCORE:    0.00 PKD
ROOT
HETATM    1  C   UNL     1     -11.086  14.384  68.821  1.00  0.00    -0.275 C  
HETATM    2  C   UNL     1     -12.097  14.070  67.998  1.00  0.00    -0.312 C  
ENDROOT
BRANCH   1   3
HETATM    3  C   UNL     1      -9.761  14.974  68.427  1.00  0.00    -0.216 C  
BRANCH   3   4
HETATM    4  C   UNL     1      -9.673  16.458  68.785  1.00  0.00    -0.250 C  
BRANCH   4   5
HETATM    5  C   UNL     1     -10.504  17.329  67.842  1.00  0.00    -0.382 C  
HETATM    6  O   UNL     1     -11.008  19.575  67.246  1.00  0.00    -0.499 OA 
HETATM    7  C   UNL     1     -10.283  18.801  68.088  1.00  0.00    -0.381 C  
HETATM    8  O   UNL     1      -9.536  19.274  68.931  1.00  0.00    -0.396 OA 
ENDBRANCH   4   5
ENDBRANCH   3   4
ENDBRANCH   1   3
BRANCH   2   9
HETATM    9  C   UNL     1     -12.094  14.186  66.497  1.00  0.00    -0.481 C  
BRANCH   9  10
HETATM   10  C   UNL     1     -12.148  12.860  65.720  1.00  0.00    -0.513 C  
HETATM   11  H   UNL     1      -9.137  12.213  63.345  1.00  0.00     0.000 HD 
HETATM   12  C   UNL     1     -12.777  13.052  64.330  1.00  0.00    -0.201 C  
HETATM   13  O   UNL     1     -10.044  12.330  63.088  1.00  0.00    -0.375 OA 
HETATM   14  O   UNL     1     -12.232  14.186  63.658  1.00  0.00    -0.936 OA 
HETATM   15  C   UNL     1     -12.355  11.803  63.574  1.00  0.00    -0.495 C  
HETATM   16  C   UNL     1     -10.768  12.216  65.412  1.00  0.00    -0.323 C  
HETATM   17  H   UNL     1     -12.621  14.304  62.800  1.00  0.00     0.000 HD 
HETATM   18  C   UNL     1     -10.896  11.616  63.988  1.00  0.00    -0.392 C  
BRANCH  16  19
HETATM   19  C   UNL     1     -10.333  11.196  66.438  1.00  0.00    -0.300 C  
HETATM   20  C   UNL     1     -11.134  10.630  67.358  1.00  0.00    -0.341 C  
BRANCH  20  21
HETATM   21  C   UNL     1     -10.703   9.667  68.430  1.00  0.00    -0.209 C  
HETATM   22  O   UNL     1      -9.331   9.328  68.266  1.00  0.00    -0.134 OA 
HETATM   23  H   UNL     1      -9.059   8.720  68.943  1.00  0.00     0.000 HD 
BRANCH  21  24
HETATM   24  C   UNL     1     -10.891  10.257  69.832  1.00  0.00    -0.355 C  
BRANCH  24  25
HETATM   25  C   UNL     1     -12.245  10.932  70.078  1.00  0.00    -0.422 C  
BRANCH  25  26
HETATM   26  C   UNL     1     -12.707  10.829  71.530  1.00  0.00    -0.536 C  
BRANCH  26  27
HETATM   27  C   UNL     1     -13.466   9.528  71.787  1.00  0.00    -0.480 C  
HETATM   28  C   UNL     1     -12.559   8.487  72.422  1.00  0.00    -0.409 C  
ENDBRANCH  26  27
ENDBRANCH  25  26
ENDBRANCH  24  25
ENDBRANCH  21  24
ENDBRANCH  20  21
ENDBRANCH  16  19
ENDBRANCH   9  10
ENDBRANCH   2   9
TORSDOF 11
ENDMDL
MODEL       19
REMARK 921   NORMALIZED FREE ENERGY PREDICTED BY IDOCK:   -5.51 KCAL/MOL
REMARK 922        TOTAL FREE ENERGY PREDICTED BY IDOCK:  -11.45 KCAL/MOL
REMARK 923 INTER-LIGAND FREE ENERGY PREDICTED BY IDOCK:   -9.44 KCAL/MOL
REMARK 924 INTRA-LIGAND FREE ENERGY PREDICTED BY IDOCK:   -2.01 KCAL/MOL
REMARK 927      BINDING AFFINITY PREDICTED BY RF-SCORE:    0.00 PKD
ROOT
HETATM    1  C   UNL     1     -11.095  14.606  68.955  1.00  0.00    -0.268 C  
HETATM    2  C   UNL     1     -12.021  14.112  68.120  1.00  0.00    -0.367 C  
ENDROOT
BRANCH   1   3
HETATM    3  C   UNL     1      -9.934  15.486  68.583  1.00  0.00    -0.208 C  
BRANCH   3   4
HETATM    4  C   UNL     1     -10.218  16.957  68.893  1.00  0.00    -0.314 C  
BRANCH   4   5
HETATM    5  C   UNL     1     -10.419  17.786  67.624  1.00  0.00    -0.393 C  
HETATM    6  O   UNL     1     -10.375  19.995  66.746  1.00  0.00    -0.440 OA 
HETATM    7  C   UNL     1     -10.211  19.259  67.870  1.00  0.00    -0.411 C  
HETATM    8  O   UNL     1      -9.916  19.763  68.944  1.00  0.00    -0.441 OA 
ENDBRANCH   4   5
ENDBRANCH   3   4
ENDBRANCH   1   3
BRANCH   2   9
HETATM    9  C   UNL     1     -12.058  14.286  66.625  1.00  0.00    -0.448 C  
BRANCH   9  10
HETATM   10  C   UNL     1     -12.169  12.993  65.800  1.00  0.00    -0.511 C  
HETATM   11  H   UNL     1      -9.145  12.256  63.468  1.00  0.00     0.000 HD 
HETATM   12  C   UNL     1     -12.754  13.269  64.405  1.00  0.00    -0.117 C  
HETATM   13  O   UNL     1     -10.038  12.434  63.195  1.00  0.00    -0.359 OA 
HETATM   14  O   UNL     1     -12.130  14.392  63.786  1.00  0.00    -0.818 OA 
HETATM   15  C   UNL     1     -12.386  12.025  63.614  1.00  0.00    -0.648 C  
HETATM   16  C   UNL     1     -10.822  12.281  65.498  1.00  0.00    -0.319 C  
HETATM   17  H   UNL     1     -12.492  14.563  62.924  1.00  0.00     0.000 HD 
HETATM   18  C   UNL     1     -10.950  11.739  64.051  1.00  0.00    -0.384 C  
BRANCH  16  19
HETATM   19  C   UNL     1     -10.469  11.203  66.496  1.00  0.00    -0.305 C  
HETATM   20  C   UNL     1      -9.550  11.319  67.471  1.00  0.00    -0.181 C  
BRANCH  20  21
HETATM   21  C   UNL     1      -9.137  10.234  68.428  1.00  0.00    -0.136 C  
HETATM   22  O   UNL     1      -8.323  10.773  69.463  1.00  0.00    -0.365 OA 
HETATM   23  H   UNL     1      -8.062  10.088  70.067  1.00  0.00     0.000 HD 
BRANCH  21  24
HETATM   24  C   UNL     1     -10.350   9.553  69.072  1.00  0.00    -0.219 C  
BRANCH  24  25
HETATM   25  C   UNL     1     -10.849  10.204  70.367  1.00  0.00    -0.365 C  
BRANCH  25  26
HETATM   26  C   UNL     1     -12.191  10.914  70.198  1.00  0.00    -0.423 C  
BRANCH  26  27
HETATM   27  C   UNL     1     -12.860  11.181  71.545  1.00  0.00    -0.542 C  
HETATM   28  C   UNL     1     -13.155  12.661  71.720  1.00  0.00    -0.461 C  
ENDBRANCH  26  27
ENDBRANCH  25  26
ENDBRANCH  24  25
ENDBRANCH  21  24
ENDBRANCH  20  21
ENDBRANCH  16  19
ENDBRANCH   9  10
ENDBRANCH   2   9
TORSDOF 11
ENDMDL
MODEL       20
REMARK 921   NORMALIZED FREE ENERGY PREDICTED BY IDOCK:   -5.49 KCAL/MOL
REMARK 922        TOTAL FREE ENERGY PREDICTED BY IDOCK:  -11.41 KCAL/MOL
REMARK 923 INTER-LIGAND FREE ENERGY PREDICTED BY IDOCK:   -9.15 KCAL/MOL
REMARK 924 INTRA-LIGAND FREE ENERGY PREDICTED BY IDOCK:   -2.26 KCAL/MOL
REMARK 927      BINDING AFFINITY PREDICTED BY RF-SCORE:    0.00 PKD
ROOT
HETATM    1  C   UNL     1     -10.269  10.564  66.288  1.00  0.00    -0.296 C  
HETATM    2  C   UNL     1     -10.496  10.980  67.542  1.00  0.00    -0.244 C  
ENDROOT
BRANCH   1   3
HETATM    3  C   UNL     1      -9.373  11.222  65.275  1.00  0.00    -0.225 C  
BRANCH   3   4
HETATM    4  C   UNL     1     -10.177  11.880  64.153  1.00  0.00    -0.364 C  
BRANCH   4   5
HETATM    5  C   UNL     1     -10.762  13.228  64.575  1.00  0.00    -0.428 C  
HETATM    6  O   UNL     1     -12.781  14.466  64.784  1.00  0.00    -0.635 OA 
HETATM    7  C   UNL     1     -12.259  13.278  64.398  1.00  0.00    -0.390 C  
HETATM    8  O   UNL     1     -12.952  12.367  63.970  1.00  0.00    -0.748 OA 
ENDBRANCH   4   5
ENDBRANCH   3   4
ENDBRANCH   1   3
BRANCH   2   9
HETATM    9  C   UNL     1      -9.949  12.229  68.180  1.00  0.00    -0.210 C  
BRANCH   9  10
HETATM   10  C   UNL     1     -10.940  13.393  68.340  1.00  0.00    -0.291 C  
HETATM   11  H   UNL     1     -10.205  15.795  71.309  1.00  0.00     0.000 HD 
HETATM   12  C   UNL     1     -12.061  13.042  69.333  1.00  0.00    -0.212 C  
HETATM   13  O   UNL     1     -10.969  15.239  71.208  1.00  0.00    -0.318 OA 
HETATM   14  O   UNL     1     -11.542  12.454  70.524  1.00  0.00    -0.490 OA 
HETATM   15  C   UNL     1     -12.654  14.395  69.690  1.00  0.00    -0.102 C  
HETATM   16  C   UNL     1     -10.337  14.703  68.917  1.00  0.00    -0.245 C  
HETATM   17  H   UNL     1     -12.235  12.237  71.137  1.00  0.00     0.000 HD 
HETATM   18  C   UNL     1     -11.425  15.289  69.853  1.00  0.00    -0.304 C  
BRANCH  16  19
HETATM   19  C   UNL     1      -9.891  15.684  67.857  1.00  0.00    -0.217 C  
HETATM   20  C   UNL     1     -10.697  16.266  66.950  1.00  0.00    -0.217 C  
BRANCH  20  21
HETATM   21  C   UNL     1     -10.260  17.189  65.846  1.00  0.00    -0.276 C  
HETATM   22  O   UNL     1     -10.978  16.901  64.651  1.00  0.00    -0.894 OA 
HETATM   23  H   UNL     1     -10.703  17.484  63.953  1.00  0.00     0.000 HD 
BRANCH  21  24
HETATM   24  C   UNL     1     -10.497  18.659  66.209  1.00  0.00    -0.468 C  
BRANCH  24  25
HETATM   25  C   UNL     1      -9.225  19.481  66.451  1.00  0.00    -0.426 C  
BRANCH  25  26
HETATM   26  C   UNL     1      -9.004  19.815  67.925  1.00  0.00    -0.390 C  
BRANCH  26  27
HETATM   27  C   UNL     1      -8.022  18.846  68.580  1.00  0.00    -0.381 C  
HETATM   28  C   UNL     1      -6.824  19.588  69.147  1.00  0.00    -0.381 C  
ENDBRANCH  26  27
ENDBRANCH  25  26
ENDBRANCH  24  25
ENDBRANCH  21  24
ENDBRANCH  20  21
ENDBRANCH  16  19
ENDBRANCH   9  10
ENDBRANCH   2   9
TORSDOF 11
ENDMDL
MODEL       21
REMARK 921   NORMALIZED FREE ENERGY PREDICTED BY IDOCK:   -5.48 KCAL/MOL
REMARK 922        TOTAL FREE ENERGY PREDICTED BY IDOCK:  -11.41 KCAL/MOL
REMARK 923 INTER-LIGAND FREE ENERGY PREDICTED BY IDOCK:   -9.70 KCAL/MOL
REMARK 924 INTRA-LIGAND FREE ENERGY PREDICTED BY IDOCK:   -1.71 KCAL/MOL
REMARK 927      BINDING AFFINITY PREDICTED BY RF-SCORE:    0.00 PKD
ROOT
HETATM    1  C   UNL     1     -11.336  16.271  69.396  1.00  0.00    -0.284 C  
HETATM    2  C   UNL     1     -11.100  16.311  68.077  1.00  0.00    -0.299 C  
ENDROOT
BRANCH   1   3
HETATM    3  C   UNL     1     -11.092  15.106  70.315  1.00  0.00    -0.289 C  
BRANCH   3   4
HETATM    4  C   UNL     1     -12.403  14.515  70.838  1.00  0.00    -0.415 C  
BRANCH   4   5
HETATM    5  C   UNL     1     -13.222  15.536  71.627  1.00  0.00    -0.575 C  
HETATM    6  O   UNL     1     -13.612  16.421  73.799  1.00  0.00    -0.547 OA 
HETATM    7  C   UNL     1     -12.897  15.509  73.100  1.00  0.00    -0.497 C  
HETATM    8  O   UNL     1     -12.080  14.771  73.630  1.00  0.00    -0.339 OA 
ENDBRANCH   4   5
ENDBRANCH   3   4
ENDBRANCH   1   3
BRANCH   2   9
HETATM    9  C   UNL     1     -10.598  15.175  67.226  1.00  0.00    -0.286 C  
BRANCH   9  10
HETATM   10  C   UNL     1     -11.670  14.217  66.682  1.00  0.00    -0.422 C  
HETATM   11  H   UNL     1     -10.305  10.920  65.134  1.00  0.00     0.000 HD 
HETATM   12  C   UNL     1     -11.905  14.436  65.179  1.00  0.00    -0.386 C  
HETATM   13  O   UNL     1     -10.775  11.607  64.676  1.00  0.00    -0.286 OA 
HETATM   14  O   UNL     1     -10.675  14.522  64.461  1.00  0.00    -0.599 OA 
HETATM   15  C   UNL     1     -12.622  13.169  64.743  1.00  0.00    -0.426 C  
HETATM   16  C   UNL     1     -11.320  12.706  66.781  1.00  0.00    -0.373 C  
HETATM   17  H   UNL     1     -10.821  14.658  63.532  1.00  0.00     0.000 HD 
HETATM   18  C   UNL     1     -11.866  12.064  65.480  1.00  0.00    -0.181 C  
BRANCH  16  19
HETATM   19  C   UNL     1     -11.854  12.041  68.028  1.00  0.00    -0.338 C  
HETATM   20  C   UNL     1     -11.100  11.517  69.012  1.00  0.00    -0.302 C  
BRANCH  20  21
HETATM   21  C   UNL     1     -11.613  10.790  70.225  1.00  0.00    -0.338 C  
HETATM   22  O   UNL     1     -12.939  10.328  69.998  1.00  0.00    -0.568 OA 
HETATM   23  H   UNL     1     -13.263   9.869  70.763  1.00  0.00     0.000 HD 
BRANCH  21  24
HETATM   24  C   UNL     1     -10.735   9.584  70.576  1.00  0.00    -0.359 C  
BRANCH  24  25
HETATM   25  C   UNL     1     -11.007   8.960  71.950  1.00  0.00    -0.439 C  
BRANCH  25  26
HETATM   26  C   UNL     1     -11.093   7.435  71.904  1.00  0.00    -0.276 C  
BRANCH  26  27
HETATM   27  C   UNL     1     -11.832   6.951  70.658  1.00  0.00    -0.418 C  
HETATM   28  C   UNL     1     -10.979   5.973  69.867  1.00  0.00    -0.458 C  
ENDBRANCH  26  27
ENDBRANCH  25  26
ENDBRANCH  24  25
ENDBRANCH  21  24
ENDBRANCH  20  21
ENDBRANCH  16  19
ENDBRANCH   9  10
ENDBRANCH   2   9
TORSDOF 11
ENDMDL
MODEL       22
REMARK 921   NORMALIZED FREE ENERGY PREDICTED BY IDOCK:   -5.48 KCAL/MOL
REMARK 922        TOTAL FREE ENERGY PREDICTED BY IDOCK:  -11.41 KCAL/MOL
REMARK 923 INTER-LIGAND FREE ENERGY PREDICTED BY IDOCK:   -8.90 KCAL/MOL
REMARK 924 INTRA-LIGAND FREE ENERGY PREDICTED BY IDOCK:   -2.51 KCAL/MOL
REMARK 927      BINDING AFFINITY PREDICTED BY RF-SCORE:    0.00 PKD
ROOT
HETATM    1  C   UNL     1      -9.941  11.375  68.788  1.00  0.00    -0.188 C  
HETATM    2  C   UNL     1      -9.237  11.749  67.710  1.00  0.00    -0.181 C  
ENDROOT
BRANCH   1   3
HETATM    3  C   UNL     1     -11.181  10.524  68.796  1.00  0.00    -0.317 C  
BRANCH   3   4
HETATM    4  C   UNL     1     -12.153  10.952  69.897  1.00  0.00    -0.428 C  
BRANCH   4   5
HETATM    5  C   UNL     1     -12.058  12.447  70.203  1.00  0.00    -0.366 C  
HETATM    6  O   UNL     1     -12.710  14.138  71.741  1.00  0.00    -0.325 OA 
HETATM    7  C   UNL     1     -12.803  12.817  71.461  1.00  0.00    -0.270 C  
HETATM    8  O   UNL     1     -13.418  12.039  72.174  1.00  0.00    -0.476 OA 
ENDBRANCH   4   5
ENDBRANCH   3   4
ENDBRANCH   1   3
BRANCH   2   9
HETATM    9  C   UNL     1      -9.574  11.446  66.275  1.00  0.00    -0.237 C  
BRANCH   9  10
HETATM   10  C   UNL     1     -10.289  12.565  65.500  1.00  0.00    -0.303 C  
HETATM   11  H   UNL     1     -14.083  11.981  64.878  1.00  0.00     0.000 HD 
HETATM   12  C   UNL     1     -10.333  12.262  63.993  1.00  0.00    -0.397 C  
HETATM   13  O   UNL     1     -13.405  12.040  64.215  1.00  0.00    -0.709 OA 
HETATM   14  O   UNL     1     -10.744  10.921  63.738  1.00  0.00    -0.532 OA 
HETATM   15  C   UNL     1     -11.413  13.198  63.475  1.00  0.00    -0.305 C  
HETATM   16  C   UNL     1     -11.781  12.782  65.874  1.00  0.00    -0.464 C  
HETATM   17  H   UNL     1     -10.771  10.734  62.807  1.00  0.00     0.000 HD 
HETATM   18  C   UNL     1     -12.504  13.103  64.541  1.00  0.00    -0.342 C  
BRANCH  16  19
HETATM   19  C   UNL     1     -11.995  13.847  66.924  1.00  0.00    -0.467 C  
HETATM   20  C   UNL     1     -11.127  14.832  67.217  1.00  0.00    -0.334 C  
BRANCH  20  21
HETATM   21  C   UNL     1     -11.292  15.858  68.306  1.00  0.00    -0.342 C  
HETATM   22  O   UNL     1     -12.418  15.540  69.116  1.00  0.00    -0.609 OA 
HETATM   23  H   UNL     1     -12.522  16.187  69.803  1.00  0.00     0.000 HD 
BRANCH  21  24
HETATM   24  C   UNL     1     -10.054  15.933  69.207  1.00  0.00    -0.249 C  
BRANCH  24  25
HETATM   25  C   UNL     1      -8.711  15.934  68.467  1.00  0.00    -0.194 C  
BRANCH  25  26
HETATM   26  C   UNL     1      -7.870  17.175  68.763  1.00  0.00    -0.258 C  
BRANCH  26  27
HETATM   27  C   UNL     1      -8.568  18.451  68.298  1.00  0.00    -0.321 C  
HETATM   28  C   UNL     1      -8.831  18.411  66.802  1.00  0.00    -0.283 C  
ENDBRANCH  26  27
ENDBRANCH  25  26
ENDBRANCH  24  25
ENDBRANCH  21  24
ENDBRANCH  20  21
ENDBRANCH  16  19
ENDBRANCH   9  10
ENDBRANCH   2   9
TORSDOF 11
ENDMDL
MODEL       23
REMARK 921   NORMALIZED FREE ENERGY PREDICTED BY IDOCK:   -5.45 KCAL/MOL
REMARK 922        TOTAL FREE ENERGY PREDICTED BY IDOCK:  -11.36 KCAL/MOL
REMARK 923 INTER-LIGAND FREE ENERGY PREDICTED BY IDOCK:   -9.82 KCAL/MOL
REMARK 924 INTRA-LIGAND FREE ENERGY PREDICTED BY IDOCK:   -1.53 KCAL/MOL
REMARK 927      BINDING AFFINITY PREDICTED BY RF-SCORE:    0.00 PKD
ROOT
HETATM    1  C   UNL     1     -12.206  10.413  70.679  1.00  0.00    -0.441 C  
HETATM    2  C   UNL     1     -11.933  11.644  70.223  1.00  0.00    -0.445 C  
ENDROOT
BRANCH   1   3
HETATM    3  C   UNL     1     -13.188  10.057  71.761  1.00  0.00    -0.540 C  
BRANCH   3   4
HETATM    4  C   UNL     1     -12.843   8.721  72.420  1.00  0.00    -0.434 C  
BRANCH   4   5
HETATM    5  C   UNL     1     -11.383   8.325  72.194  1.00  0.00    -0.419 C  
HETATM    6  O   UNL     1      -9.957   6.840  71.006  1.00  0.00    -0.182 OA 
HETATM    7  C   UNL     1     -11.249   7.183  71.217  1.00  0.00    -0.259 C  
HETATM    8  O   UNL     1     -12.176   6.620  70.656  1.00  0.00    -0.377 OA 
ENDBRANCH   4   5
ENDBRANCH   3   4
ENDBRANCH   1   3
BRANCH   2   9
HETATM    9  C   UNL     1     -12.508  12.935  70.740  1.00  0.00    -0.370 C  
BRANCH   9  10
HETATM   10  C   UNL     1     -12.350  14.158  69.822  1.00  0.00    -0.350 C  
HETATM   11  H   UNL     1      -8.820  14.602  68.251  1.00  0.00     0.000 HD 
HETATM   12  C   UNL     1     -11.797  15.368  70.592  1.00  0.00    -0.351 C  
HETATM   13  O   UNL     1      -9.244  15.193  68.862  1.00  0.00    -0.190 OA 
HETATM   14  O   UNL     1     -10.680  15.009  71.404  1.00  0.00    -0.511 OA 
HETATM   15  C   UNL     1     -11.305  16.294  69.491  1.00  0.00    -0.276 C  
HETATM   16  C   UNL     1     -11.348  13.981  68.648  1.00  0.00    -0.307 C  
HETATM   17  H   UNL     1     -10.339  15.757  71.880  1.00  0.00     0.000 HD 
HETATM   18  C   UNL     1     -10.622  15.344  68.509  1.00  0.00    -0.240 C  
BRANCH  16  19
HETATM   19  C   UNL     1     -11.996  13.532  67.359  1.00  0.00    -0.398 C  
HETATM   20  C   UNL     1     -12.082  14.267  66.237  1.00  0.00    -0.433 C  
BRANCH  20  21
HETATM   21  C   UNL     1     -12.785  13.863  64.969  1.00  0.00    -0.336 C  
HETATM   22  O   UNL     1     -12.424  14.738  63.906  1.00  0.00    -0.997 OA 
HETATM   23  H   UNL     1     -12.867  14.483  63.106  1.00  0.00     0.000 HD 
BRANCH  21  24
HETATM   24  C   UNL     1     -12.430  12.430  64.556  1.00  0.00    -0.519 C  
BRANCH  24  25
HETATM   25  C   UNL     1     -11.137  12.288  63.744  1.00  0.00    -0.507 C  
BRANCH  25  26
HETATM   26  C   UNL     1      -9.948  11.839  64.592  1.00  0.00    -0.275 C  
BRANCH  26  27
HETATM   27  C   UNL     1     -10.152  10.430  65.144  1.00  0.00    -0.379 C  
HETATM   28  C   UNL     1     -10.256  10.451  66.660  1.00  0.00    -0.292 C  
ENDBRANCH  26  27
ENDBRANCH  25  26
ENDBRANCH  24  25
ENDBRANCH  21  24
ENDBRANCH  20  21
ENDBRANCH  16  19
ENDBRANCH   9  10
ENDBRANCH   2   9
TORSDOF 11
ENDMDL
MODEL       24
REMARK 921   NORMALIZED FREE ENERGY PREDICTED BY IDOCK:   -5.44 KCAL/MOL
REMARK 922        TOTAL FREE ENERGY PREDICTED BY IDOCK:  -11.33 KCAL/MOL
REMARK 923 INTER-LIGAND FREE ENERGY PREDICTED BY IDOCK:   -8.66 KCAL/MOL
REMARK 924 INTRA-LIGAND FREE ENERGY PREDICTED BY IDOCK:   -2.68 KCAL/MOL
REMARK 927      BINDING AFFINITY PREDICTED BY RF-SCORE:    0.00 PKD
ROOT
HETATM    1  C   UNL     1     -11.710  14.892  71.436  1.00  0.00    -0.387 C  
HETATM    2  C   UNL     1     -11.166  15.444  70.341  1.00  0.00    -0.345 C  
ENDROOT
BRANCH   1   3
HETATM    3  C   UNL     1     -13.143  14.469  71.607  1.00  0.00    -0.416 C  
BRANCH   3   4
HETATM    4  C   UNL     1     -13.256  12.984  71.957  1.00  0.00    -0.543 C  
BRANCH   4   5
HETATM    5  C   UNL     1     -12.424  12.106  71.022  1.00  0.00    -0.369 C  
HETATM    6  O   UNL     1     -11.993   9.860  70.374  1.00  0.00    -0.256 OA 
HETATM    7  C   UNL     1     -12.719  10.639  71.209  1.00  0.00    -0.433 C  
HETATM    8  O   UNL     1     -13.521  10.174  72.005  1.00  0.00    -0.403 OA 
ENDBRANCH   4   5
ENDBRANCH   3   4
ENDBRANCH   1   3
BRANCH   2   9
HETATM    9  C   UNL     1     -11.890  15.812  69.075  1.00  0.00    -0.367 C  
BRANCH   9  10
HETATM   10  C   UNL     1     -11.285  15.266  67.771  1.00  0.00    -0.327 C  
HETATM   11  H   UNL     1      -7.501  14.386  67.945  1.00  0.00     0.000 HD 
HETATM   12  C   UNL     1     -10.647  16.389  66.937  1.00  0.00    -0.252 C  
HETATM   13  O   UNL     1      -7.900  15.059  67.406  1.00  0.00    -0.169 OA 
HETATM   14  O   UNL     1      -9.825  17.236  67.738  1.00  0.00    -0.266 OA 
HETATM   15  C   UNL     1      -9.752  15.642  65.962  1.00  0.00    -0.378 C  
HETATM   16  C   UNL     1     -10.130  14.243  67.953  1.00  0.00    -0.233 C  
HETATM   17  H   UNL     1      -9.431  17.930  67.222  1.00  0.00     0.000 HD 
HETATM   18  C   UNL     1      -9.110  14.560  66.829  1.00  0.00    -0.261 C  
BRANCH  16  19
HETATM   19  C   UNL     1     -10.587  12.803  67.936  1.00  0.00    -0.232 C  
HETATM   20  C   UNL     1      -9.887  11.773  67.430  1.00  0.00    -0.189 C  
BRANCH  20  21
HETATM   21  C   UNL     1     -10.355  10.346  67.342  1.00  0.00    -0.228 C  
HETATM   22  O   UNL     1     -11.741  10.262  67.655  1.00  0.00    -0.570 OA 
HETATM   23  H   UNL     1     -12.037   9.361  67.599  1.00  0.00     0.000 HD 
BRANCH  21  24
HETATM   24  C   UNL     1     -10.140   9.764  65.940  1.00  0.00    -0.314 C  
BRANCH  24  25
HETATM   25  C   UNL     1      -9.433  10.696  64.950  1.00  0.00    -0.293 C  
BRANCH  25  26
HETATM   26  C   UNL     1     -10.304  11.058  63.747  1.00  0.00    -0.427 C  
BRANCH  26  27
HETATM   27  C   UNL     1     -10.816  12.494  63.836  1.00  0.00    -0.472 C  
HETATM   28  C   UNL     1     -12.162  12.548  64.540  1.00  0.00    -0.528 C  
ENDBRANCH  26  27
ENDBRANCH  25  26
ENDBRANCH  24  25
ENDBRANCH  21  24
ENDBRANCH  20  21
ENDBRANCH  16  19
ENDBRANCH   9  10
ENDBRANCH   2   9
TORSDOF 11
ENDMDL
MODEL       25
REMARK 921   NORMALIZED FREE ENERGY PREDICTED BY IDOCK:   -5.43 KCAL/MOL
REMARK 922        TOTAL FREE ENERGY PREDICTED BY IDOCK:  -11.32 KCAL/MOL
REMARK 923 INTER-LIGAND FREE ENERGY PREDICTED BY IDOCK:   -9.95 KCAL/MOL
REMARK 924 INTRA-LIGAND FREE ENERGY PREDICTED BY IDOCK:   -1.38 KCAL/MOL
REMARK 927      BINDING AFFINITY PREDICTED BY RF-SCORE:    0.00 PKD
ROOT
HETATM    1  C   UNL     1      -9.922  11.546  66.328  1.00  0.00    -0.252 C  
HETATM    2  C   UNL     1     -10.356  10.789  67.347  1.00  0.00    -0.251 C  
ENDROOT
BRANCH   1   3
HETATM    3  C   UNL     1      -9.555  11.066  64.950  1.00  0.00    -0.289 C  
BRANCH   3   4
HETATM    4  C   UNL     1     -10.724  11.206  63.974  1.00  0.00    -0.409 C  
BRANCH   4   5
HETATM    5  C   UNL     1     -10.985  12.663  63.591  1.00  0.00    -0.464 C  
HETATM    6  O   UNL     1     -12.537  14.453  63.790  1.00  0.00    -0.829 OA 
HETATM    7  C   UNL     1     -12.309  13.159  64.116  1.00  0.00    -0.348 C  
HETATM    8  O   UNL     1     -13.102  12.501  64.773  1.00  0.00    -0.853 OA 
ENDBRANCH   4   5
ENDBRANCH   3   4
ENDBRANCH   1   3
BRANCH   2   9
HETATM    9  C   UNL     1     -10.509   9.292  67.344  1.00  0.00    -0.340 C  
BRANCH   9  10
HETATM   10  C   UNL     1     -10.221   8.584  68.678  1.00  0.00    -0.217 C  
HETATM   11  H   UNL     1      -7.955  10.561  71.144  1.00  0.00     0.000 HD 
HETATM   12  C   UNL     1      -8.902   7.795  68.618  1.00  0.00    -0.131 C  
HETATM   13  O   UNL     1      -7.749   9.732  70.729  1.00  0.00    -0.308 OA 
HETATM   14  O   UNL     1      -7.851   8.571  68.046  1.00  0.00    -0.101 OA 
HETATM   15  C   UNL     1      -8.570   7.550  70.081  1.00  0.00    -0.141 C  
HETATM   16  C   UNL     1     -10.031   9.524  69.900  1.00  0.00    -0.259 C  
HETATM   17  H   UNL     1      -7.036   8.084  68.009  1.00  0.00     0.000 HD 
HETATM   18  C   UNL     1      -8.901   8.884  70.748  1.00  0.00    -0.208 C  
BRANCH  16  19
HETATM   19  C   UNL     1     -11.297   9.750  70.693  1.00  0.00    -0.401 C  
HETATM   20  C   UNL     1     -12.061  10.856  70.636  1.00  0.00    -0.468 C  
BRANCH  20  21
HETATM   21  C   UNL     1     -13.284  11.127  71.469  1.00  0.00    -0.279 C  
HETATM   22  O   UNL     1     -13.344  10.223  72.566  1.00  0.00    -0.576 OA 
HETATM   23  H   UNL     1     -14.116  10.394  73.092  1.00  0.00     0.000 HD 
BRANCH  21  24
HETATM   24  C   UNL     1     -13.289  12.558  72.020  1.00  0.00    -0.528 C  
BRANCH  24  25
HETATM   25  C   UNL     1     -12.622  13.604  71.120  1.00  0.00    -0.452 C  
BRANCH  25  26
HETATM   26  C   UNL     1     -12.195  14.858  71.881  1.00  0.00    -0.424 C  
BRANCH  26  27
HETATM   27  C   UNL     1     -13.211  15.236  72.958  1.00  0.00    -0.617 C  
HETATM   28  C   UNL     1     -12.512  15.741  74.209  1.00  0.00    -0.800 C  
ENDBRANCH  26  27
ENDBRANCH  25  26
ENDBRANCH  24  25
ENDBRANCH  21  24
ENDBRANCH  20  21
ENDBRANCH  16  19
ENDBRANCH   9  10
ENDBRANCH   2   9
TORSDOF 11
ENDMDL
MODEL       26
REMARK 921   NORMALIZED FREE ENERGY PREDICTED BY IDOCK:   -5.41 KCAL/MOL
REMARK 922        TOTAL FREE ENERGY PREDICTED BY IDOCK:  -11.29 KCAL/MOL
REMARK 923 INTER-LIGAND FREE ENERGY PREDICTED BY IDOCK:   -9.54 KCAL/MOL
REMARK 924 INTRA-LIGAND FREE ENERGY PREDICTED BY IDOCK:   -1.75 KCAL/MOL
REMARK 927      BINDING AFFINITY PREDICTED BY RF-SCORE:    0.00 PKD
ROOT
HETATM    1  C   UNL     1     -12.040  15.351  69.780  1.00  0.00    -0.373 C  
HETATM    2  C   UNL     1     -11.642  15.071  68.530  1.00  0.00    -0.348 C  
ENDROOT
BRANCH   1   3
HETATM    3  C   UNL     1     -12.030  14.411  70.954  1.00  0.00    -0.393 C  
BRANCH   3   4
HETATM    4  C   UNL     1     -13.353  13.655  71.083  1.00  0.00    -0.187 C  
BRANCH   4   5
HETATM    5  C   UNL     1     -13.235  12.438  72.001  1.00  0.00    -0.514 C  
HETATM    6  O   UNL     1     -12.651  10.135  72.073  1.00  0.00    -0.376 OA 
HETATM    7  C   UNL     1     -12.769  11.211  71.260  1.00  0.00    -0.426 C  
HETATM    8  O   UNL     1     -12.508  11.161  70.067  1.00  0.00    -0.285 OA 
ENDBRANCH   4   5
ENDBRANCH   3   4
ENDBRANCH   1   3
BRANCH   2   9
HETATM    9  C   UNL     1     -11.159  13.738  68.025  1.00  0.00    -0.284 C  
BRANCH   9  10
HETATM   10  C   UNL     1     -10.601  13.722  66.593  1.00  0.00    -0.274 C  
HETATM   11  H   UNL     1     -12.726  15.653  63.969  1.00  0.00     0.000 HD 
HETATM   12  C   UNL     1     -11.217  12.583  65.765  1.00  0.00    -0.320 C  
HETATM   13  O   UNL     1     -12.555  14.719  63.980  1.00  0.00    -0.822 OA 
HETATM   14  O   UNL     1     -12.634  12.528  65.918  1.00  0.00    -0.514 OA 
HETATM   15  C   UNL     1     -10.909  12.980  64.330  1.00  0.00    -0.409 C  
HETATM   16  C   UNL     1     -10.902  14.992  65.750  1.00  0.00    -0.355 C  
HETATM   17  H   UNL     1     -13.014  11.824  65.406  1.00  0.00     0.000 HD 
HETATM   18  C   UNL     1     -11.184  14.483  64.313  1.00  0.00    -0.062 C  
BRANCH  16  19
HETATM   19  C   UNL     1      -9.802  16.027  65.797  1.00  0.00    -0.357 C  
HETATM   20  C   UNL     1      -8.667  15.920  66.510  1.00  0.00    -0.350 C  
BRANCH  20  21
HETATM   21  C   UNL     1      -7.594  16.968  66.623  1.00  0.00    -0.263 C  
HETATM   22  O   UNL     1      -7.696  17.896  65.549  1.00  0.00    -0.505 OA 
HETATM   23  H   UNL     1      -7.019  18.558  65.620  1.00  0.00     0.000 HD 
BRANCH  21  24
HETATM   24  C   UNL     1      -7.695  17.744  67.942  1.00  0.00    -0.225 C  
BRANCH  24  25
HETATM   25  C   UNL     1      -9.119  17.928  68.480  1.00  0.00    -0.289 C  
BRANCH  25  26
HETATM   26  C   UNL     1      -9.481  19.394  68.716  1.00  0.00    -0.464 C  
BRANCH  26  27
HETATM   27  C   UNL     1      -9.545  20.175  67.405  1.00  0.00    -0.551 C  
HETATM   28  C   UNL     1     -10.604  19.597  66.480  1.00  0.00    -0.591 C  
ENDBRANCH  26  27
ENDBRANCH  25  26
ENDBRANCH  24  25
ENDBRANCH  21  24
ENDBRANCH  20  21
ENDBRANCH  16  19
ENDBRANCH   9  10
ENDBRANCH   2   9
TORSDOF 11
ENDMDL
MODEL       27
REMARK 921   NORMALIZED FREE ENERGY PREDICTED BY IDOCK:   -5.41 KCAL/MOL
REMARK 922        TOTAL FREE ENERGY PREDICTED BY IDOCK:  -11.29 KCAL/MOL
REMARK 923 INTER-LIGAND FREE ENERGY PREDICTED BY IDOCK:   -9.50 KCAL/MOL
REMARK 924 INTRA-LIGAND FREE ENERGY PREDICTED BY IDOCK:   -1.78 KCAL/MOL
REMARK 927      BINDING AFFINITY PREDICTED BY RF-SCORE:    0.00 PKD
ROOT
HETATM    1  C   UNL     1      -9.707  10.902  68.991  1.00  0.00    -0.181 C  
HETATM    2  C   UNL     1      -9.121  11.031  67.792  1.00  0.00    -0.147 C  
ENDROOT
BRANCH   1   3
HETATM    3  C   UNL     1     -11.132  10.500  69.252  1.00  0.00    -0.298 C  
BRANCH   3   4
HETATM    4  C   UNL     1     -11.683  11.161  70.517  1.00  0.00    -0.392 C  
BRANCH   4   5
HETATM    5  C   UNL     1     -13.003  10.534  70.969  1.00  0.00    -0.475 C  
HETATM    6  O   UNL     1     -13.953   8.793  72.279  1.00  0.00    -0.430 OA 
HETATM    7  C   UNL     1     -12.786   9.342  71.867  1.00  0.00    -0.394 C  
HETATM    8  O   UNL     1     -11.699   8.904  72.212  1.00  0.00    -0.354 OA 
ENDBRANCH   4   5
ENDBRANCH   3   4
ENDBRANCH   1   3
BRANCH   2   9
HETATM    9  C   UNL     1      -9.785  10.860  66.452  1.00  0.00    -0.240 C  
BRANCH   9  10
HETATM   10  C   UNL     1     -10.368  12.135  65.821  1.00  0.00    -0.289 C  
HETATM   11  H   UNL     1     -14.101  11.894  64.758  1.00  0.00     0.000 HD 
HETATM   12  C   UNL     1     -10.272  12.095  64.287  1.00  0.00    -0.324 C  
HETATM   13  O   UNL     1     -13.357  12.023  64.181  1.00  0.00    -0.725 OA 
HETATM   14  O   UNL     1     -10.713  10.843  63.765  1.00  0.00    -0.532 OA 
HETATM   15  C   UNL     1     -11.252  13.167  63.843  1.00  0.00    -0.377 C  
HETATM   16  C   UNL     1     -11.880  12.374  66.088  1.00  0.00    -0.442 C  
HETATM   17  H   UNL     1     -10.653  10.818  62.818  1.00  0.00     0.000 HD 
HETATM   18  C   UNL     1     -12.449  12.959  64.769  1.00  0.00    -0.455 C  
BRANCH  16  19
HETATM   19  C   UNL     1     -12.153  13.257  67.283  1.00  0.00    -0.341 C  
HETATM   20  C   UNL     1     -11.564  14.443  67.522  1.00  0.00    -0.398 C  
BRANCH  20  21
HETATM   21  C   UNL     1     -11.772  15.301  68.740  1.00  0.00    -0.353 C  
HETATM   22  O   UNL     1     -12.729  14.703  69.607  1.00  0.00    -0.569 OA 
HETATM   23  H   UNL     1     -12.860  15.244  70.376  1.00  0.00     0.000 HD 
BRANCH  21  24
HETATM   24  C   UNL     1     -10.469  15.500  69.523  1.00  0.00    -0.263 C  
BRANCH  24  25
HETATM   25  C   UNL     1      -9.497  16.520  68.919  1.00  0.00    -0.260 C  
BRANCH  25  26
HETATM   26  C   UNL     1     -10.125  17.899  68.727  1.00  0.00    -0.384 C  
BRANCH  26  27
HETATM   27  C   UNL     1      -9.582  18.595  67.480  1.00  0.00    -0.317 C  
HETATM   28  C   UNL     1     -10.184  19.982  67.328  1.00  0.00    -0.565 C  
ENDBRANCH  26  27
ENDBRANCH  25  26
ENDBRANCH  24  25
ENDBRANCH  21  24
ENDBRANCH  20  21
ENDBRANCH  16  19
ENDBRANCH   9  10
ENDBRANCH   2   9
TORSDOF 11
ENDMDL
MODEL       28
REMARK 921   NORMALIZED FREE ENERGY PREDICTED BY IDOCK:   -5.41 KCAL/MOL
REMARK 922        TOTAL FREE ENERGY PREDICTED BY IDOCK:  -11.28 KCAL/MOL
REMARK 923 INTER-LIGAND FREE ENERGY PREDICTED BY IDOCK:  -10.20 KCAL/MOL
REMARK 924 INTRA-LIGAND FREE ENERGY PREDICTED BY IDOCK:   -1.08 KCAL/MOL
REMARK 927      BINDING AFFINITY PREDICTED BY RF-SCORE:    0.00 PKD
ROOT
HETATM    1  C   UNL     1     -10.094  13.676  67.542  1.00  0.00    -0.237 C  
HETATM    2  C   UNL     1     -10.990  13.097  68.354  1.00  0.00    -0.287 C  
ENDROOT
BRANCH   1   3
HETATM    3  C   UNL     1      -9.933  15.150  67.292  1.00  0.00    -0.230 C  
BRANCH   3   4
HETATM    4  C   UNL     1     -10.508  15.558  65.934  1.00  0.00    -0.356 C  
BRANCH   4   5
HETATM    5  C   UNL     1     -11.133  14.377  65.192  1.00  0.00    -0.365 C  
HETATM    6  O   UNL     1     -12.633  13.780  63.447  1.00  0.00    -0.842 OA 
HETATM    7  C   UNL     1     -12.088  14.825  64.114  1.00  0.00    -0.299 C  
HETATM    8  O   UNL     1     -12.352  15.985  63.840  1.00  0.00    -0.855 OA 
ENDBRANCH   4   5
ENDBRANCH   3   4
ENDBRANCH   1   3
BRANCH   2   9
HETATM    9  C   UNL     1     -12.065  13.799  69.140  1.00  0.00    -0.374 C  
BRANCH   9  10
HETATM   10  C   UNL     1     -11.846  13.877  70.660  1.00  0.00    -0.292 C  
HETATM   11  H   UNL     1     -15.018  14.724  72.745  1.00  0.00     0.000 HD 
HETATM   12  C   UNL     1     -11.568  15.320  71.112  1.00  0.00    -0.370 C  
HETATM   13  O   UNL     1     -14.235  15.256  72.667  1.00  0.00    -0.459 OA 
HETATM   14  O   UNL     1     -12.492  16.239  70.533  1.00  0.00    -0.425 OA 
HETATM   15  C   UNL     1     -11.816  15.276  72.610  1.00  0.00    -0.533 C  
HETATM   16  C   UNL     1     -13.062  13.449  71.527  1.00  0.00    -0.427 C  
HETATM   17  H   UNL     1     -12.320  17.131  70.812  1.00  0.00     0.000 HD 
HETATM   18  C   UNL     1     -13.076  14.421  72.736  1.00  0.00    -0.505 C  
BRANCH  16  19
HETATM   19  C   UNL     1     -13.028  11.998  71.946  1.00  0.00    -0.428 C  
HETATM   20  C   UNL     1     -12.892  10.952  71.111  1.00  0.00    -0.508 C  
BRANCH  20  21
HETATM   21  C   UNL     1     -12.926   9.500  71.503  1.00  0.00    -0.386 C  
HETATM   22  O   UNL     1     -14.110   8.884  71.008  1.00  0.00    -0.592 OA 
HETATM   23  H   UNL     1     -14.131   7.967  71.255  1.00  0.00     0.000 HD 
BRANCH  21  24
HETATM   24  C   UNL     1     -11.717   8.736  70.952  1.00  0.00    -0.299 C  
BRANCH  24  25
HETATM   25  C   UNL     1     -10.486   8.722  71.865  1.00  0.00    -0.423 C  
BRANCH  25  26
HETATM   26  C   UNL     1     -10.715   7.946  73.161  1.00  0.00    -0.331 C  
BRANCH  26  27
HETATM   27  C   UNL     1     -10.504   6.446  72.963  1.00  0.00    -0.253 C  
HETATM   28  C   UNL     1      -9.250   5.975  73.680  1.00  0.00    -0.127 C  
ENDBRANCH  26  27
ENDBRANCH  25  26
ENDBRANCH  24  25
ENDBRANCH  21  24
ENDBRANCH  20  21
ENDBRANCH  16  19
ENDBRANCH   9  10
ENDBRANCH   2   9
TORSDOF 11
ENDMDL
MODEL       29
REMARK 921   NORMALIZED FREE ENERGY PREDICTED BY IDOCK:   -5.39 KCAL/MOL
REMARK 922        TOTAL FREE ENERGY PREDICTED BY IDOCK:  -11.25 KCAL/MOL
REMARK 923 INTER-LIGAND FREE ENERGY PREDICTED BY IDOCK:   -9.49 KCAL/MOL
REMARK 924 INTRA-LIGAND FREE ENERGY PREDICTED BY IDOCK:   -1.75 KCAL/MOL
REMARK 927      BINDING AFFINITY PREDICTED BY RF-SCORE:    0.00 PKD
ROOT
HETATM    1  C   UNL     1     -11.708  10.897  68.843  1.00  0.00    -0.376 C  
HETATM    2  C   UNL     1     -12.486  11.074  69.921  1.00  0.00    -0.286 C  
ENDROOT
BRANCH   1   3
HETATM    3  C   UNL     1     -10.410  11.599  68.553  1.00  0.00    -0.224 C  
BRANCH   3   4
HETATM    4  C   UNL     1     -10.565  12.635  67.439  1.00  0.00    -0.240 C  
BRANCH   4   5
HETATM    5  C   UNL     1     -11.898  12.498  66.704  1.00  0.00    -0.422 C  
HETATM    6  O   UNL     1     -13.023  12.964  64.662  1.00  0.00    -0.734 OA 
HETATM    7  C   UNL     1     -11.848  13.095  65.320  1.00  0.00    -0.365 C  
HETATM    8  O   UNL     1     -10.873  13.633  64.816  1.00  0.00    -0.349 OA 
ENDBRANCH   4   5
ENDBRANCH   3   4
ENDBRANCH   1   3
BRANCH   2   9
HETATM    9  C   UNL     1     -12.254  12.056  71.038  1.00  0.00    -0.245 C  
BRANCH   9  10
HETATM   10  C   UNL     1     -12.836  13.464  70.827  1.00  0.00    -0.221 C  
HETATM   11  H   UNL     1     -11.232  16.257  73.006  1.00  0.00     0.000 HD 
HETATM   12  C   UNL     1     -13.948  13.767  71.844  1.00  0.00    -0.378 C  
HETATM   13  O   UNL     1     -12.132  15.958  73.046  1.00  0.00    -0.432 OA 
HETATM   14  O   UNL     1     -13.561  13.408  73.169  1.00  0.00    -0.473 OA 
HETATM   15  C   UNL     1     -14.082  15.280  71.782  1.00  0.00    -0.654 C  
HETATM   16  C   UNL     1     -11.831  14.632  71.023  1.00  0.00    -0.379 C  
HETATM   17  H   UNL     1     -14.248  13.596  73.798  1.00  0.00     0.000 HD 
HETATM   18  C   UNL     1     -12.633  15.762  71.720  1.00  0.00    -0.462 C  
BRANCH  16  19
HETATM   19  C   UNL     1     -11.174  15.089  69.741  1.00  0.00    -0.301 C  
HETATM   20  C   UNL     1     -10.913  16.368  69.417  1.00  0.00    -0.325 C  
BRANCH  20  21
HETATM   21  C   UNL     1     -10.325  16.846  68.117  1.00  0.00    -0.336 C  
HETATM   22  O   UNL     1     -10.767  16.023  67.044  1.00  0.00    -0.319 OA 
HETATM   23  H   UNL     1     -10.396  16.324  66.223  1.00  0.00     0.000 HD 
BRANCH  21  24
HETATM   24  C   UNL     1     -10.725  18.294  67.812  1.00  0.00    -0.358 C  
BRANCH  24  25
HETATM   25  C   UNL     1      -9.738  19.359  68.305  1.00  0.00    -0.480 C  
BRANCH  25  26
HETATM   26  C   UNL     1      -8.708  19.752  67.248  1.00  0.00    -0.382 C  
BRANCH  26  27
HETATM   27  C   UNL     1      -7.295  19.792  67.827  1.00  0.00    -0.314 C  
HETATM   28  C   UNL     1      -6.545  21.021  67.342  1.00  0.00    -0.439 C  
ENDBRANCH  26  27
ENDBRANCH  25  26
ENDBRANCH  24  25
ENDBRANCH  21  24
ENDBRANCH  20  21
ENDBRANCH  16  19
ENDBRANCH   9  10
ENDBRANCH   2   9
TORSDOF 11
ENDMDL
MODEL       30
REMARK 921   NORMALIZED FREE ENERGY PREDICTED BY IDOCK:   -5.38 KCAL/MOL
REMARK 922        TOTAL FREE ENERGY PREDICTED BY IDOCK:  -11.24 KCAL/MOL
REMARK 923 INTER-LIGAND FREE ENERGY PREDICTED BY IDOCK:   -9.15 KCAL/MOL
REMARK 924 INTRA-LIGAND FREE ENERGY PREDICTED BY IDOCK:   -2.09 KCAL/MOL
REMARK 927      BINDING AFFINITY PREDICTED BY RF-SCORE:    0.00 PKD
ROOT
HETATM    1  C   UNL     1     -10.523  13.312  68.501  1.00  0.00    -0.259 C  
HETATM    2  C   UNL     1      -9.644  12.338  68.223  1.00  0.00    -0.212 C  
ENDROOT
BRANCH   1   3
HETATM    3  C   UNL     1     -11.936  13.413  67.997  1.00  0.00    -0.357 C  
BRANCH   3   4
HETATM    4  C   UNL     1     -12.004  14.128  66.646  1.00  0.00    -0.470 C  
BRANCH   4   5
HETATM    5  C   UNL     1     -12.237  13.155  65.489  1.00  0.00    -0.513 C  
HETATM    6  O   UNL     1     -12.666  13.014  63.155  1.00  0.00    -0.611 OA 
HETATM    7  C   UNL     1     -12.472  13.873  64.184  1.00  0.00    -0.237 C  
HETATM    8  O   UNL     1     -12.482  15.085  64.034  1.00  0.00    -0.796 OA 
ENDBRANCH   4   5
ENDBRANCH   3   4
ENDBRANCH   1   3
BRANCH   2   9
HETATM    9  C   UNL     1      -9.867  11.171  67.299  1.00  0.00    -0.198 C  
BRANCH   9  10
HETATM   10  C   UNL     1     -10.525   9.932  67.927  1.00  0.00    -0.282 C  
HETATM   11  H   UNL     1      -8.334   8.032  70.518  1.00  0.00     0.000 HD 
HETATM   12  C   UNL     1     -10.148   8.651  67.163  1.00  0.00    -0.261 C  
HETATM   13  O   UNL     1      -8.640   7.696  69.684  1.00  0.00    -0.133 OA 
HETATM   14  O   UNL     1      -8.747   8.590  66.900  1.00  0.00    -0.124 OA 
HETATM   15  C   UNL     1     -10.497   7.540  68.140  1.00  0.00    -0.233 C  
HETATM   16  C   UNL     1     -10.100   9.625  69.389  1.00  0.00    -0.213 C  
HETATM   17  H   UNL     1      -8.514   7.799  66.429  1.00  0.00     0.000 HD 
HETATM   18  C   UNL     1     -10.003   8.080  69.482  1.00  0.00    -0.186 C  
BRANCH  16  19
HETATM   19  C   UNL     1     -11.028  10.213  70.426  1.00  0.00    -0.386 C  
HETATM   20  C   UNL     1     -12.325  10.511  70.228  1.00  0.00    -0.377 C  
BRANCH  20  21
HETATM   21  C   UNL     1     -13.244  11.161  71.226  1.00  0.00    -0.122 C  
HETATM   22  O   UNL     1     -13.260  10.417  72.438  1.00  0.00    -0.568 OA 
HETATM   23  H   UNL     1     -13.840  10.827  73.068  1.00  0.00     0.000 HD 
BRANCH  21  24
HETATM   24  C   UNL     1     -12.810  12.596  71.545  1.00  0.00    -0.368 C  
BRANCH  24  25
HETATM   25  C   UNL     1     -13.869  13.454  72.247  1.00  0.00    -0.671 C  
BRANCH  25  26
HETATM   26  C   UNL     1     -13.541  14.947  72.217  1.00  0.00    -0.538 C  
BRANCH  26  27
HETATM   27  C   UNL     1     -12.925  15.360  70.882  1.00  0.00    -0.539 C  
HETATM   28  C   UNL     1     -11.587  16.049  71.092  1.00  0.00    -0.492 C  
ENDBRANCH  26  27
ENDBRANCH  25  26
ENDBRANCH  24  25
ENDBRANCH  21  24
ENDBRANCH  20  21
ENDBRANCH  16  19
ENDBRANCH   9  10
ENDBRANCH   2   9
TORSDOF 11
ENDMDL
MODEL       31
REMARK 921   NORMALIZED FREE ENERGY PREDICTED BY IDOCK:   -5.36 KCAL/MOL
REMARK 922        TOTAL FREE ENERGY PREDICTED BY IDOCK:  -11.20 KCAL/MOL
REMARK 923 INTER-LIGAND FREE ENERGY PREDICTED BY IDOCK:  -10.10 KCAL/MOL
REMARK 924 INTRA-LIGAND FREE ENERGY PREDICTED BY IDOCK:   -1.11 KCAL/MOL
REMARK 927      BINDING AFFINITY PREDICTED BY RF-SCORE:    0.00 PKD
ROOT
HETATM    1  C   UNL     1     -12.027   9.556  70.942  1.00  0.00    -0.372 C  
HETATM    2  C   UNL     1     -12.221  10.865  70.722  1.00  0.00    -0.483 C  
ENDROOT
BRANCH   1   3
HETATM    3  C   UNL     1     -12.420   8.788  72.173  1.00  0.00    -0.460 C  
BRANCH   3   4
HETATM    4  C   UNL     1     -11.270   7.920  72.688  1.00  0.00    -0.459 C  
BRANCH   4   5
HETATM    5  C   UNL     1      -9.904   8.461  72.264  1.00  0.00    -0.383 C  
HETATM    6  O   UNL     1      -7.617   8.610  72.894  1.00  0.00    -0.346 OA 
HETATM    7  C   UNL     1      -8.830   8.144  73.274  1.00  0.00    -0.256 C  
HETATM    8  O   UNL     1      -8.998   7.532  74.318  1.00  0.00    -0.230 OA 
ENDBRANCH   4   5
ENDBRANCH   3   4
ENDBRANCH   1   3
BRANCH   2   9
HETATM    9  C   UNL     1     -12.819  11.853  71.688  1.00  0.00    -0.417 C  
BRANCH   9  10
HETATM   10  C   UNL     1     -13.286  13.187  71.084  1.00  0.00    -0.109 C  
HETATM   11  H   UNL     1     -10.796  16.147  71.494  1.00  0.00     0.000 HD 
HETATM   12  C   UNL     1     -13.985  14.063  72.136  1.00  0.00    -0.538 C  
HETATM   13  O   UNL     1     -11.666  16.084  71.871  1.00  0.00    -0.452 OA 
HETATM   14  O   UNL     1     -13.243  14.117  73.353  1.00  0.00    -0.495 OA 
HETATM   15  C   UNL     1     -13.972  15.448  71.510  1.00  0.00    -0.601 C  
HETATM   16  C   UNL     1     -12.153  14.101  70.541  1.00  0.00    -0.420 C  
HETATM   17  H   UNL     1     -13.676  14.658  74.003  1.00  0.00     0.000 HD 
HETATM   18  C   UNL     1     -12.573  15.549  70.904  1.00  0.00    -0.456 C  
BRANCH  16  19
HETATM   19  C   UNL     1     -11.886  13.925  69.064  1.00  0.00    -0.397 C  
HETATM   20  C   UNL     1     -11.525  14.906  68.218  1.00  0.00    -0.343 C  
BRANCH  20  21
HETATM   21  C   UNL     1     -11.324  14.762  66.734  1.00  0.00    -0.346 C  
HETATM   22  O   UNL     1     -10.124  14.046  66.467  1.00  0.00    -0.270 OA 
HETATM   23  H   UNL     1      -9.996  13.954  65.531  1.00  0.00     0.000 HD 
BRANCH  21  24
HETATM   24  C   UNL     1     -12.489  14.016  66.074  1.00  0.00    -0.489 C  
BRANCH  24  25
HETATM   25  C   UNL     1     -12.184  12.573  65.658  1.00  0.00    -0.403 C  
BRANCH  25  26
HETATM   26  C   UNL     1     -12.607  12.265  64.222  1.00  0.00    -0.470 C  
BRANCH  26  27
HETATM   27  C   UNL     1     -11.448  12.444  63.244  1.00  0.00    -0.426 C  
HETATM   28  C   UNL     1     -10.351  11.426  63.510  1.00  0.00    -0.476 C  
ENDBRANCH  26  27
ENDBRANCH  25  26
ENDBRANCH  24  25
ENDBRANCH  21  24
ENDBRANCH  20  21
ENDBRANCH  16  19
ENDBRANCH   9  10
ENDBRANCH   2   9
TORSDOF 11
ENDMDL
MODEL       32
REMARK 921   NORMALIZED FREE ENERGY PREDICTED BY IDOCK:   -5.35 KCAL/MOL
REMARK 922        TOTAL FREE ENERGY PREDICTED BY IDOCK:  -11.19 KCAL/MOL
REMARK 923 INTER-LIGAND FREE ENERGY PREDICTED BY IDOCK:   -9.77 KCAL/MOL
REMARK 924 INTRA-LIGAND FREE ENERGY PREDICTED BY IDOCK:   -1.41 KCAL/MOL
REMARK 927      BINDING AFFINITY PREDICTED BY RF-SCORE:    0.00 PKD
ROOT
HETATM    1  C   UNL     1     -12.611  12.870  70.758  1.00  0.00    -0.314 C  
HETATM    2  C   UNL     1     -12.056  11.687  70.454  1.00  0.00    -0.462 C  
ENDROOT
BRANCH   1   3
HETATM    3  C   UNL     1     -13.553  13.151  71.895  1.00  0.00    -0.453 C  
BRANCH   3   4
HETATM    4  C   UNL     1     -14.096  14.580  71.839  1.00  0.00    -0.595 C  
BRANCH   4   5
HETATM    5  C   UNL     1     -13.623  15.424  73.023  1.00  0.00    -0.563 C  
HETATM    6  O   UNL     1     -11.953  16.952  73.748  1.00  0.00    -0.327 OA 
HETATM    7  C   UNL     1     -12.366  16.194  72.705  1.00  0.00    -0.494 C  
HETATM    8  O   UNL     1     -11.771  16.169  71.639  1.00  0.00    -0.467 OA 
ENDBRANCH   4   5
ENDBRANCH   3   4
ENDBRANCH   1   3
BRANCH   2   9
HETATM    9  C   UNL     1     -12.308  10.378  71.154  1.00  0.00    -0.505 C  
BRANCH   9  10
HETATM   10  C   UNL     1     -11.131   9.390  71.178  1.00  0.00    -0.432 C  
HETATM   11  H   UNL     1     -11.844   5.930  69.551  1.00  0.00     0.000 HD 
HETATM   12  C   UNL     1     -11.206   8.460  72.400  1.00  0.00    -0.368 C  
HETATM   13  O   UNL     1     -11.645   6.093  70.465  1.00  0.00    -0.333 OA 
HETATM   14  O   UNL     1     -12.516   7.925  72.574  1.00  0.00    -0.538 OA 
HETATM   15  C   UNL     1     -10.271   7.319  72.035  1.00  0.00    -0.212 C  
HETATM   16  C   UNL     1     -11.064   8.409  69.975  1.00  0.00    -0.148 C  
HETATM   17  H   UNL     1     -12.562   7.351  73.329  1.00  0.00     0.000 HD 
HETATM   18  C   UNL     1     -10.591   7.055  70.564  1.00  0.00    -0.224 C  
BRANCH  16  19
HETATM   19  C   UNL     1     -10.184   8.892  68.846  1.00  0.00    -0.220 C  
HETATM   20  C   UNL     1     -10.620   9.505  67.730  1.00  0.00    -0.318 C  
BRANCH  20  21
HETATM   21  C   UNL     1      -9.766   9.930  66.567  1.00  0.00    -0.204 C  
HETATM   22  O   UNL     1      -9.912   9.013  65.488  1.00  0.00    -0.437 OA 
HETATM   23  H   UNL     1      -9.374   9.281  64.753  1.00  0.00     0.000 HD 
BRANCH  21  24
HETATM   24  C   UNL     1     -10.145  11.329  66.066  1.00  0.00    -0.283 C  
BRANCH  24  25
HETATM   25  C   UNL     1     -11.348  11.967  66.770  1.00  0.00    -0.398 C  
BRANCH  25  26
HETATM   26  C   UNL     1     -12.218  12.796  65.826  1.00  0.00    -0.469 C  
BRANCH  26  27
HETATM   27  C   UNL     1     -11.538  13.009  64.475  1.00  0.00    -0.406 C  
HETATM   28  C   UNL     1     -12.387  12.450  63.346  1.00  0.00    -0.603 C  
ENDBRANCH  26  27
ENDBRANCH  25  26
ENDBRANCH  24  25
ENDBRANCH  21  24
ENDBRANCH  20  21
ENDBRANCH  16  19
ENDBRANCH   9  10
ENDBRANCH   2   9
TORSDOF 11
ENDMDL
MODEL       33
REMARK 921   NORMALIZED FREE ENERGY PREDICTED BY IDOCK:   -5.34 KCAL/MOL
REMARK 922        TOTAL FREE ENERGY PREDICTED BY IDOCK:  -11.17 KCAL/MOL
REMARK 923 INTER-LIGAND FREE ENERGY PREDICTED BY IDOCK:   -8.90 KCAL/MOL
REMARK 924 INTRA-LIGAND FREE ENERGY PREDICTED BY IDOCK:   -2.28 KCAL/MOL
REMARK 927      BINDING AFFINITY PREDICTED BY RF-SCORE:    0.00 PKD
ROOT
HETATM    1  C   UNL     1      -9.126   8.708  66.101  1.00  0.00    -0.250 C  
HETATM    2  C   UNL     1      -9.171   9.724  65.227  1.00  0.00    -0.294 C  
ENDROOT
BRANCH   1   3
HETATM    3  C   UNL     1     -10.290   8.119  66.848  1.00  0.00    -0.401 C  
BRANCH   3   4
HETATM    4  C   UNL     1     -10.489   8.792  68.207  1.00  0.00    -0.236 C  
BRANCH   4   5
HETATM    5  C   UNL     1      -9.255   9.581  68.647  1.00  0.00    -0.135 C  
HETATM    6  O   UNL     1      -7.470   9.639  70.215  1.00  0.00    -0.126 OA 
HETATM    7  C   UNL     1      -8.570   8.949  69.832  1.00  0.00    -0.137 C  
HETATM    8  O   UNL     1      -8.932   7.928  70.397  1.00  0.00    -0.144 OA 
ENDBRANCH   4   5
ENDBRANCH   3   4
ENDBRANCH   1   3
BRANCH   2   9
HETATM    9  C   UNL     1     -10.387  10.528  64.855  1.00  0.00    -0.307 C  
BRANCH   9  10
HETATM   10  C   UNL     1     -10.416  11.979  65.362  1.00  0.00    -0.313 C  
HETATM   11  H   UNL     1     -13.904  13.696  65.257  1.00  0.00     0.000 HD 
HETATM   12  C   UNL     1     -10.257  12.979  64.205  1.00  0.00    -0.239 C  
HETATM   13  O   UNL     1     -13.135  13.950  64.761  1.00  0.00    -0.640 OA 
HETATM   14  O   UNL     1     -11.104  12.650  63.105  1.00  0.00    -0.702 OA 
HETATM   15  C   UNL     1     -10.740  14.291  64.801  1.00  0.00    -0.435 C  
HETATM   16  C   UNL     1     -11.742  12.416  66.044  1.00  0.00    -0.469 C  
HETATM   17  H   UNL     1     -11.005  13.268  62.391  1.00  0.00     0.000 HD 
HETATM   18  C   UNL     1     -11.978  13.883  65.599  1.00  0.00    -0.392 C  
BRANCH  16  19
HETATM   19  C   UNL     1     -11.732  12.257  67.546  1.00  0.00    -0.402 C  
HETATM   20  C   UNL     1     -11.775  13.268  68.434  1.00  0.00    -0.389 C  
BRANCH  20  21
HETATM   21  C   UNL     1     -11.695  13.132  69.930  1.00  0.00    -0.257 C  
HETATM   22  O   UNL     1     -12.649  13.985  70.553  1.00  0.00    -0.335 OA 
HETATM   23  H   UNL     1     -12.599  13.899  71.498  1.00  0.00     0.000 HD 
BRANCH  21  24
HETATM   24  C   UNL     1     -11.964  11.693  70.384  1.00  0.00    -0.448 C  
BRANCH  24  25
HETATM   25  C   UNL     1     -12.983  11.549  71.520  1.00  0.00    -0.485 C  
BRANCH  25  26
HETATM   26  C   UNL     1     -13.229  10.095  71.920  1.00  0.00    -0.557 C  
BRANCH  26  27
HETATM   27  C   UNL     1     -11.966   9.250  71.768  1.00  0.00    -0.455 C  
HETATM   28  C   UNL     1     -12.314   7.814  71.414  1.00  0.00    -0.346 C  
ENDBRANCH  26  27
ENDBRANCH  25  26
ENDBRANCH  24  25
ENDBRANCH  21  24
ENDBRANCH  20  21
ENDBRANCH  16  19
ENDBRANCH   9  10
ENDBRANCH   2   9
TORSDOF 11
ENDMDL
MODEL       34
REMARK 921   NORMALIZED FREE ENERGY PREDICTED BY IDOCK:   -5.30 KCAL/MOL
REMARK 922        TOTAL FREE ENERGY PREDICTED BY IDOCK:  -11.11 KCAL/MOL
REMARK 923 INTER-LIGAND FREE ENERGY PREDICTED BY IDOCK:   -9.10 KCAL/MOL
REMARK 924 INTRA-LIGAND FREE ENERGY PREDICTED BY IDOCK:   -2.01 KCAL/MOL
REMARK 927      BINDING AFFINITY PREDICTED BY RF-SCORE:    0.00 PKD
ROOT
HETATM    1  C   UNL     1     -12.503  12.280  64.257  1.00  0.00    -0.508 C  
HETATM    2  C   UNL     1     -11.574  11.730  63.461  1.00  0.00    -0.487 C  
ENDROOT
BRANCH   1   3
HETATM    3  C   UNL     1     -12.257  13.008  65.549  1.00  0.00    -0.521 C  
BRANCH   3   4
HETATM    4  C   UNL     1     -12.351  14.524  65.371  1.00  0.00    -0.286 C  
BRANCH   4   5
HETATM    5  C   UNL     1     -11.145  15.252  65.966  1.00  0.00    -0.278 C  
HETATM    6  O   UNL     1      -9.678  17.099  65.672  1.00  0.00    -0.545 OA 
HETATM    7  C   UNL     1     -10.738  16.446  65.140  1.00  0.00    -0.291 C  
HETATM    8  O   UNL     1     -11.285  16.815  64.112  1.00  0.00    -1.155 OA 
ENDBRANCH   4   5
ENDBRANCH   3   4
ENDBRANCH   1   3
BRANCH   2   9
HETATM    9  C   UNL     1     -10.093  11.671  63.726  1.00  0.00    -0.416 C  
BRANCH   9  10
HETATM   10  C   UNL     1      -9.586  10.406  64.437  1.00  0.00    -0.375 C  
HETATM   11  H   UNL     1      -6.792  11.001  67.077  1.00  0.00     0.000 HD 
HETATM   12  C   UNL     1      -8.344   9.832  63.737  1.00  0.00    -0.170 C  
HETATM   13  O   UNL     1      -6.710  10.506  66.270  1.00  0.00    -0.106 OA 
HETATM   14  O   UNL     1      -7.387  10.849  63.445  1.00  0.00    -0.337 OA 
HETATM   15  C   UNL     1      -7.745   8.903  64.781  1.00  0.00    -0.111 C  
HETATM   16  C   UNL     1      -9.118  10.612  65.904  1.00  0.00    -0.201 C  
HETATM   17  H   UNL     1      -6.620  10.493  63.012  1.00  0.00     0.000 HD 
HETATM   18  C   UNL     1      -7.876   9.699  66.079  1.00  0.00    -0.102 C  
BRANCH  16  19
HETATM   19  C   UNL     1     -10.193  10.336  66.929  1.00  0.00    -0.286 C  
HETATM   20  C   UNL     1     -10.250  10.879  68.158  1.00  0.00    -0.197 C  
BRANCH  20  21
HETATM   21  C   UNL     1     -11.273  10.563  69.215  1.00  0.00    -0.262 C  
HETATM   22  O   UNL     1     -10.633  10.308  70.460  1.00  0.00    -0.409 OA 
HETATM   23  H   UNL     1     -11.279  10.109  71.127  1.00  0.00     0.000 HD 
BRANCH  21  24
HETATM   24  C   UNL     1     -12.264  11.716  69.408  1.00  0.00    -0.246 C  
BRANCH  24  25
HETATM   25  C   UNL     1     -11.642  13.117  69.397  1.00  0.00    -0.360 C  
BRANCH  25  26
HETATM   26  C   UNL     1     -12.515  14.162  70.091  1.00  0.00    -0.391 C  
BRANCH  26  27
HETATM   27  C   UNL     1     -12.684  13.856  71.578  1.00  0.00    -0.440 C  
HETATM   28  C   UNL     1     -14.106  14.139  72.031  1.00  0.00    -0.619 C  
ENDBRANCH  26  27
ENDBRANCH  25  26
ENDBRANCH  24  25
ENDBRANCH  21  24
ENDBRANCH  20  21
ENDBRANCH  16  19
ENDBRANCH   9  10
ENDBRANCH   2   9
TORSDOF 11
ENDMDL
MODEL       35
REMARK 921   NORMALIZED FREE ENERGY PREDICTED BY IDOCK:   -5.30 KCAL/MOL
REMARK 922        TOTAL FREE ENERGY PREDICTED BY IDOCK:  -11.10 KCAL/MOL
REMARK 923 INTER-LIGAND FREE ENERGY PREDICTED BY IDOCK:   -9.11 KCAL/MOL
REMARK 924 INTRA-LIGAND FREE ENERGY PREDICTED BY IDOCK:   -1.99 KCAL/MOL
REMARK 927      BINDING AFFINITY PREDICTED BY RF-SCORE:    0.00 PKD
ROOT
HETATM    1  C   UNL     1      -9.193   9.771  67.892  1.00  0.00    -0.133 C  
HETATM    2  C   UNL     1      -8.799  10.395  66.773  1.00  0.00    -0.139 C  
ENDROOT
BRANCH   1   3
HETATM    3  C   UNL     1     -10.470   9.001  68.085  1.00  0.00    -0.257 C  
BRANCH   3   4
HETATM    4  C   UNL     1     -10.200   7.560  68.524  1.00  0.00    -0.216 C  
BRANCH   4   5
HETATM    5  C   UNL     1     -10.979   6.546  67.687  1.00  0.00    -0.426 C  
HETATM    6  O   UNL     1     -10.753   4.755  66.140  1.00  0.00    -0.308 OA 
HETATM    7  C   UNL     1     -10.066   5.663  66.872  1.00  0.00    -0.193 C  
HETATM    8  O   UNL     1      -8.846   5.726  66.860  1.00  0.00    -0.114 OA 
ENDBRANCH   4   5
ENDBRANCH   3   4
ENDBRANCH   1   3
BRANCH   2   9
HETATM    9  C   UNL     1      -9.581  10.508  65.492  1.00  0.00    -0.282 C  
BRANCH   9  10
HETATM   10  C   UNL     1     -10.205  11.882  65.203  1.00  0.00    -0.314 C  
HETATM   11  H   UNL     1     -14.087  11.916  64.958  1.00  0.00     0.000 HD 
HETATM   12  C   UNL     1     -10.439  12.085  63.697  1.00  0.00    -0.454 C  
HETATM   13  O   UNL     1     -13.475  12.115  64.259  1.00  0.00    -0.708 OA 
HETATM   14  O   UNL     1     -11.056  10.945  63.102  1.00  0.00    -0.691 OA 
HETATM   15  C   UNL     1     -11.424  13.241  63.643  1.00  0.00    -0.287 C  
HETATM   16  C   UNL     1     -11.609  12.117  65.826  1.00  0.00    -0.414 C  
HETATM   17  H   UNL     1     -11.200  11.071  62.172  1.00  0.00     0.000 HD 
HETATM   18  C   UNL     1     -12.408  12.920  64.767  1.00  0.00    -0.459 C  
BRANCH  16  19
HETATM   19  C   UNL     1     -11.568  12.805  67.171  1.00  0.00    -0.426 C  
HETATM   20  C   UNL     1     -11.778  12.204  68.356  1.00  0.00    -0.388 C  
BRANCH  20  21
HETATM   21  C   UNL     1     -11.810  12.886  69.697  1.00  0.00    -0.320 C  
HETATM   22  O   UNL     1     -12.550  14.099  69.615  1.00  0.00    -0.469 OA 
HETATM   23  H   UNL     1     -12.570  14.529  70.461  1.00  0.00     0.000 HD 
BRANCH  21  24
HETATM   24  C   UNL     1     -12.454  11.999  70.768  1.00  0.00    -0.372 C  
BRANCH  24  25
HETATM   25  C   UNL     1     -12.290  10.491  70.549  1.00  0.00    -0.432 C  
BRANCH  25  26
HETATM   26  C   UNL     1     -12.693   9.664  71.769  1.00  0.00    -0.510 C  
BRANCH  26  27
HETATM   27  C   UNL     1     -11.847   8.399  71.895  1.00  0.00    -0.398 C  
HETATM   28  C   UNL     1     -12.526   7.222  71.215  1.00  0.00    -0.402 C  
ENDBRANCH  26  27
ENDBRANCH  25  26
ENDBRANCH  24  25
ENDBRANCH  21  24
ENDBRANCH  20  21
ENDBRANCH  16  19
ENDBRANCH   9  10
ENDBRANCH   2   9
TORSDOF 11
ENDMDL
MODEL       36
REMARK 921   NORMALIZED FREE ENERGY PREDICTED BY IDOCK:   -5.29 KCAL/MOL
REMARK 922        TOTAL FREE ENERGY PREDICTED BY IDOCK:  -11.08 KCAL/MOL
REMARK 923 INTER-LIGAND FREE ENERGY PREDICTED BY IDOCK:   -9.05 KCAL/MOL
REMARK 924 INTRA-LIGAND FREE ENERGY PREDICTED BY IDOCK:   -2.03 KCAL/MOL
REMARK 927      BINDING AFFINITY PREDICTED BY RF-SCORE:    0.00 PKD
ROOT
HETATM    1  C   UNL     1     -11.230  11.047  68.577  1.00  0.00    -0.329 C  
HETATM    2  C   UNL     1     -12.126  11.886  69.119  1.00  0.00    -0.261 C  
ENDROOT
BRANCH   1   3
HETATM    3  C   UNL     1     -10.086  10.379  69.287  1.00  0.00    -0.248 C  
BRANCH   3   4
HETATM    4  C   UNL     1     -10.477   8.997  69.814  1.00  0.00    -0.227 C  
BRANCH   4   5
HETATM    5  C   UNL     1     -10.750   9.009  71.319  1.00  0.00    -0.379 C  
HETATM    6  O   UNL     1     -12.060   8.027  73.041  1.00  0.00    -0.200 OA 
HETATM    7  C   UNL     1     -11.827   8.028  71.708  1.00  0.00    -0.296 C  
HETATM    8  O   UNL     1     -12.430   7.296  70.938  1.00  0.00    -0.308 OA 
ENDBRANCH   4   5
ENDBRANCH   3   4
ENDBRANCH   1   3
BRANCH   2   9
HETATM    9  C   UNL     1     -12.136  12.383  70.539  1.00  0.00    -0.363 C  
BRANCH   9  10
HETATM   10  C   UNL     1     -12.807  13.747  70.771  1.00  0.00    -0.302 C  
HETATM   11  H   UNL     1     -11.458  15.756  73.815  1.00  0.00     0.000 HD 
HETATM   12  C   UNL     1     -13.964  13.637  71.776  1.00  0.00    -0.211 C  
HETATM   13  O   UNL     1     -12.337  15.411  73.711  1.00  0.00    -0.493 OA 
HETATM   14  O   UNL     1     -13.590  12.886  72.929  1.00  0.00    -0.677 OA 
HETATM   15  C   UNL     1     -14.200  15.077  72.204  1.00  0.00    -0.636 C  
HETATM   16  C   UNL     1     -11.890  14.840  71.385  1.00  0.00    -0.394 C  
HETATM   17  H   UNL     1     -14.306  12.818  73.550  1.00  0.00     0.000 HD 
HETATM   18  C   UNL     1     -12.786  15.632  72.372  1.00  0.00    -0.433 C  
BRANCH  16  19
HETATM   19  C   UNL     1     -11.232  15.728  70.355  1.00  0.00    -0.383 C  
HETATM   20  C   UNL     1     -11.644  15.880  69.083  1.00  0.00    -0.382 C  
BRANCH  20  21
HETATM   21  C   UNL     1     -10.961  16.704  68.026  1.00  0.00    -0.311 C  
HETATM   22  O   UNL     1      -9.813  17.347  68.568  1.00  0.00    -0.287 OA 
HETATM   23  H   UNL     1      -9.382  17.867  67.901  1.00  0.00     0.000 HD 
BRANCH  21  24
HETATM   24  C   UNL     1     -10.517  15.845  66.836  1.00  0.00    -0.309 C  
BRANCH  24  25
HETATM   25  C   UNL     1     -10.943  14.374  66.901  1.00  0.00    -0.308 C  
BRANCH  25  26
HETATM   26  C   UNL     1     -12.270  14.106  66.193  1.00  0.00    -0.465 C  
BRANCH  26  27
HETATM   27  C   UNL     1     -12.176  12.899  65.262  1.00  0.00    -0.524 C  
HETATM   28  C   UNL     1     -10.726  12.524  65.004  1.00  0.00    -0.326 C  
ENDBRANCH  26  27
ENDBRANCH  25  26
ENDBRANCH  24  25
ENDBRANCH  21  24
ENDBRANCH  20  21
ENDBRANCH  16  19
ENDBRANCH   9  10
ENDBRANCH   2   9
TORSDOF 11
ENDMDL
MODEL       37
REMARK 921   NORMALIZED FREE ENERGY PREDICTED BY IDOCK:   -5.29 KCAL/MOL
REMARK 922        TOTAL FREE ENERGY PREDICTED BY IDOCK:  -11.08 KCAL/MOL
REMARK 923 INTER-LIGAND FREE ENERGY PREDICTED BY IDOCK:   -9.11 KCAL/MOL
REMARK 924 INTRA-LIGAND FREE ENERGY PREDICTED BY IDOCK:   -1.97 KCAL/MOL
REMARK 927      BINDING AFFINITY PREDICTED BY RF-SCORE:    0.00 PKD
ROOT
HETATM    1  C   UNL     1     -10.134  11.184  67.591  1.00  0.00    -0.203 C  
HETATM    2  C   UNL     1      -9.748  10.079  68.247  1.00  0.00    -0.155 C  
ENDROOT
BRANCH   1   3
HETATM    3  C   UNL     1     -10.735  12.421  68.198  1.00  0.00    -0.243 C  
BRANCH   3   4
HETATM    4  C   UNL     1     -11.756  13.071  67.264  1.00  0.00    -0.429 C  
BRANCH   4   5
HETATM    5  C   UNL     1     -11.756  12.433  65.874  1.00  0.00    -0.476 C  
HETATM    6  O   UNL     1     -12.679  12.587  63.689  1.00  0.00    -0.712 OA 
HETATM    7  C   UNL     1     -12.688  13.142  64.924  1.00  0.00    -0.356 C  
HETATM    8  O   UNL     1     -13.375  14.113  65.199  1.00  0.00    -0.684 OA 
ENDBRANCH   4   5
ENDBRANCH   3   4
ENDBRANCH   1   3
BRANCH   2   9
HETATM    9  C   UNL     1      -9.890   9.823  69.723  1.00  0.00    -0.262 C  
BRANCH   9  10
HETATM   10  C   UNL     1     -11.180   9.110  70.161  1.00  0.00    -0.211 C  
HETATM   11  H   UNL     1     -11.421   8.318  73.961  1.00  0.00     0.000 HD 
HETATM   12  C   UNL     1     -10.992   7.584  70.192  1.00  0.00    -0.254 C  
HETATM   13  O   UNL     1     -11.384   7.685  73.254  1.00  0.00    -0.313 OA 
HETATM   14  O   UNL     1      -9.781   7.217  70.852  1.00  0.00    -0.171 OA 
HETATM   15  C   UNL     1     -12.159   7.100  71.037  1.00  0.00    -0.391 C  
HETATM   16  C   UNL     1     -11.670   9.448  71.596  1.00  0.00    -0.468 C  
HETATM   17  H   UNL     1      -9.665   6.274  70.871  1.00  0.00     0.000 HD 
HETATM   18  C   UNL     1     -12.218   8.118  72.175  1.00  0.00    -0.350 C  
BRANCH  16  19
HETATM   19  C   UNL     1     -12.685  10.566  71.642  1.00  0.00    -0.550 C  
HETATM   20  C   UNL     1     -12.416  11.867  71.431  1.00  0.00    -0.261 C  
BRANCH  20  21
HETATM   21  C   UNL     1     -13.399  13.000  71.542  1.00  0.00    -0.199 C  
HETATM   22  O   UNL     1     -14.202  12.844  72.706  1.00  0.00    -0.683 OA 
HETATM   23  H   UNL     1     -14.822  13.560  72.777  1.00  0.00     0.000 HD 
BRANCH  21  24
HETATM   24  C   UNL     1     -12.693  14.359  71.620  1.00  0.00    -0.419 C  
BRANCH  24  25
HETATM   25  C   UNL     1     -12.423  15.030  70.269  1.00  0.00    -0.385 C  
BRANCH  25  26
HETATM   26  C   UNL     1     -11.268  16.029  70.321  1.00  0.00    -0.397 C  
BRANCH  26  27
HETATM   27  C   UNL     1     -10.740  16.352  68.924  1.00  0.00    -0.319 C  
HETATM   28  C   UNL     1      -9.336  15.803  68.734  1.00  0.00    -0.218 C  
ENDBRANCH  26  27
ENDBRANCH  25  26
ENDBRANCH  24  25
ENDBRANCH  21  24
ENDBRANCH  20  21
ENDBRANCH  16  19
ENDBRANCH   9  10
ENDBRANCH   2   9
TORSDOF 11
ENDMDL
MODEL       38
REMARK 921   NORMALIZED FREE ENERGY PREDICTED BY IDOCK:   -5.27 KCAL/MOL
REMARK 922        TOTAL FREE ENERGY PREDICTED BY IDOCK:  -11.05 KCAL/MOL
REMARK 923 INTER-LIGAND FREE ENERGY PREDICTED BY IDOCK:   -9.16 KCAL/MOL
REMARK 924 INTRA-LIGAND FREE ENERGY PREDICTED BY IDOCK:   -1.90 KCAL/MOL
REMARK 927      BINDING AFFINITY PREDICTED BY RF-SCORE:    0.00 PKD
ROOT
HETATM    1  C   UNL     1     -12.520  12.622  64.983  1.00  0.00    -0.556 C  
HETATM    2  C   UNL     1     -12.633  13.419  66.057  1.00  0.00    -0.361 C  
ENDROOT
BRANCH   1   3
HETATM    3  C   UNL     1     -11.756  12.922  63.723  1.00  0.00    -0.557 C  
BRANCH   3   4
HETATM    4  C   UNL     1     -10.345  12.334  63.765  1.00  0.00    -0.464 C  
BRANCH   4   5
HETATM    5  C   UNL     1     -10.350  10.844  64.104  1.00  0.00    -0.432 C  
HETATM    6  O   UNL     1      -9.737   9.248  65.757  1.00  0.00    -0.278 OA 
HETATM    7  C   UNL     1      -9.723  10.566  65.448  1.00  0.00    -0.257 C  
HETATM    8  O   UNL     1      -9.257  11.409  66.199  1.00  0.00    -0.200 OA 
ENDBRANCH   4   5
ENDBRANCH   3   4
ENDBRANCH   1   3
BRANCH   2   9
HETATM    9  C   UNL     1     -12.068  14.806  66.201  1.00  0.00    -0.100 C  
BRANCH   9  10
HETATM   10  C   UNL     1     -10.968  14.978  67.261  1.00  0.00    -0.326 C  
HETATM   11  H   UNL     1     -10.429  18.623  68.507  1.00  0.00     0.000 HD 
HETATM   12  C   UNL     1      -9.623  15.351  66.616  1.00  0.00    -0.256 C  
HETATM   13  O   UNL     1      -9.802  18.090  68.032  1.00  0.00    -0.294 OA 
HETATM   14  O   UNL     1      -9.773  16.391  65.651  1.00  0.00    -0.492 OA 
HETATM   15  C   UNL     1      -8.811  15.897  67.780  1.00  0.00    -0.176 C  
HETATM   16  C   UNL     1     -11.211  16.118  68.289  1.00  0.00    -0.343 C  
HETATM   17  H   UNL     1      -8.942  16.621  65.252  1.00  0.00     0.000 HD 
HETATM   18  C   UNL     1      -9.820  16.755  68.543  1.00  0.00    -0.257 C  
BRANCH  16  19
HETATM   19  C   UNL     1     -11.881  15.655  69.561  1.00  0.00    -0.387 C  
HETATM   20  C   UNL     1     -11.557  16.062  70.802  1.00  0.00    -0.431 C  
BRANCH  20  21
HETATM   21  C   UNL     1     -12.166  15.560  72.082  1.00  0.00    -0.404 C  
HETATM   22  O   UNL     1     -11.855  16.442  73.154  1.00  0.00    -0.472 OA 
HETATM   23  H   UNL     1     -12.239  16.126  73.963  1.00  0.00     0.000 HD 
BRANCH  21  24
HETATM   24  C   UNL     1     -13.691  15.445  71.978  1.00  0.00    -0.613 C  
BRANCH  24  25
HETATM   25  C   UNL     1     -14.229  14.013  71.873  1.00  0.00    -0.511 C  
BRANCH  25  26
HETATM   26  C   UNL     1     -13.185  12.957  72.231  1.00  0.00    -0.519 C  
BRANCH  26  27
HETATM   27  C   UNL     1     -13.053  11.902  71.135  1.00  0.00    -0.131 C  
HETATM   28  C   UNL     1     -11.820  12.155  70.284  1.00  0.00    -0.339 C  
ENDBRANCH  26  27
ENDBRANCH  25  26
ENDBRANCH  24  25
ENDBRANCH  21  24
ENDBRANCH  20  21
ENDBRANCH  16  19
ENDBRANCH   9  10
ENDBRANCH   2   9
TORSDOF 11
ENDMDL
MODEL       39
REMARK 921   NORMALIZED FREE ENERGY PREDICTED BY IDOCK:   -5.26 KCAL/MOL
REMARK 922        TOTAL FREE ENERGY PREDICTED BY IDOCK:  -11.04 KCAL/MOL
REMARK 923 INTER-LIGAND FREE ENERGY PREDICTED BY IDOCK:   -9.17 KCAL/MOL
REMARK 924 INTRA-LIGAND FREE ENERGY PREDICTED BY IDOCK:   -1.88 KCAL/MOL
REMARK 927      BINDING AFFINITY PREDICTED BY RF-SCORE:    0.00 PKD
ROOT
HETATM    1  C   UNL     1     -11.793  12.125  66.300  1.00  0.00    -0.320 C  
HETATM    2  C   UNL     1     -11.466  12.613  67.506  1.00  0.00    -0.397 C  
ENDROOT
BRANCH   1   3
HETATM    3  C   UNL     1     -12.629  12.809  65.255  1.00  0.00    -0.460 C  
BRANCH   3   4
HETATM    4  C   UNL     1     -11.765  13.424  64.153  1.00  0.00    -0.466 C  
BRANCH   4   5
HETATM    5  C   UNL     1     -12.040  14.916  63.967  1.00  0.00    -0.153 C  
HETATM    6  O   UNL     1     -11.222  17.095  64.449  1.00  0.00    -1.143 OA 
HETATM    7  C   UNL     1     -10.987  15.774  64.624  1.00  0.00    -0.314 C  
HETATM    8  O   UNL     1     -10.017  15.357  65.238  1.00  0.00    -0.331 OA 
ENDBRANCH   4   5
ENDBRANCH   3   4
ENDBRANCH   1   3
BRANCH   2   9
HETATM    9  C   UNL     1     -11.918  13.924  68.090  1.00  0.00    -0.385 C  
BRANCH   9  10
HETATM   10  C   UNL     1     -11.690  14.103  69.600  1.00  0.00    -0.372 C  
HETATM   11  H   UNL     1     -14.910  14.015  71.780  1.00  0.00     0.000 HD 
HETATM   12  C   UNL     1     -11.845  15.574  70.019  1.00  0.00    -0.359 C  
HETATM   13  O   UNL     1     -14.325  14.755  71.666  1.00  0.00    -0.469 OA 
HETATM   14  O   UNL     1     -13.018  16.160  69.458  1.00  0.00    -0.359 OA 
HETATM   15  C   UNL     1     -12.026  15.496  71.526  1.00  0.00    -0.463 C  
HETATM   16  C   UNL     1     -12.697  13.353  70.516  1.00  0.00    -0.194 C  
HETATM   17  H   UNL     1     -13.113  17.069  69.717  1.00  0.00     0.000 HD 
HETATM   18  C   UNL     1     -12.967  14.307  71.709  1.00  0.00    -0.354 C  
BRANCH  16  19
HETATM   19  C   UNL     1     -12.217  11.990  70.957  1.00  0.00    -0.245 C  
HETATM   20  C   UNL     1     -12.990  10.896  71.074  1.00  0.00    -0.396 C  
BRANCH  20  21
HETATM   21  C   UNL     1     -12.545   9.550  71.578  1.00  0.00    -0.373 C  
HETATM   22  O   UNL     1     -13.268   8.515  70.922  1.00  0.00    -0.499 OA 
HETATM   23  H   UNL     1     -12.987   7.665  71.240  1.00  0.00     0.000 HD 
BRANCH  21  24
HETATM   24  C   UNL     1     -11.048   9.321  71.336  1.00  0.00    -0.437 C  
BRANCH  24  25
HETATM   25  C   UNL     1     -10.713   8.417  70.145  1.00  0.00    -0.238 C  
BRANCH  25  26
HETATM   26  C   UNL     1      -9.344   8.716  69.537  1.00  0.00    -0.153 C  
BRANCH  26  27
HETATM   27  C   UNL     1      -9.439   9.758  68.424  1.00  0.00    -0.146 C  
HETATM   28  C   UNL     1      -8.288  10.747  68.506  1.00  0.00    -0.138 C  
ENDBRANCH  26  27
ENDBRANCH  25  26
ENDBRANCH  24  25
ENDBRANCH  21  24
ENDBRANCH  20  21
ENDBRANCH  16  19
ENDBRANCH   9  10
ENDBRANCH   2   9
TORSDOF 11
ENDMDL
MODEL       40
REMARK 921   NORMALIZED FREE ENERGY PREDICTED BY IDOCK:   -5.25 KCAL/MOL
REMARK 922        TOTAL FREE ENERGY PREDICTED BY IDOCK:  -11.03 KCAL/MOL
REMARK 923 INTER-LIGAND FREE ENERGY PREDICTED BY IDOCK:   -9.05 KCAL/MOL
REMARK 924 INTRA-LIGAND FREE ENERGY PREDICTED BY IDOCK:   -1.98 KCAL/MOL
REMARK 927      BINDING AFFINITY PREDICTED BY RF-SCORE:    0.00 PKD
ROOT
HETATM    1  C   UNL     1     -12.270  12.053  63.847  1.00  0.00    -0.555 C  
HETATM    2  C   UNL     1     -12.775  13.082  64.543  1.00  0.00    -0.318 C  
ENDROOT
BRANCH   1   3
HETATM    3  C   UNL     1     -10.899  11.974  63.235  1.00  0.00    -0.400 C  
BRANCH   3   4
HETATM    4  C   UNL     1      -9.842  11.572  64.265  1.00  0.00    -0.279 C  
BRANCH   4   5
HETATM    5  C   UNL     1     -10.264  10.347  65.077  1.00  0.00    -0.334 C  
HETATM    6  O   UNL     1      -9.463   8.605  66.482  1.00  0.00    -0.180 OA 
HETATM    7  C   UNL     1      -9.090   9.682  65.752  1.00  0.00    -0.185 C  
HETATM    8  O   UNL     1      -7.929  10.053  65.679  1.00  0.00    -0.128 OA 
ENDBRANCH   4   5
ENDBRANCH   3   4
ENDBRANCH   1   3
BRANCH   2   9
HETATM    9  C   UNL     1     -12.098  14.399  64.806  1.00  0.00    -0.462 C  
BRANCH   9  10
HETATM   10  C   UNL     1     -11.051  14.406  65.932  1.00  0.00    -0.319 C  
HETATM   11  H   UNL     1     -11.631  17.062  68.713  1.00  0.00     0.000 HD 
HETATM   12  C   UNL     1      -9.934  15.425  65.652  1.00  0.00    -0.362 C  
HETATM   13  O   UNL     1     -10.895  17.024  68.113  1.00  0.00    -0.370 OA 
HETATM   14  O   UNL     1     -10.463  16.684  65.240  1.00  0.00    -0.612 OA 
HETATM   15  C   UNL     1      -9.274  15.608  67.009  1.00  0.00    -0.239 C  
HETATM   16  C   UNL     1     -11.585  14.821  67.331  1.00  0.00    -0.377 C  
HETATM   17  H   UNL     1      -9.773  17.313  65.067  1.00  0.00     0.000 HD 
HETATM   18  C   UNL     1     -10.457  15.670  67.974  1.00  0.00    -0.263 C  
BRANCH  16  19
HETATM   19  C   UNL     1     -11.999  13.652  68.194  1.00  0.00    -0.390 C  
HETATM   20  C   UNL     1     -11.691  12.365  67.956  1.00  0.00    -0.414 C  
BRANCH  20  21
HETATM   21  C   UNL     1     -12.153  11.183  68.765  1.00  0.00    -0.162 C  
HETATM   22  O   UNL     1     -11.703   9.972  68.168  1.00  0.00    -0.660 OA 
HETATM   23  H   UNL     1     -11.995   9.226  68.678  1.00  0.00     0.000 HD 
BRANCH  21  24
HETATM   24  C   UNL     1     -11.623  11.238  70.202  1.00  0.00    -0.393 C  
BRANCH  24  25
HETATM   25  C   UNL     1     -12.396  10.383  71.213  1.00  0.00    -0.507 C  
BRANCH  25  26
HETATM   26  C   UNL     1     -11.636   9.125  71.632  1.00  0.00    -0.449 C  
BRANCH  26  27
HETATM   27  C   UNL     1     -12.406   7.856  71.272  1.00  0.00    -0.300 C  
HETATM   28  C   UNL     1     -11.504   6.855  70.570  1.00  0.00    -0.390 C  
ENDBRANCH  26  27
ENDBRANCH  25  26
ENDBRANCH  24  25
ENDBRANCH  21  24
ENDBRANCH  20  21
ENDBRANCH  16  19
ENDBRANCH   9  10
ENDBRANCH   2   9
TORSDOF 11
ENDMDL
MODEL       41
REMARK 921   NORMALIZED FREE ENERGY PREDICTED BY IDOCK:   -5.24 KCAL/MOL
REMARK 922        TOTAL FREE ENERGY PREDICTED BY IDOCK:  -11.01 KCAL/MOL
REMARK 923 INTER-LIGAND FREE ENERGY PREDICTED BY IDOCK:   -9.52 KCAL/MOL
REMARK 924 INTRA-LIGAND FREE ENERGY PREDICTED BY IDOCK:   -1.49 KCAL/MOL
REMARK 927      BINDING AFFINITY PREDICTED BY RF-SCORE:    0.00 PKD
ROOT
HETATM    1  C   UNL     1     -12.477  12.601  70.470  1.00  0.00    -0.273 C  
HETATM    2  C   UNL     1     -11.884  11.724  69.646  1.00  0.00    -0.407 C  
ENDROOT
BRANCH   1   3
HETATM    3  C   UNL     1     -13.009  12.317  71.847  1.00  0.00    -0.411 C  
BRANCH   3   4
HETATM    4  C   UNL     1     -13.822  13.493  72.392  1.00  0.00    -0.687 C  
BRANCH   4   5
HETATM    5  C   UNL     1     -12.947  14.508  73.128  1.00  0.00    -0.577 C  
HETATM    6  O   UNL     1     -11.938  16.654  72.958  1.00  0.00    -0.506 OA 
HETATM    7  C   UNL     1     -12.702  15.748  72.304  1.00  0.00    -0.446 C  
HETATM    8  O   UNL     1     -13.135  15.947  71.180  1.00  0.00    -0.500 OA 
ENDBRANCH   4   5
ENDBRANCH   3   4
ENDBRANCH   1   3
BRANCH   2   9
HETATM    9  C   UNL     1     -11.680  10.256  69.905  1.00  0.00    -0.298 C  
BRANCH   9  10
HETATM   10  C   UNL     1     -10.501   9.600  69.168  1.00  0.00    -0.230 C  
HETATM   11  H   UNL     1     -11.494   7.158  66.307  1.00  0.00     0.000 HD 
HETATM   12  C   UNL     1     -10.158   8.228  69.771  1.00  0.00    -0.197 C  
HETATM   13  O   UNL     1     -11.037   6.932  67.110  1.00  0.00    -0.370 OA 
HETATM   14  O   UNL     1     -11.326   7.436  69.977  1.00  0.00    -0.408 OA 
HETATM   15  C   UNL     1      -9.319   7.565  68.691  1.00  0.00    -0.143 C  
HETATM   16  C   UNL     1     -10.749   9.288  67.666  1.00  0.00    -0.276 C  
HETATM   17  H   UNL     1     -11.114   6.589  70.350  1.00  0.00     0.000 HD 
HETATM   18  C   UNL     1     -10.052   7.928  67.401  1.00  0.00    -0.226 C  
BRANCH  16  19
HETATM   19  C   UNL     1     -10.275  10.378  66.734  1.00  0.00    -0.282 C  
HETATM   20  C   UNL     1      -9.971  10.209  65.434  1.00  0.00    -0.377 C  
BRANCH  20  21
HETATM   21  C   UNL     1      -9.432  11.266  64.510  1.00  0.00    -0.185 C  
HETATM   22  O   UNL     1      -8.109  10.936  64.103  1.00  0.00    -0.364 OA 
HETATM   23  H   UNL     1      -7.768  11.603  63.519  1.00  0.00     0.000 HD 
BRANCH  21  24
HETATM   24  C   UNL     1     -10.299  11.419  63.255  1.00  0.00    -0.422 C  
BRANCH  24  25
HETATM   25  C   UNL     1     -11.639  12.131  63.474  1.00  0.00    -0.562 C  
BRANCH  25  26
HETATM   26  C   UNL     1     -11.519  13.364  64.368  1.00  0.00    -0.417 C  
BRANCH  26  27
HETATM   27  C   UNL     1     -12.661  13.438  65.380  1.00  0.00    -0.528 C  
HETATM   28  C   UNL     1     -12.123  13.558  66.796  1.00  0.00    -0.425 C  
ENDBRANCH  26  27
ENDBRANCH  25  26
ENDBRANCH  24  25
ENDBRANCH  21  24
ENDBRANCH  20  21
ENDBRANCH  16  19
ENDBRANCH   9  10
ENDBRANCH   2   9
TORSDOF 11
ENDMDL
MODEL       42
REMARK 921   NORMALIZED FREE ENERGY PREDICTED BY IDOCK:   -5.23 KCAL/MOL
REMARK 922        TOTAL FREE ENERGY PREDICTED BY IDOCK:  -10.99 KCAL/MOL
REMARK 923 INTER-LIGAND FREE ENERGY PREDICTED BY IDOCK:   -8.69 KCAL/MOL
REMARK 924 INTRA-LIGAND FREE ENERGY PREDICTED BY IDOCK:   -2.31 KCAL/MOL
REMARK 927      BINDING AFFINITY PREDICTED BY RF-SCORE:    0.00 PKD
ROOT
HETATM    1  C   UNL     1      -8.634  12.537  67.187  1.00  0.00    -0.200 C  
HETATM    2  C   UNL     1      -8.202  13.805  67.267  1.00  0.00    -0.173 C  
ENDROOT
BRANCH   1   3
HETATM    3  C   UNL     1      -9.430  11.796  68.225  1.00  0.00    -0.193 C  
BRANCH   3   4
HETATM    4  C   UNL     1     -10.935  11.988  68.027  1.00  0.00    -0.267 C  
BRANCH   4   5
HETATM    5  C   UNL     1     -11.753  10.906  68.731  1.00  0.00    -0.355 C  
HETATM    6  O   UNL     1     -12.986  10.406  70.701  1.00  0.00    -0.368 OA 
HETATM    7  C   UNL     1     -12.251  11.358  70.081  1.00  0.00    -0.321 C  
HETATM    8  O   UNL     1     -12.042  12.453  70.582  1.00  0.00    -0.358 OA 
ENDBRANCH   4   5
ENDBRANCH   3   4
ENDBRANCH   1   3
BRANCH   2   9
HETATM    9  C   UNL     1      -8.372  14.732  68.440  1.00  0.00    -0.154 C  
BRANCH   9  10
HETATM   10  C   UNL     1      -9.325  15.919  68.227  1.00  0.00    -0.194 C  
HETATM   11  H   UNL     1      -8.752  17.933  64.950  1.00  0.00     0.000 HD 
HETATM   12  C   UNL     1      -8.712  17.229  68.748  1.00  0.00    -0.232 C  
HETATM   13  O   UNL     1      -8.646  18.257  65.837  1.00  0.00    -0.502 OA 
HETATM   14  O   UNL     1      -7.361  17.386  68.317  1.00  0.00    -0.197 OA 
HETATM   15  C   UNL     1      -9.552  18.305  68.080  1.00  0.00    -0.314 C  
HETATM   16  C   UNL     1      -9.666  16.239  66.745  1.00  0.00    -0.253 C  
HETATM   17  H   UNL     1      -6.983  18.196  68.639  1.00  0.00     0.000 HD 
HETATM   18  C   UNL     1      -9.722  17.786  66.653  1.00  0.00    -0.313 C  
BRANCH  16  19
HETATM   19  C   UNL     1     -10.936  15.580  66.260  1.00  0.00    -0.242 C  
HETATM   20  C   UNL     1     -11.047  14.835  65.145  1.00  0.00    -0.389 C  
BRANCH  20  21
HETATM   21  C   UNL     1     -12.316  14.230  64.610  1.00  0.00    -0.415 C  
HETATM   22  O   UNL     1     -12.452  14.516  63.223  1.00  0.00    -1.010 OA 
HETATM   23  H   UNL     1     -13.253  14.135  62.885  1.00  0.00     0.000 HD 
BRANCH  21  24
HETATM   24  C   UNL     1     -12.341  12.708  64.794  1.00  0.00    -0.556 C  
BRANCH  24  25
HETATM   25  C   UNL     1     -12.048  11.896  63.527  1.00  0.00    -0.575 C  
BRANCH  25  26
HETATM   26  C   UNL     1     -10.596  11.430  63.441  1.00  0.00    -0.435 C  
BRANCH  26  27
HETATM   27  C   UNL     1     -10.201  10.592  64.656  1.00  0.00    -0.404 C  
HETATM   28  C   UNL     1      -9.111   9.597  64.297  1.00  0.00    -0.267 C  
ENDBRANCH  26  27
ENDBRANCH  25  26
ENDBRANCH  24  25
ENDBRANCH  21  24
ENDBRANCH  20  21
ENDBRANCH  16  19
ENDBRANCH   9  10
ENDBRANCH   2   9
TORSDOF 11
ENDMDL
MODEL       43
REMARK 921   NORMALIZED FREE ENERGY PREDICTED BY IDOCK:   -5.23 KCAL/MOL
REMARK 922        TOTAL FREE ENERGY PREDICTED BY IDOCK:  -10.99 KCAL/MOL
REMARK 923 INTER-LIGAND FREE ENERGY PREDICTED BY IDOCK:   -9.14 KCAL/MOL
REMARK 924 INTRA-LIGAND FREE ENERGY PREDICTED BY IDOCK:   -1.85 KCAL/MOL
REMARK 927      BINDING AFFINITY PREDICTED BY RF-SCORE:    0.00 PKD
ROOT
HETATM    1  C   UNL     1     -10.138  10.385  68.277  1.00  0.00    -0.174 C  
HETATM    2  C   UNL     1      -9.617   9.150  68.247  1.00  0.00    -0.161 C  
ENDROOT
BRANCH   1   3
HETATM    3  C   UNL     1     -11.522  10.783  67.841  1.00  0.00    -0.306 C  
BRANCH   3   4
HETATM    4  C   UNL     1     -11.522  12.138  67.130  1.00  0.00    -0.413 C  
BRANCH   4   5
HETATM    5  C   UNL     1     -10.887  12.061  65.741  1.00  0.00    -0.329 C  
HETATM    6  O   UNL     1     -11.322  12.293  63.416  1.00  0.00    -0.440 OA 
HETATM    7  C   UNL     1     -11.884  12.347  64.646  1.00  0.00    -0.380 C  
HETATM    8  O   UNL     1     -13.064  12.612  64.814  1.00  0.00    -0.852 OA 
ENDBRANCH   4   5
ENDBRANCH   3   4
ENDBRANCH   1   3
BRANCH   2   9
HETATM    9  C   UNL     1     -10.286   7.912  67.714  1.00  0.00    -0.289 C  
BRANCH   9  10
HETATM   10  C   UNL     1     -10.719   6.875  68.763  1.00  0.00    -0.255 C  
HETATM   11  H   UNL     1      -8.934   7.165  72.207  1.00  0.00     0.000 HD 
HETATM   12  C   UNL     1      -9.789   5.651  68.757  1.00  0.00    -0.146 C  
HETATM   13  O   UNL     1      -8.876   6.436  71.600  1.00  0.00    -0.136 OA 
HETATM   14  O   UNL     1      -8.416   6.034  68.740  1.00  0.00    -0.112 OA 
HETATM   15  C   UNL     1     -10.079   4.978  70.089  1.00  0.00    -0.338 C  
HETATM   16  C   UNL     1     -10.671   7.364  70.237  1.00  0.00    -0.250 C  
HETATM   17  H   UNL     1      -7.841   5.277  68.735  1.00  0.00     0.000 HD 
HETATM   18  C   UNL     1     -10.171   6.151  71.064  1.00  0.00    -0.196 C  
BRANCH  16  19
HETATM   19  C   UNL     1     -11.987   7.909  70.739  1.00  0.00    -0.146 C  
HETATM   20  C   UNL     1     -12.159   9.112  71.317  1.00  0.00    -0.392 C  
BRANCH  20  21
HETATM   21  C   UNL     1     -13.448   9.641  71.885  1.00  0.00    -0.413 C  
HETATM   22  O   UNL     1     -13.736   9.008  73.126  1.00  0.00    -1.013 OA 
HETATM   23  H   UNL     1     -14.550   9.342  73.485  1.00  0.00     0.000 HD 
BRANCH  21  24
HETATM   24  C   UNL     1     -13.385  11.155  72.119  1.00  0.00    -0.270 C  
BRANCH  24  25
HETATM   25  C   UNL     1     -12.598  11.943  71.065  1.00  0.00    -0.381 C  
BRANCH  25  26
HETATM   26  C   UNL     1     -12.741  13.456  71.225  1.00  0.00    -0.424 C  
BRANCH  26  27
HETATM   27  C   UNL     1     -13.810  13.815  72.254  1.00  0.00    -0.679 C  
HETATM   28  C   UNL     1     -14.018  15.319  72.320  1.00  0.00    -0.646 C  
ENDBRANCH  26  27
ENDBRANCH  25  26
ENDBRANCH  24  25
ENDBRANCH  21  24
ENDBRANCH  20  21
ENDBRANCH  16  19
ENDBRANCH   9  10
ENDBRANCH   2   9
TORSDOF 11
ENDMDL
MODEL       44
REMARK 921   NORMALIZED FREE ENERGY PREDICTED BY IDOCK:   -5.21 KCAL/MOL
REMARK 922        TOTAL FREE ENERGY PREDICTED BY IDOCK:  -10.96 KCAL/MOL
REMARK 923 INTER-LIGAND FREE ENERGY PREDICTED BY IDOCK:   -8.28 KCAL/MOL
REMARK 924 INTRA-LIGAND FREE ENERGY PREDICTED BY IDOCK:   -2.68 KCAL/MOL
REMARK 927      BINDING AFFINITY PREDICTED BY RF-SCORE:    0.00 PKD
ROOT
HETATM    1  C   UNL     1     -11.904  12.514  69.617  1.00  0.00    -0.382 C  
HETATM    2  C   UNL     1     -12.408  11.956  70.728  1.00  0.00    -0.416 C  
ENDROOT
BRANCH   1   3
HETATM    3  C   UNL     1     -11.743  11.851  68.277  1.00  0.00    -0.385 C  
BRANCH   3   4
HETATM    4  C   UNL     1     -11.645  12.877  67.147  1.00  0.00    -0.421 C  
BRANCH   4   5
HETATM    5  C   UNL     1     -11.815  12.238  65.769  1.00  0.00    -0.417 C  
HETATM    6  O   UNL     1     -12.871  12.484  63.654  1.00  0.00    -0.731 OA 
HETATM    7  C   UNL     1     -12.729  13.041  64.879  1.00  0.00    -0.390 C  
HETATM    8  O   UNL     1     -13.284  14.084  65.192  1.00  0.00    -0.768 OA 
ENDBRANCH   4   5
ENDBRANCH   3   4
ENDBRANCH   1   3
BRANCH   2   9
HETATM    9  C   UNL     1     -12.862  10.530  70.883  1.00  0.00    -0.485 C  
BRANCH   9  10
HETATM   10  C   UNL     1     -11.807   9.540  71.403  1.00  0.00    -0.464 C  
HETATM   11  H   UNL     1     -11.764   6.083  69.622  1.00  0.00     0.000 HD 
HETATM   12  C   UNL     1     -12.394   8.609  72.476  1.00  0.00    -0.309 C  
HETATM   13  O   UNL     1     -11.972   6.245  70.534  1.00  0.00    -0.263 OA 
HETATM   14  O   UNL     1     -13.654   8.075  72.076  1.00  0.00    -0.423 OA 
HETATM   15  C   UNL     1     -11.393   7.467  72.541  1.00  0.00    -0.384 C  
HETATM   16  C   UNL     1     -11.236   8.560  70.340  1.00  0.00    -0.224 C  
HETATM   17  H   UNL     1     -14.017   7.500  72.740  1.00  0.00     0.000 HD 
HETATM   18  C   UNL     1     -11.059   7.205  71.073  1.00  0.00    -0.260 C  
BRANCH  16  19
HETATM   19  C   UNL     1      -9.960   9.044  69.693  1.00  0.00    -0.196 C  
HETATM   20  C   UNL     1      -9.002   9.761  70.307  1.00  0.00    -0.198 C  
BRANCH  20  21
HETATM   21  C   UNL     1      -7.759  10.310  69.660  1.00  0.00    -0.160 C  
HETATM   22  O   UNL     1      -7.076   9.281  68.953  1.00  0.00    -0.066 OA 
HETATM   23  H   UNL     1      -6.292   9.627  68.545  1.00  0.00     0.000 HD 
BRANCH  21  24
HETATM   24  C   UNL     1      -8.084  11.439  68.675  1.00  0.00    -0.141 C  
BRANCH  24  25
HETATM   25  C   UNL     1      -7.449  11.294  67.288  1.00  0.00    -0.126 C  
BRANCH  25  26
HETATM   26  C   UNL     1      -8.482  11.202  66.166  1.00  0.00    -0.156 C  
BRANCH  26  27
HETATM   27  C   UNL     1      -8.550   9.794  65.578  1.00  0.00    -0.158 C  
HETATM   28  C   UNL     1      -9.770   9.049  66.093  1.00  0.00    -0.354 C  
ENDBRANCH  26  27
ENDBRANCH  25  26
ENDBRANCH  24  25
ENDBRANCH  21  24
ENDBRANCH  20  21
ENDBRANCH  16  19
ENDBRANCH   9  10
ENDBRANCH   2   9
TORSDOF 11
ENDMDL
MODEL       45
REMARK 921   NORMALIZED FREE ENERGY PREDICTED BY IDOCK:   -5.21 KCAL/MOL
REMARK 922        TOTAL FREE ENERGY PREDICTED BY IDOCK:  -10.96 KCAL/MOL
REMARK 923 INTER-LIGAND FREE ENERGY PREDICTED BY IDOCK:   -9.34 KCAL/MOL
REMARK 924 INTRA-LIGAND FREE ENERGY PREDICTED BY IDOCK:   -1.62 KCAL/MOL
REMARK 927      BINDING AFFINITY PREDICTED BY RF-SCORE:    0.00 PKD
ROOT
HETATM    1  C   UNL     1     -10.556  13.741  67.301  1.00  0.00    -0.275 C  
HETATM    2  C   UNL     1     -11.206  13.145  68.312  1.00  0.00    -0.307 C  
ENDROOT
BRANCH   1   3
HETATM    3  C   UNL     1     -10.753  15.151  66.818  1.00  0.00    -0.311 C  
BRANCH   3   4
HETATM    4  C   UNL     1     -10.051  16.162  67.727  1.00  0.00    -0.250 C  
BRANCH   4   5
HETATM    5  C   UNL     1     -10.329  17.606  67.307  1.00  0.00    -0.354 C  
HETATM    6  O   UNL     1      -9.576  19.382  65.917  1.00  0.00    -0.410 OA 
HETATM    7  C   UNL     1      -9.324  18.108  66.300  1.00  0.00    -0.208 C  
HETATM    8  O   UNL     1      -8.388  17.463  65.853  1.00  0.00    -0.535 OA 
ENDBRANCH   4   5
ENDBRANCH   3   4
ENDBRANCH   1   3
BRANCH   2   9
HETATM    9  C   UNL     1     -12.313  13.744  69.137  1.00  0.00    -0.138 C  
BRANCH   9  10
HETATM   10  C   UNL     1     -12.039  13.865  70.645  1.00  0.00    -0.417 C  
HETATM   11  H   UNL     1     -15.029  15.158  72.769  1.00  0.00     0.000 HD 
HETATM   12  C   UNL     1     -11.587  15.286  71.019  1.00  0.00    -0.356 C  
HETATM   13  O   UNL     1     -14.194  15.594  72.645  1.00  0.00    -0.546 OA 
HETATM   14  O   UNL     1     -12.421  16.277  70.421  1.00  0.00    -0.409 OA 
HETATM   15  C   UNL     1     -11.791  15.338  72.524  1.00  0.00    -0.532 C  
HETATM   16  C   UNL     1     -13.267  13.617  71.564  1.00  0.00    -0.409 C  
HETATM   17  H   UNL     1     -12.141  17.155  70.653  1.00  0.00     0.000 HD 
HETATM   18  C   UNL     1     -13.134  14.637  72.724  1.00  0.00    -0.486 C  
BRANCH  16  19
HETATM   19  C   UNL     1     -13.381  12.191  72.051  1.00  0.00    -0.470 C  
HETATM   20  C   UNL     1     -12.816  11.122  71.462  1.00  0.00    -0.542 C  
BRANCH  20  21
HETATM   21  C   UNL     1     -12.977   9.690  71.893  1.00  0.00    -0.435 C  
HETATM   22  O   UNL     1     -14.033   9.072  71.166  1.00  0.00    -0.564 OA 
HETATM   23  H   UNL     1     -14.135   8.168  71.438  1.00  0.00     0.000 HD 
BRANCH  21  24
HETATM   24  C   UNL     1     -11.695   8.881  71.663  1.00  0.00    -0.411 C  
BRANCH  24  25
HETATM   25  C   UNL     1     -10.646   9.563  70.778  1.00  0.00    -0.387 C  
BRANCH  25  26
HETATM   26  C   UNL     1     -10.930   9.401  69.285  1.00  0.00    -0.137 C  
BRANCH  26  27
HETATM   27  C   UNL     1      -9.674   9.627  68.446  1.00  0.00    -0.163 C  
HETATM   28  C   UNL     1      -9.967   9.434  66.968  1.00  0.00    -0.282 C  
ENDBRANCH  26  27
ENDBRANCH  25  26
ENDBRANCH  24  25
ENDBRANCH  21  24
ENDBRANCH  20  21
ENDBRANCH  16  19
ENDBRANCH   9  10
ENDBRANCH   2   9
TORSDOF 11
ENDMDL
MODEL       46
REMARK 921   NORMALIZED FREE ENERGY PREDICTED BY IDOCK:   -5.21 KCAL/MOL
REMARK 922        TOTAL FREE ENERGY PREDICTED BY IDOCK:  -10.95 KCAL/MOL
REMARK 923 INTER-LIGAND FREE ENERGY PREDICTED BY IDOCK:   -8.16 KCAL/MOL
REMARK 924 INTRA-LIGAND FREE ENERGY PREDICTED BY IDOCK:   -2.78 KCAL/MOL
REMARK 927      BINDING AFFINITY PREDICTED BY RF-SCORE:    0.00 PKD
ROOT
HETATM    1  C   UNL     1      -7.499  14.411  67.797  1.00  0.00    -0.182 C  
HETATM    2  C   UNL     1      -7.849  15.684  68.035  1.00  0.00    -0.135 C  
ENDROOT
BRANCH   1   3
HETATM    3  C   UNL     1      -8.286  13.183  68.163  1.00  0.00    -0.160 C  
BRANCH   3   4
HETATM    4  C   UNL     1      -8.327  12.175  67.013  1.00  0.00    -0.173 C  
BRANCH   4   5
HETATM    5  C   UNL     1      -9.145  10.932  67.364  1.00  0.00    -0.144 C  
HETATM    6  O   UNL     1     -10.238   9.030  66.448  1.00  0.00    -0.288 OA 
HETATM    7  C   UNL     1      -9.525  10.139  66.139  1.00  0.00    -0.188 C  
HETATM    8  O   UNL     1      -9.230  10.427  64.989  1.00  0.00    -0.181 OA 
ENDBRANCH   4   5
ENDBRANCH   3   4
ENDBRANCH   1   3
BRANCH   2   9
HETATM    9  C   UNL     1      -9.074  16.148  68.775  1.00  0.00    -0.229 C  
BRANCH   9  10
HETATM   10  C   UNL     1     -10.044  17.037  67.979  1.00  0.00    -0.305 C  
HETATM   11  H   UNL     1      -8.441  19.006  65.033  1.00  0.00     0.000 HD 
HETATM   12  C   UNL     1     -10.043  18.481  68.509  1.00  0.00    -0.378 C  
HETATM   13  O   UNL     1      -8.836  19.379  65.812  1.00  0.00    -0.393 OA 
HETATM   14  O   UNL     1      -8.716  18.967  68.706  1.00  0.00    -0.350 OA 
HETATM   15  C   UNL     1     -10.677  19.274  67.379  1.00  0.00    -0.594 C  
HETATM   16  C   UNL     1      -9.708  17.201  66.471  1.00  0.00    -0.299 C  
HETATM   17  H   UNL     1      -8.716  19.859  69.034  1.00  0.00     0.000 HD 
HETATM   18  C   UNL     1     -10.042  18.675  66.125  1.00  0.00    -0.369 C  
BRANCH  16  19
HETATM   19  C   UNL     1     -10.427  16.216  65.579  1.00  0.00    -0.407 C  
HETATM   20  C   UNL     1     -10.190  14.892  65.536  1.00  0.00    -0.401 C  
BRANCH  20  21
HETATM   21  C   UNL     1     -10.847  13.909  64.606  1.00  0.00    -0.408 C  
HETATM   22  O   UNL     1      -9.861  13.137  63.929  1.00  0.00    -0.735 OA 
HETATM   23  H   UNL     1     -10.276  12.516  63.342  1.00  0.00     0.000 HD 
BRANCH  21  24
HETATM   24  C   UNL     1     -11.778  12.951  65.358  1.00  0.00    -0.413 C  
BRANCH  24  25
HETATM   25  C   UNL     1     -12.395  13.519  66.642  1.00  0.00    -0.351 C  
BRANCH  25  26
HETATM   26  C   UNL     1     -11.914  12.801  67.902  1.00  0.00    -0.320 C  
BRANCH  26  27
HETATM   27  C   UNL     1     -11.688  13.778  69.053  1.00  0.00    -0.372 C  
HETATM   28  C   UNL     1     -12.201  13.201  70.362  1.00  0.00    -0.389 C  
ENDBRANCH  26  27
ENDBRANCH  25  26
ENDBRANCH  24  25
ENDBRANCH  21  24
ENDBRANCH  20  21
ENDBRANCH  16  19
ENDBRANCH   9  10
ENDBRANCH   2   9
TORSDOF 11
ENDMDL
MODEL       47
REMARK 921   NORMALIZED FREE ENERGY PREDICTED BY IDOCK:   -5.19 KCAL/MOL
REMARK 922        TOTAL FREE ENERGY PREDICTED BY IDOCK:  -10.92 KCAL/MOL
REMARK 923 INTER-LIGAND FREE ENERGY PREDICTED BY IDOCK:   -9.38 KCAL/MOL
REMARK 924 INTRA-LIGAND FREE ENERGY PREDICTED BY IDOCK:   -1.54 KCAL/MOL
REMARK 927      BINDING AFFINITY PREDICTED BY RF-SCORE:    0.00 PKD
ROOT
HETATM    1  C   UNL     1      -8.814   9.790  67.883  1.00  0.00    -0.122 C  
HETATM    2  C   UNL     1      -9.702   9.982  66.896  1.00  0.00    -0.237 C  
ENDROOT
BRANCH   1   3
HETATM    3  C   UNL     1      -8.866  10.388  69.262  1.00  0.00    -0.166 C  
BRANCH   3   4
HETATM    4  C   UNL     1      -9.576   9.463  70.252  1.00  0.00    -0.294 C  
BRANCH   4   5
HETATM    5  C   UNL     1     -10.852  10.091  70.814  1.00  0.00    -0.330 C  
HETATM    6  O   UNL     1     -12.840   9.635  72.035  1.00  0.00    -0.390 OA 
HETATM    7  C   UNL     1     -11.716   9.080  71.525  1.00  0.00    -0.345 C  
HETATM    8  O   UNL     1     -11.457   7.893  71.653  1.00  0.00    -0.250 OA 
ENDBRANCH   4   5
ENDBRANCH   3   4
ENDBRANCH   1   3
BRANCH   2   9
HETATM    9  C   UNL     1     -10.905  10.885  66.941  1.00  0.00    -0.307 C  
BRANCH   9  10
HETATM   10  C   UNL     1     -10.666  12.347  66.529  1.00  0.00    -0.265 C  
HETATM   11  H   UNL     1     -13.878  14.376  65.699  1.00  0.00     0.000 HD 
HETATM   12  C   UNL     1     -10.580  12.489  65.000  1.00  0.00    -0.300 C  
HETATM   13  O   UNL     1     -13.178  14.156  65.096  1.00  0.00    -0.743 OA 
HETATM   14  O   UNL     1     -11.635  11.786  64.346  1.00  0.00    -0.313 OA 
HETATM   15  C   UNL     1     -10.787  13.977  64.771  1.00  0.00    -0.430 C  
HETATM   16  C   UNL     1     -11.791  13.341  66.927  1.00  0.00    -0.446 C  
HETATM   17  H   UNL     1     -11.581  11.875  63.402  1.00  0.00     0.000 HD 
HETATM   18  C   UNL     1     -11.913  14.332  65.741  1.00  0.00    -0.393 C  
BRANCH  16  19
HETATM   19  C   UNL     1     -11.548  14.037  68.245  1.00  0.00    -0.364 C  
HETATM   20  C   UNL     1     -10.794  15.138  68.413  1.00  0.00    -0.255 C  
BRANCH  20  21
HETATM   21  C   UNL     1     -10.484  15.803  69.727  1.00  0.00    -0.317 C  
HETATM   22  O   UNL     1     -10.781  17.193  69.657  1.00  0.00    -0.367 OA 
HETATM   23  H   UNL     1     -10.585  17.613  70.486  1.00  0.00     0.000 HD 
BRANCH  21  24
HETATM   24  C   UNL     1     -11.294  15.193  70.876  1.00  0.00    -0.345 C  
BRANCH  24  25
HETATM   25  C   UNL     1     -11.984  16.208  71.795  1.00  0.00    -0.560 C  
BRANCH  25  26
HETATM   26  C   UNL     1     -12.847  15.547  72.870  1.00  0.00    -0.564 C  
BRANCH  26  27
HETATM   27  C   UNL     1     -13.995  14.748  72.257  1.00  0.00    -0.598 C  
HETATM   28  C   UNL     1     -13.769  13.255  72.429  1.00  0.00    -0.678 C  
ENDBRANCH  26  27
ENDBRANCH  25  26
ENDBRANCH  24  25
ENDBRANCH  21  24
ENDBRANCH  20  21
ENDBRANCH  16  19
ENDBRANCH   9  10
ENDBRANCH   2   9
TORSDOF 11
ENDMDL
MODEL       48
REMARK 921   NORMALIZED FREE ENERGY PREDICTED BY IDOCK:   -5.17 KCAL/MOL
REMARK 922        TOTAL FREE ENERGY PREDICTED BY IDOCK:  -10.89 KCAL/MOL
REMARK 923 INTER-LIGAND FREE ENERGY PREDICTED BY IDOCK:   -8.84 KCAL/MOL
REMARK 924 INTRA-LIGAND FREE ENERGY PREDICTED BY IDOCK:   -2.04 KCAL/MOL
REMARK 927      BINDING AFFINITY PREDICTED BY RF-SCORE:    0.00 PKD
ROOT
HETATM    1  C   UNL     1     -13.024  10.514  71.830  1.00  0.00    -0.582 C  
HETATM    2  C   UNL     1     -12.463  11.154  70.793  1.00  0.00    -0.479 C  
ENDROOT
BRANCH   1   3
HETATM    3  C   UNL     1     -13.534   9.099  71.838  1.00  0.00    -0.492 C  
BRANCH   3   4
HETATM    4  C   UNL     1     -12.456   8.112  72.288  1.00  0.00    -0.345 C  
BRANCH   4   5
HETATM    5  C   UNL     1     -11.924   7.270  71.127  1.00  0.00    -0.363 C  
HETATM    6  O   UNL     1     -10.067   6.952  69.678  1.00  0.00    -0.178 OA 
HETATM    7  C   UNL     1     -10.545   7.705  70.697  1.00  0.00    -0.221 C  
HETATM    8  O   UNL     1      -9.903   8.617  71.194  1.00  0.00    -0.186 OA 
ENDBRANCH   4   5
ENDBRANCH   3   4
ENDBRANCH   1   3
BRANCH   2   9
HETATM    9  C   UNL     1     -12.282  10.610  69.402  1.00  0.00    -0.173 C  
BRANCH   9  10
HETATM   10  C   UNL     1     -11.128  11.217  68.587  1.00  0.00    -0.293 C  
HETATM   11  H   UNL     1     -11.916  11.856  64.832  1.00  0.00     0.000 HD 
HETATM   12  C   UNL     1     -10.303  10.125  67.886  1.00  0.00    -0.194 C  
HETATM   13  O   UNL     1     -11.271  11.251  65.178  1.00  0.00    -0.144 OA 
HETATM   14  O   UNL     1     -11.139   9.172  67.232  1.00  0.00    -0.360 OA 
HETATM   15  C   UNL     1      -9.533  10.891  66.823  1.00  0.00    -0.200 C  
HETATM   16  C   UNL     1     -11.560  12.153  67.424  1.00  0.00    -0.410 C  
HETATM   17  H   UNL     1     -10.628   8.498  66.800  1.00  0.00     0.000 HD 
HETATM   18  C   UNL     1     -10.571  11.863  66.265  1.00  0.00    -0.253 C  
BRANCH  16  19
HETATM   19  C   UNL     1     -11.599  13.615  67.804  1.00  0.00    -0.373 C  
HETATM   20  C   UNL     1     -11.227  14.116  68.996  1.00  0.00    -0.303 C  
BRANCH  20  21
HETATM   21  C   UNL     1     -11.326  15.558  69.416  1.00  0.00    -0.316 C  
HETATM   22  O   UNL     1     -11.417  16.399  68.271  1.00  0.00    -0.312 OA 
HETATM   23  H   UNL     1     -11.479  17.309  68.536  1.00  0.00     0.000 HD 
BRANCH  21  24
HETATM   24  C   UNL     1     -12.553  15.809  70.298  1.00  0.00    -0.226 C  
BRANCH  24  25
HETATM   25  C   UNL     1     -12.973  14.627  71.180  1.00  0.00    -0.415 C  
BRANCH  25  26
HETATM   26  C   UNL     1     -13.931  15.030  72.300  1.00  0.00    -0.611 C  
BRANCH  26  27
HETATM   27  C   UNL     1     -13.279  16.013  73.270  1.00  0.00    -0.651 C  
HETATM   28  C   UNL     1     -12.316  15.297  74.203  1.00  0.00    -0.762 C  
ENDBRANCH  26  27
ENDBRANCH  25  26
ENDBRANCH  24  25
ENDBRANCH  21  24
ENDBRANCH  20  21
ENDBRANCH  16  19
ENDBRANCH   9  10
ENDBRANCH   2   9
TORSDOF 11
ENDMDL
MODEL       49
REMARK 921   NORMALIZED FREE ENERGY PREDICTED BY IDOCK:   -5.16 KCAL/MOL
REMARK 922        TOTAL FREE ENERGY PREDICTED BY IDOCK:  -10.88 KCAL/MOL
REMARK 923 INTER-LIGAND FREE ENERGY PREDICTED BY IDOCK:   -9.73 KCAL/MOL
REMARK 924 INTRA-LIGAND FREE ENERGY PREDICTED BY IDOCK:   -1.15 KCAL/MOL
REMARK 927      BINDING AFFINITY PREDICTED BY RF-SCORE:    0.00 PKD
ROOT
HETATM    1  C   UNL     1     -11.797  12.120  66.303  1.00  0.00    -0.320 C  
HETATM    2  C   UNL     1     -11.450  12.566  67.520  1.00  0.00    -0.397 C  
ENDROOT
BRANCH   1   3
HETATM    3  C   UNL     1     -12.652  12.839  65.297  1.00  0.00    -0.460 C  
BRANCH   3   4
HETATM    4  C   UNL     1     -11.809  13.478  64.192  1.00  0.00    -0.483 C  
BRANCH   4   5
HETATM    5  C   UNL     1     -12.084  14.975  64.047  1.00  0.00    -0.119 C  
HETATM    6  O   UNL     1     -11.249  17.140  64.559  1.00  0.00    -1.104 OA 
HETATM    7  C   UNL     1     -11.014  15.814  64.698  1.00  0.00    -0.314 C  
HETATM    8  O   UNL     1     -10.031  15.381  65.280  1.00  0.00    -0.331 OA 
ENDBRANCH   4   5
ENDBRANCH   3   4
ENDBRANCH   1   3
BRANCH   2   9
HETATM    9  C   UNL     1     -11.894  13.854  68.158  1.00  0.00    -0.407 C  
BRANCH   9  10
HETATM   10  C   UNL     1     -11.649  13.976  69.671  1.00  0.00    -0.348 C  
HETATM   11  H   UNL     1     -14.846  13.828  71.881  1.00  0.00     0.000 HD 
HETATM   12  C   UNL     1     -11.790  15.431  70.145  1.00  0.00    -0.335 C  
HETATM   13  O   UNL     1     -14.258  14.568  71.788  1.00  0.00    -0.439 OA 
HETATM   14  O   UNL     1     -12.965  16.044  69.619  1.00  0.00    -0.484 OA 
HETATM   15  C   UNL     1     -11.955  15.300  71.650  1.00  0.00    -0.437 C  
HETATM   16  C   UNL     1     -12.651  13.199  70.570  1.00  0.00    -0.237 C  
HETATM   17  H   UNL     1     -13.051  16.944  69.912  1.00  0.00     0.000 HD 
HETATM   18  C   UNL     1     -12.903  14.110  71.799  1.00  0.00    -0.347 C  
BRANCH  16  19
HETATM   19  C   UNL     1     -12.176  11.818  70.955  1.00  0.00    -0.378 C  
HETATM   20  C   UNL     1     -12.958  10.728  71.054  1.00  0.00    -0.425 C  
BRANCH  20  21
HETATM   21  C   UNL     1     -12.515   9.362  71.504  1.00  0.00    -0.366 C  
HETATM   22  O   UNL     1     -13.273   8.356  70.842  1.00  0.00    -0.498 OA 
HETATM   23  H   UNL     1     -12.993   7.494  71.125  1.00  0.00     0.000 HD 
BRANCH  21  24
HETATM   24  C   UNL     1     -11.030   9.121  71.207  1.00  0.00    -0.400 C  
BRANCH  24  25
HETATM   25  C   UNL     1     -10.335   8.121  72.138  1.00  0.00    -0.342 C  
BRANCH  25  26
HETATM   26  C   UNL     1     -10.787   6.680  71.907  1.00  0.00    -0.267 C  
BRANCH  26  27
HETATM   27  C   UNL     1     -10.216   5.736  72.964  1.00  0.00    -0.209 C  
HETATM   28  C   UNL     1     -10.334   6.342  74.353  1.00  0.00    -0.278 C  
ENDBRANCH  26  27
ENDBRANCH  25  26
ENDBRANCH  24  25
ENDBRANCH  21  24
ENDBRANCH  20  21
ENDBRANCH  16  19
ENDBRANCH   9  10
ENDBRANCH   2   9
TORSDOF 11
ENDMDL
MODEL       50
REMARK 921   NORMALIZED FREE ENERGY PREDICTED BY IDOCK:   -5.16 KCAL/MOL
REMARK 922        TOTAL FREE ENERGY PREDICTED BY IDOCK:  -10.86 KCAL/MOL
REMARK 923 INTER-LIGAND FREE ENERGY PREDICTED BY IDOCK:   -8.78 KCAL/MOL
REMARK 924 INTRA-LIGAND FREE ENERGY PREDICTED BY IDOCK:   -2.09 KCAL/MOL
REMARK 927      BINDING AFFINITY PREDICTED BY RF-SCORE:    0.00 PKD
ROOT
HETATM    1  C   UNL     1     -13.271  12.155  72.067  1.00  0.00    -0.496 C  
HETATM    2  C   UNL     1     -13.009  10.848  71.923  1.00  0.00    -0.502 C  
ENDROOT
BRANCH   1   3
HETATM    3  C   UNL     1     -13.447  13.160  70.961  1.00  0.00     0.233 C  
BRANCH   3   4
HETATM    4  C   UNL     1     -12.915  14.537  71.361  1.00  0.00    -0.403 C  
BRANCH   4   5
HETATM    5  C   UNL     1     -13.287  14.906  72.797  1.00  0.00    -0.576 C  
HETATM    6  O   UNL     1     -12.843  16.431  74.566  1.00  0.00    -0.681 OA 
HETATM    7  C   UNL     1     -12.506  16.095  73.298  1.00  0.00    -0.536 C  
HETATM    8  O   UNL     1     -11.669  16.712  72.658  1.00  0.00    -0.486 OA 
ENDBRANCH   4   5
ENDBRANCH   3   4
ENDBRANCH   1   3
BRANCH   2   9
HETATM    9  C   UNL     1     -12.775  10.123  70.625  1.00  0.00    -0.334 C  
BRANCH   9  10
HETATM   10  C   UNL     1     -11.454  10.440  69.906  1.00  0.00    -0.368 C  
HETATM   11  H   UNL     1     -11.213   9.146  66.246  1.00  0.00     0.000 HD 
HETATM   12  C   UNL     1     -10.455   9.278  70.033  1.00  0.00    -0.226 C  
HETATM   13  O   UNL     1     -10.675   8.869  66.979  1.00  0.00    -0.248 OA 
HETATM   14  O   UNL     1     -11.070   8.023  69.752  1.00  0.00    -0.404 OA 
HETATM   15  C   UNL     1      -9.438   9.564  68.939  1.00  0.00    -0.155 C  
HETATM   16  C   UNL     1     -11.570  10.658  68.372  1.00  0.00    -0.269 C  
HETATM   17  H   UNL     1     -10.453   7.305  69.830  1.00  0.00     0.000 HD 
HETATM   18  C   UNL     1     -10.302  10.008  67.760  1.00  0.00    -0.215 C  
BRANCH  16  19
HETATM   19  C   UNL     1     -11.732  12.107  67.976  1.00  0.00    -0.409 C  
HETATM   20  C   UNL     1     -11.873  12.555  66.715  1.00  0.00    -0.416 C  
BRANCH  20  21
HETATM   21  C   UNL     1     -11.965  13.998  66.297  1.00  0.00    -0.432 C  
HETATM   22  O   UNL     1     -13.224  14.254  65.685  1.00  0.00    -0.630 OA 
HETATM   23  H   UNL     1     -13.282  15.164  65.421  1.00  0.00     0.000 HD 
BRANCH  21  24
HETATM   24  C   UNL     1     -11.807  14.946  67.492  1.00  0.00    -0.256 C  
BRANCH  24  25
HETATM   25  C   UNL     1     -10.433  15.615  67.614  1.00  0.00    -0.283 C  
BRANCH  25  26
HETATM   26  C   UNL     1      -9.463  15.186  66.515  1.00  0.00    -0.308 C  
BRANCH  26  27
HETATM   27  C   UNL     1      -8.143  14.683  67.096  1.00  0.00    -0.213 C  
HETATM   28  C   UNL     1      -8.387  13.648  68.181  1.00  0.00    -0.166 C  
ENDBRANCH  26  27
ENDBRANCH  25  26
ENDBRANCH  24  25
ENDBRANCH  21  24
ENDBRANCH  20  21
ENDBRANCH  16  19
ENDBRANCH   9  10
ENDBRANCH   2   9
TORSDOF 11
ENDMDL
MODEL       51
REMARK 921   NORMALIZED FREE ENERGY PREDICTED BY IDOCK:   -5.15 KCAL/MOL
REMARK 922        TOTAL FREE ENERGY PREDICTED BY IDOCK:  -10.86 KCAL/MOL
REMARK 923 INTER-LIGAND FREE ENERGY PREDICTED BY IDOCK:   -9.15 KCAL/MOL
REMARK 924 INTRA-LIGAND FREE ENERGY PREDICTED BY IDOCK:   -1.71 KCAL/MOL
REMARK 927      BINDING AFFINITY PREDICTED BY RF-SCORE:    0.00 PKD
ROOT
HETATM    1  C   UNL     1     -11.907  12.663  68.510  1.00  0.00    -0.342 C  
HETATM    2  C   UNL     1     -11.455  11.576  67.866  1.00  0.00    -0.372 C  
ENDROOT
BRANCH   1   3
HETATM    3  C   UNL     1     -11.073  13.704  69.203  1.00  0.00    -0.275 C  
BRANCH   3   4
HETATM    4  C   UNL     1     -11.941  14.783  69.852  1.00  0.00    -0.378 C  
BRANCH   4   5
HETATM    5  C   UNL     1     -12.756  14.241  71.027  1.00  0.00    -0.430 C  
HETATM    6  O   UNL     1     -13.490  14.717  73.237  1.00  0.00    -0.570 OA 
HETATM    7  C   UNL     1     -12.759  15.189  72.200  1.00  0.00    -0.341 C  
HETATM    8  O   UNL     1     -12.189  16.268  72.239  1.00  0.00    -0.482 OA 
ENDBRANCH   4   5
ENDBRANCH   3   4
ENDBRANCH   1   3
BRANCH   2   9
HETATM    9  C   UNL     1     -10.019  11.139  67.755  1.00  0.00    -0.193 C  
BRANCH   9  10
HETATM   10  C   UNL     1      -9.332  11.418  66.409  1.00  0.00    -0.219 C  
HETATM   11  H   UNL     1     -11.712  11.551  63.335  1.00  0.00     0.000 HD 
HETATM   12  C   UNL     1      -8.992  10.112  65.672  1.00  0.00    -0.171 C  
HETATM   13  O   UNL     1     -11.020  10.918  63.487  1.00  0.00    -0.132 OA 
HETATM   14  O   UNL     1     -10.095   9.207  65.671  1.00  0.00    -0.416 OA 
HETATM   15  C   UNL     1      -8.748  10.565  64.242  1.00  0.00    -0.184 C  
HETATM   16  C   UNL     1     -10.187  12.208  65.379  1.00  0.00    -0.299 C  
HETATM   17  H   UNL     1      -9.884   8.400  65.216  1.00  0.00     0.000 HD 
HETATM   18  C   UNL     1      -9.861  11.583  63.998  1.00  0.00    -0.274 C  
BRANCH  16  19
HETATM   19  C   UNL     1      -9.954  13.700  65.414  1.00  0.00    -0.236 C  
HETATM   20  C   UNL     1     -10.833  14.633  65.006  1.00  0.00    -0.431 C  
BRANCH  20  21
HETATM   21  C   UNL     1     -10.590  16.117  64.968  1.00  0.00    -0.276 C  
HETATM   22  O   UNL     1     -11.443  16.731  64.008  1.00  0.00    -1.481 OA 
HETATM   23  H   UNL     1     -11.290  17.668  63.984  1.00  0.00     0.000 HD 
BRANCH  21  24
HETATM   24  C   UNL     1     -10.849  16.769  66.331  1.00  0.00     0.011 C  
BRANCH  24  25
HETATM   25  C   UNL     1      -9.604  17.318  67.036  1.00  0.00    -0.262 C  
BRANCH  25  26
HETATM   26  C   UNL     1      -9.218  18.717  66.560  1.00  0.00    -0.336 C  
BRANCH  26  27
HETATM   27  C   UNL     1     -10.097  19.791  67.198  1.00  0.00    -0.553 C  
HETATM   28  C   UNL     1      -9.912  19.817  68.706  1.00  0.00    -0.510 C  
ENDBRANCH  26  27
ENDBRANCH  25  26
ENDBRANCH  24  25
ENDBRANCH  21  24
ENDBRANCH  20  21
ENDBRANCH  16  19
ENDBRANCH   9  10
ENDBRANCH   2   9
TORSDOF 11
ENDMDL
MODEL       52
REMARK 921   NORMALIZED FREE ENERGY PREDICTED BY IDOCK:   -5.15 KCAL/MOL
REMARK 922        TOTAL FREE ENERGY PREDICTED BY IDOCK:  -10.86 KCAL/MOL
REMARK 923 INTER-LIGAND FREE ENERGY PREDICTED BY IDOCK:   -8.60 KCAL/MOL
REMARK 924 INTRA-LIGAND FREE ENERGY PREDICTED BY IDOCK:   -2.26 KCAL/MOL
REMARK 927      BINDING AFFINITY PREDICTED BY RF-SCORE:    0.00 PKD
ROOT
HETATM    1  C   UNL     1     -11.053   6.043  69.898  1.00  0.00    -0.469 C  
HETATM    2  C   UNL     1     -10.582   5.896  68.651  1.00  0.00    -0.323 C  
ENDROOT
BRANCH   1   3
HETATM    3  C   UNL     1     -11.965   7.133  70.388  1.00  0.00    -0.190 C  
BRANCH   3   4
HETATM    4  C   UNL     1     -11.275   8.026  71.420  1.00  0.00    -0.287 C  
BRANCH   4   5
HETATM    5  C   UNL     1     -11.418   9.512  71.087  1.00  0.00    -0.430 C  
HETATM    6  O   UNL     1     -12.764  11.439  71.441  1.00  0.00    -0.401 OA 
HETATM    7  C   UNL     1     -12.642  10.121  71.724  1.00  0.00    -0.403 C  
HETATM    8  O   UNL     1     -13.444   9.526  72.427  1.00  0.00    -0.453 OA 
ENDBRANCH   4   5
ENDBRANCH   3   4
ENDBRANCH   1   3
BRANCH   2   9
HETATM    9  C   UNL     1     -10.820   6.828  67.493  1.00  0.00    -0.388 C  
BRANCH   9  10
HETATM   10  C   UNL     1      -9.890   8.049  67.409  1.00  0.00    -0.244 C  
HETATM   11  H   UNL     1     -10.370  10.280  64.260  1.00  0.00     0.000 HD 
HETATM   12  C   UNL     1      -8.628   7.737  66.589  1.00  0.00    -0.136 C  
HETATM   13  O   UNL     1      -9.594   9.782  64.486  1.00  0.00    -0.273 OA 
HETATM   14  O   UNL     1      -8.946   7.069  65.369  1.00  0.00    -0.370 OA 
HETATM   15  C   UNL     1      -8.077   9.112  66.248  1.00  0.00    -0.111 C  
HETATM   16  C   UNL     1     -10.491   9.293  66.698  1.00  0.00    -0.237 C  
HETATM   17  H   UNL     1      -8.166   6.876  64.862  1.00  0.00     0.000 HD 
HETATM   18  C   UNL     1      -9.326   9.914  65.885  1.00  0.00    -0.192 C  
BRANCH  16  19
HETATM   19  C   UNL     1     -11.134  10.281  67.643  1.00  0.00    -0.319 C  
HETATM   20  C   UNL     1     -11.210  11.609  67.443  1.00  0.00    -0.358 C  
BRANCH  20  21
HETATM   21  C   UNL     1     -11.783  12.614  68.405  1.00  0.00    -0.333 C  
HETATM   22  O   UNL     1     -10.924  12.765  69.529  1.00  0.00    -0.450 OA 
HETATM   23  H   UNL     1     -11.285  13.400  70.136  1.00  0.00     0.000 HD 
BRANCH  21  24
HETATM   24  C   UNL     1     -11.964  13.987  67.748  1.00  0.00    -0.392 C  
BRANCH  24  25
HETATM   25  C   UNL     1     -12.340  13.953  66.262  1.00  0.00    -0.489 C  
BRANCH  25  26
HETATM   26  C   UNL     1     -11.265  14.559  65.362  1.00  0.00    -0.342 C  
BRANCH  26  27
HETATM   27  C   UNL     1     -10.626  13.504  64.461  1.00  0.00    -0.439 C  
HETATM   28  C   UNL     1     -11.686  12.626  63.818  1.00  0.00    -0.566 C  
ENDBRANCH  26  27
ENDBRANCH  25  26
ENDBRANCH  24  25
ENDBRANCH  21  24
ENDBRANCH  20  21
ENDBRANCH  16  19
ENDBRANCH   9  10
ENDBRANCH   2   9
TORSDOF 11
ENDMDL
MODEL       53
REMARK 921   NORMALIZED FREE ENERGY PREDICTED BY IDOCK:   -5.15 KCAL/MOL
REMARK 922        TOTAL FREE ENERGY PREDICTED BY IDOCK:  -10.86 KCAL/MOL
REMARK 923 INTER-LIGAND FREE ENERGY PREDICTED BY IDOCK:   -8.44 KCAL/MOL
REMARK 924 INTRA-LIGAND FREE ENERGY PREDICTED BY IDOCK:   -2.41 KCAL/MOL
REMARK 927      BINDING AFFINITY PREDICTED BY RF-SCORE:    0.00 PKD
ROOT
HETATM    1  C   UNL     1      -8.501  10.200  65.586  1.00  0.00    -0.159 C  
HETATM    2  C   UNL     1      -8.650   9.225  66.495  1.00  0.00    -0.139 C  
ENDROOT
BRANCH   1   3
HETATM    3  C   UNL     1      -9.279  10.360  64.309  1.00  0.00    -0.295 C  
BRANCH   3   4
HETATM    4  C   UNL     1     -10.653  10.984  64.559  1.00  0.00    -0.383 C  
BRANCH   4   5
HETATM    5  C   UNL     1     -10.943  12.143  63.606  1.00  0.00    -0.527 C  
HETATM    6  O   UNL     1     -12.586  13.735  62.961  1.00  0.00    -0.721 OA 
HETATM    7  C   UNL     1     -12.331  12.700  63.795  1.00  0.00    -0.478 C  
HETATM    8  O   UNL     1     -13.152  12.296  64.605  1.00  0.00    -0.770 OA 
ENDBRANCH   4   5
ENDBRANCH   3   4
ENDBRANCH   1   3
BRANCH   2   9
HETATM    9  C   UNL     1      -9.587   8.051  66.398  1.00  0.00    -0.267 C  
BRANCH   9  10
HETATM   10  C   UNL     1     -10.522   7.835  67.599  1.00  0.00    -0.308 C  
HETATM   11  H   UNL     1      -8.735   7.309  71.012  1.00  0.00     0.000 HD 
HETATM   12  C   UNL     1     -10.754   6.338  67.865  1.00  0.00    -0.305 C  
HETATM   13  O   UNL     1      -9.276   6.676  70.555  1.00  0.00    -0.155 OA 
HETATM   14  O   UNL     1      -9.531   5.605  67.845  1.00  0.00    -0.110 OA 
HETATM   15  C   UNL     1     -11.301   6.311  69.282  1.00  0.00    -0.411 C  
HETATM   16  C   UNL     1      -9.992   8.371  68.957  1.00  0.00    -0.194 C  
HETATM   17  H   UNL     1      -9.674   4.680  68.009  1.00  0.00     0.000 HD 
HETATM   18  C   UNL     1     -10.430   7.328  70.018  1.00  0.00    -0.224 C  
BRANCH  16  19
HETATM   19  C   UNL     1     -10.464   9.769  69.283  1.00  0.00    -0.236 C  
HETATM   20  C   UNL     1     -11.401  10.450  68.600  1.00  0.00    -0.277 C  
BRANCH  20  21
HETATM   21  C   UNL     1     -11.832  11.866  68.868  1.00  0.00    -0.307 C  
HETATM   22  O   UNL     1     -11.163  12.376  70.016  1.00  0.00    -0.492 OA 
HETATM   23  H   UNL     1     -11.435  13.270  70.185  1.00  0.00     0.000 HD 
BRANCH  21  24
HETATM   24  C   UNL     1     -11.526  12.787  67.681  1.00  0.00    -0.387 C  
BRANCH  24  25
HETATM   25  C   UNL     1     -10.036  12.966  67.365  1.00  0.00    -0.223 C  
BRANCH  25  26
HETATM   26  C   UNL     1      -9.740  14.261  66.610  1.00  0.00    -0.297 C  
BRANCH  26  27
HETATM   27  C   UNL     1     -11.013  15.065  66.352  1.00  0.00    -0.336 C  
HETATM   28  C   UNL     1     -10.888  15.885  65.079  1.00  0.00    -0.444 C  
ENDBRANCH  26  27
ENDBRANCH  25  26
ENDBRANCH  24  25
ENDBRANCH  21  24
ENDBRANCH  20  21
ENDBRANCH  16  19
ENDBRANCH   9  10
ENDBRANCH   2   9
TORSDOF 11
ENDMDL
MODEL       54
REMARK 921   NORMALIZED FREE ENERGY PREDICTED BY IDOCK:   -5.14 KCAL/MOL
REMARK 922        TOTAL FREE ENERGY PREDICTED BY IDOCK:  -10.85 KCAL/MOL
REMARK 923 INTER-LIGAND FREE ENERGY PREDICTED BY IDOCK:   -8.86 KCAL/MOL
REMARK 924 INTRA-LIGAND FREE ENERGY PREDICTED BY IDOCK:   -1.99 KCAL/MOL
REMARK 927      BINDING AFFINITY PREDICTED BY RF-SCORE:    0.00 PKD
ROOT
HETATM    1  C   UNL     1     -10.664   5.312  72.306  1.00  0.00    -0.282 C  
HETATM    2  C   UNL     1     -11.259   6.281  73.018  1.00  0.00    -0.187 C  
ENDROOT
BRANCH   1   3
HETATM    3  C   UNL     1      -9.675   5.501  71.189  1.00  0.00    -0.226 C  
BRANCH   3   4
HETATM    4  C   UNL     1     -10.262   5.087  69.839  1.00  0.00    -0.340 C  
BRANCH   4   5
HETATM    5  C   UNL     1     -10.712   6.291  69.011  1.00  0.00    -0.362 C  
HETATM    6  O   UNL     1     -11.188   7.036  66.804  1.00  0.00    -0.229 OA 
HETATM    7  C   UNL     1     -10.778   5.975  67.538  1.00  0.00    -0.301 C  
HETATM    8  O   UNL     1     -10.510   4.895  67.033  1.00  0.00    -0.194 OA 
ENDBRANCH   4   5
ENDBRANCH   3   4
ENDBRANCH   1   3
BRANCH   2   9
HETATM    9  C   UNL     1     -11.106   7.764  72.808  1.00  0.00    -0.457 C  
BRANCH   9  10
HETATM   10  C   UNL     1     -11.958   8.375  71.684  1.00  0.00    -0.357 C  
HETATM   11  H   UNL     1     -12.581  12.203  71.979  1.00  0.00     0.000 HD 
HETATM   12  C   UNL     1     -13.443   8.438  72.078  1.00  0.00    -0.350 C  
HETATM   13  O   UNL     1     -13.239  11.519  72.022  1.00  0.00    -0.509 OA 
HETATM   14  O   UNL     1     -13.616   8.963  73.393  1.00  0.00    -0.970 OA 
HETATM   15  C   UNL     1     -14.031   9.431  71.089  1.00  0.00    -0.026 C  
HETATM   16  C   UNL     1     -11.614   9.845  71.317  1.00  0.00    -0.456 C  
HETATM   17  H   UNL     1     -14.533   9.001  73.637  1.00  0.00     0.000 HD 
HETATM   18  C   UNL     1     -12.973  10.532  71.021  1.00  0.00    -0.383 C  
BRANCH  16  19
HETATM   19  C   UNL     1     -10.637   9.971  70.171  1.00  0.00    -0.350 C  
HETATM   20  C   UNL     1     -10.919  10.494  68.964  1.00  0.00    -0.289 C  
BRANCH  20  21
HETATM   21  C   UNL     1      -9.979  10.563  67.792  1.00  0.00    -0.171 C  
HETATM   22  O   UNL     1      -9.580   9.254  67.402  1.00  0.00    -0.142 OA 
HETATM   23  H   UNL     1      -8.987   9.298  66.662  1.00  0.00     0.000 HD 
BRANCH  21  24
HETATM   24  C   UNL     1     -10.629  11.249  66.584  1.00  0.00    -0.309 C  
BRANCH  24  25
HETATM   25  C   UNL     1     -11.747  12.241  66.924  1.00  0.00    -0.404 C  
BRANCH  25  26
HETATM   26  C   UNL     1     -12.271  12.990  65.700  1.00  0.00    -0.521 C  
BRANCH  26  27
HETATM   27  C   UNL     1     -11.540  12.567  64.427  1.00  0.00    -0.419 C  
HETATM   28  C   UNL     1     -12.516  12.032  63.393  1.00  0.00    -0.625 C  
ENDBRANCH  26  27
ENDBRANCH  25  26
ENDBRANCH  24  25
ENDBRANCH  21  24
ENDBRANCH  20  21
ENDBRANCH  16  19
ENDBRANCH   9  10
ENDBRANCH   2   9
TORSDOF 11
ENDMDL
MODEL       55
REMARK 921   NORMALIZED FREE ENERGY PREDICTED BY IDOCK:   -5.14 KCAL/MOL
REMARK 922        TOTAL FREE ENERGY PREDICTED BY IDOCK:  -10.84 KCAL/MOL
REMARK 923 INTER-LIGAND FREE ENERGY PREDICTED BY IDOCK:   -9.22 KCAL/MOL
REMARK 924 INTRA-LIGAND FREE ENERGY PREDICTED BY IDOCK:   -1.63 KCAL/MOL
REMARK 927      BINDING AFFINITY PREDICTED BY RF-SCORE:    0.00 PKD
ROOT
HETATM    1  C   UNL     1      -9.253  16.881  67.368  1.00  0.00    -0.224 C  
HETATM    2  C   UNL     1      -9.387  16.015  66.352  1.00  0.00    -0.329 C  
ENDROOT
BRANCH   1   3
HETATM    3  C   UNL     1     -10.288  17.860  67.851  1.00  0.00    -0.396 C  
BRANCH   3   4
HETATM    4  C   UNL     1     -10.318  19.122  66.988  1.00  0.00    -0.503 C  
BRANCH   4   5
HETATM    5  C   UNL     1      -9.350  20.192  67.495  1.00  0.00    -0.507 C  
HETATM    6  O   UNL     1      -7.214  21.172  67.143  1.00  0.00    -0.411 OA 
HETATM    7  C   UNL     1      -8.067  20.217  66.704  1.00  0.00    -0.287 C  
HETATM    8  O   UNL     1      -7.800  19.483  65.765  1.00  0.00    -0.406 OA 
ENDBRANCH   4   5
ENDBRANCH   3   4
ENDBRANCH   1   3
BRANCH   2   9
HETATM    9  C   UNL     1     -10.579  15.883  65.444  1.00  0.00    -0.439 C  
BRANCH   9  10
HETATM   10  C   UNL     1     -11.580  14.773  65.804  1.00  0.00    -0.290 C  
HETATM   11  H   UNL     1     -10.026  11.242  66.297  1.00  0.00     0.000 HD 
HETATM   12  C   UNL     1     -12.060  14.024  64.550  1.00  0.00    -0.459 C  
HETATM   13  O   UNL     1     -10.645  11.497  65.623  1.00  0.00    -0.261 OA 
HETATM   14  O   UNL     1     -10.971  13.675  63.697  1.00  0.00    -0.417 OA 
HETATM   15  C   UNL     1     -12.655  12.742  65.108  1.00  0.00    -0.513 C  
HETATM   16  C   UNL     1     -11.020  13.645  66.713  1.00  0.00    -0.297 C  
HETATM   17  H   UNL     1     -11.267  13.212  62.922  1.00  0.00     0.000 HD 
HETATM   18  C   UNL     1     -11.659  12.331  66.191  1.00  0.00    -0.390 C  
BRANCH  16  19
HETATM   19  C   UNL     1     -11.272  13.871  68.185  1.00  0.00    -0.293 C  
HETATM   20  C   UNL     1     -12.160  14.743  68.695  1.00  0.00    -0.223 C  
BRANCH  20  21
HETATM   21  C   UNL     1     -12.374  15.031  70.156  1.00  0.00    -0.333 C  
HETATM   22  O   UNL     1     -13.761  15.200  70.427  1.00  0.00    -0.598 OA 
HETATM   23  H   UNL     1     -13.897  15.382  71.349  1.00  0.00     0.000 HD 
BRANCH  21  24
HETATM   24  C   UNL     1     -11.844  13.897  71.042  1.00  0.00    -0.135 C  
BRANCH  24  25
HETATM   25  C   UNL     1     -12.806  12.719  71.234  1.00  0.00    -0.355 C  
BRANCH  25  26
HETATM   26  C   UNL     1     -12.135  11.363  71.026  1.00  0.00    -0.303 C  
BRANCH  26  27
HETATM   27  C   UNL     1     -13.163  10.241  70.892  1.00  0.00    -0.351 C  
HETATM   28  C   UNL     1     -12.957   9.185  71.965  1.00  0.00    -0.496 C  
ENDBRANCH  26  27
ENDBRANCH  25  26
ENDBRANCH  24  25
ENDBRANCH  21  24
ENDBRANCH  20  21
ENDBRANCH  16  19
ENDBRANCH   9  10
ENDBRANCH   2   9
TORSDOF 11
ENDMDL
MODEL       56
REMARK 921   NORMALIZED FREE ENERGY PREDICTED BY IDOCK:   -5.12 KCAL/MOL
REMARK 922        TOTAL FREE ENERGY PREDICTED BY IDOCK:  -10.81 KCAL/MOL
REMARK 923 INTER-LIGAND FREE ENERGY PREDICTED BY IDOCK:   -8.34 KCAL/MOL
REMARK 924 INTRA-LIGAND FREE ENERGY PREDICTED BY IDOCK:   -2.47 KCAL/MOL
REMARK 927      BINDING AFFINITY PREDICTED BY RF-SCORE:    0.00 PKD
ROOT
HETATM    1  C   UNL     1     -11.779  13.464  67.380  1.00  0.00    -0.415 C  
HETATM    2  C   UNL     1     -11.907  13.011  68.636  1.00  0.00    -0.353 C  
ENDROOT
BRANCH   1   3
HETATM    3  C   UNL     1     -11.944  12.661  66.119  1.00  0.00    -0.458 C  
BRANCH   3   4
HETATM    4  C   UNL     1     -10.871  13.008  65.085  1.00  0.00    -0.320 C  
BRANCH   4   5
HETATM    5  C   UNL     1     -10.563  14.505  65.051  1.00  0.00    -0.458 C  
HETATM    6  O   UNL     1     -11.318  16.603  64.227  1.00  0.00    -1.116 OA 
HETATM    7  C   UNL     1     -11.581  15.275  64.248  1.00  0.00    -0.197 C  
HETATM    8  O   UNL     1     -12.548  14.791  63.679  1.00  0.00    -0.749 OA 
ENDBRANCH   4   5
ENDBRANCH   3   4
ENDBRANCH   1   3
BRANCH   2   9
HETATM    9  C   UNL     1     -12.183  11.591  69.049  1.00  0.00    -0.186 C  
BRANCH   9  10
HETATM   10  C   UNL     1     -11.016  10.843  69.713  1.00  0.00    -0.290 C  
HETATM   11  H   UNL     1     -10.537   7.162  68.553  1.00  0.00     0.000 HD 
HETATM   12  C   UNL     1     -11.487  10.047  70.941  1.00  0.00    -0.371 C  
HETATM   13  O   UNL     1     -10.767   7.453  69.428  1.00  0.00    -0.234 OA 
HETATM   14  O   UNL     1     -12.670   9.301  70.661  1.00  0.00    -0.507 OA 
HETATM   15  C   UNL     1     -10.353   9.065  71.184  1.00  0.00    -0.362 C  
HETATM   16  C   UNL     1     -10.324   9.772  68.825  1.00  0.00    -0.227 C  
HETATM   17  H   UNL     1     -12.962   8.809  71.420  1.00  0.00     0.000 HD 
HETATM   18  C   UNL     1      -9.983   8.597  69.778  1.00  0.00    -0.190 C  
BRANCH  16  19
HETATM   19  C   UNL     1      -9.114  10.290  68.082  1.00  0.00    -0.136 C  
HETATM   20  C   UNL     1      -8.535  11.487  68.282  1.00  0.00    -0.159 C  
BRANCH  20  21
HETATM   21  C   UNL     1      -7.375  12.047  67.505  1.00  0.00    -0.137 C  
HETATM   22  O   UNL     1      -7.393  11.555  66.170  1.00  0.00    -0.368 OA 
HETATM   23  H   UNL     1      -6.661  11.908  65.679  1.00  0.00     0.000 HD 
BRANCH  21  24
HETATM   24  C   UNL     1      -7.411  13.579  67.455  1.00  0.00    -0.177 C  
BRANCH  24  25
HETATM   25  C   UNL     1      -8.555  14.228  68.244  1.00  0.00    -0.176 C  
BRANCH  25  26
HETATM   26  C   UNL     1      -8.151  15.547  68.900  1.00  0.00    -0.194 C  
BRANCH  26  27
HETATM   27  C   UNL     1      -9.305  16.548  68.904  1.00  0.00    -0.256 C  
HETATM   28  C   UNL     1     -10.428  16.077  69.813  1.00  0.00    -0.300 C  
ENDBRANCH  26  27
ENDBRANCH  25  26
ENDBRANCH  24  25
ENDBRANCH  21  24
ENDBRANCH  20  21
ENDBRANCH  16  19
ENDBRANCH   9  10
ENDBRANCH   2   9
TORSDOF 11
ENDMDL
MODEL       57
REMARK 921   NORMALIZED FREE ENERGY PREDICTED BY IDOCK:   -5.11 KCAL/MOL
REMARK 922        TOTAL FREE ENERGY PREDICTED BY IDOCK:  -10.78 KCAL/MOL
REMARK 923 INTER-LIGAND FREE ENERGY PREDICTED BY IDOCK:   -9.29 KCAL/MOL
REMARK 924 INTRA-LIGAND FREE ENERGY PREDICTED BY IDOCK:   -1.49 KCAL/MOL
REMARK 927      BINDING AFFINITY PREDICTED BY RF-SCORE:    0.00 PKD
ROOT
HETATM    1  C   UNL     1     -10.744  16.542  69.459  1.00  0.00    -0.321 C  
HETATM    2  C   UNL     1      -9.579  15.912  69.249  1.00  0.00    -0.266 C  
ENDROOT
BRANCH   1   3
HETATM    3  C   UNL     1     -12.058  15.899  69.810  1.00  0.00    -0.231 C  
BRANCH   3   4
HETATM    4  C   UNL     1     -11.910  14.907  70.965  1.00  0.00    -0.380 C  
BRANCH   4   5
HETATM    5  C   UNL     1     -11.647  15.608  72.299  1.00  0.00    -0.534 C  
HETATM    6  O   UNL     1     -12.696  16.560  74.208  1.00  0.00    -0.708 OA 
HETATM    7  C   UNL     1     -12.926  15.951  73.021  1.00  0.00    -0.530 C  
HETATM    8  O   UNL     1     -14.054  15.711  72.617  1.00  0.00    -0.564 OA 
ENDBRANCH   4   5
ENDBRANCH   3   4
ENDBRANCH   1   3
BRANCH   2   9
HETATM    9  C   UNL     1      -9.354  14.424  69.262  1.00  0.00     0.160 C  
BRANCH   9  10
HETATM   10  C   UNL     1      -9.458  13.716  67.901  1.00  0.00    -0.213 C  
HETATM   11  H   UNL     1     -12.735  11.700  67.333  1.00  0.00     0.000 HD 
HETATM   12  C   UNL     1      -8.969  12.261  67.989  1.00  0.00    -0.190 C  
HETATM   13  O   UNL     1     -11.855  11.345  67.381  1.00  0.00    -0.609 OA 
HETATM   14  O   UNL     1      -9.516  11.590  69.122  1.00  0.00    -0.410 OA 
HETATM   15  C   UNL     1      -9.539  11.619  66.735  1.00  0.00    -0.207 C  
HETATM   16  C   UNL     1     -10.897  13.585  67.330  1.00  0.00    -0.285 C  
HETATM   17  H   UNL     1      -9.214  10.691  69.176  1.00  0.00     0.000 HD 
HETATM   18  C   UNL     1     -10.955  12.189  66.658  1.00  0.00    -0.282 C  
BRANCH  16  19
HETATM   19  C   UNL     1     -11.279  14.703  66.387  1.00  0.00    -0.336 C  
HETATM   20  C   UNL     1     -10.458  15.273  65.487  1.00  0.00    -0.396 C  
BRANCH  20  21
HETATM   21  C   UNL     1     -10.801  16.431  64.590  1.00  0.00    -0.047 C  
HETATM   22  O   UNL     1     -12.042  16.197  63.935  1.00  0.00    -1.283 OA 
HETATM   23  H   UNL     1     -12.259  16.928  63.369  1.00  0.00     0.000 HD 
BRANCH  21  24
HETATM   24  C   UNL     1     -10.910  17.743  65.375  1.00  0.00     0.151 C  
BRANCH  24  25
HETATM   25  C   UNL     1      -9.913  17.895  66.530  1.00  0.00    -0.357 C  
BRANCH  25  26
HETATM   26  C   UNL     1      -9.188  19.240  66.518  1.00  0.00    -0.388 C  
BRANCH  26  27
HETATM   27  C   UNL     1      -9.973  20.309  67.274  1.00  0.00    -0.580 C  
HETATM   28  C   UNL     1     -10.078  19.963  68.750  1.00  0.00    -0.487 C  
ENDBRANCH  26  27
ENDBRANCH  25  26
ENDBRANCH  24  25
ENDBRANCH  21  24
ENDBRANCH  20  21
ENDBRANCH  16  19
ENDBRANCH   9  10
ENDBRANCH   2   9
TORSDOF 11
ENDMDL
MODEL       58
REMARK 921   NORMALIZED FREE ENERGY PREDICTED BY IDOCK:   -5.07 KCAL/MOL
REMARK 922        TOTAL FREE ENERGY PREDICTED BY IDOCK:  -10.72 KCAL/MOL
REMARK 923 INTER-LIGAND FREE ENERGY PREDICTED BY IDOCK:   -9.17 KCAL/MOL
REMARK 924 INTRA-LIGAND FREE ENERGY PREDICTED BY IDOCK:   -1.55 KCAL/MOL
REMARK 927      BINDING AFFINITY PREDICTED BY RF-SCORE:    0.00 PKD
ROOT
HETATM    1  C   UNL     1      -9.990  12.963  68.016  1.00  0.00    -0.236 C  
HETATM    2  C   UNL     1     -10.861  13.936  68.320  1.00  0.00    -0.263 C  
ENDROOT
BRANCH   1   3
HETATM    3  C   UNL     1     -10.109  11.509  68.379  1.00  0.00    -0.207 C  
BRANCH   3   4
HETATM    4  C   UNL     1     -10.881  10.723  67.317  1.00  0.00    -0.344 C  
BRANCH   4   5
HETATM    5  C   UNL     1     -10.748  11.346  65.927  1.00  0.00    -0.311 C  
HETATM    6  O   UNL     1      -9.781  11.053  63.776  1.00  0.00    -0.251 OA 
HETATM    7  C   UNL     1      -9.890  10.510  65.011  1.00  0.00    -0.306 C  
HETATM    8  O   UNL     1      -9.351   9.456  65.312  1.00  0.00    -0.244 OA 
ENDBRANCH   4   5
ENDBRANCH   3   4
ENDBRANCH   1   3
BRANCH   2   9
HETATM    9  C   UNL     1     -12.113  13.787  69.142  1.00  0.00    -0.374 C  
BRANCH   9  10
HETATM   10  C   UNL     1     -11.938  13.914  70.664  1.00  0.00    -0.364 C  
HETATM   11  H   UNL     1     -15.184  14.755  72.636  1.00  0.00     0.000 HD 
HETATM   12  C   UNL     1     -11.702  15.375  71.080  1.00  0.00    -0.368 C  
HETATM   13  O   UNL     1     -14.410  15.301  72.564  1.00  0.00    -0.464 OA 
HETATM   14  O   UNL     1     -12.628  16.258  70.449  1.00  0.00    -0.406 OA 
HETATM   15  C   UNL     1     -11.991  15.371  72.572  1.00  0.00    -0.549 C  
HETATM   16  C   UNL     1     -13.169  13.487  71.511  1.00  0.00    -0.402 C  
HETATM   17  H   UNL     1     -12.482  17.161  70.706  1.00  0.00     0.000 HD 
HETATM   18  C   UNL     1     -13.236  14.493  72.689  1.00  0.00    -0.481 C  
BRANCH  16  19
HETATM   19  C   UNL     1     -13.117  12.050  71.974  1.00  0.00    -0.456 C  
HETATM   20  C   UNL     1     -12.776  10.999  71.207  1.00  0.00    -0.537 C  
BRANCH  20  21
HETATM   21  C   UNL     1     -12.786   9.556  71.631  1.00  0.00    -0.388 C  
HETATM   22  O   UNL     1     -13.830   8.854  70.967  1.00  0.00    -0.589 OA 
HETATM   23  H   UNL     1     -13.837   7.943  71.235  1.00  0.00     0.000 HD 
BRANCH  21  24
HETATM   24  C   UNL     1     -11.457   8.861  71.311  1.00  0.00    -0.368 C  
BRANCH  24  25
HETATM   25  C   UNL     1     -11.583   7.420  70.805  1.00  0.00    -0.317 C  
BRANCH  25  26
HETATM   26  C   UNL     1     -10.376   6.970  69.983  1.00  0.00    -0.217 C  
BRANCH  26  27
HETATM   27  C   UNL     1     -10.751   5.874  68.988  1.00  0.00    -0.379 C  
HETATM   28  C   UNL     1     -10.641   6.378  67.558  1.00  0.00    -0.350 C  
ENDBRANCH  26  27
ENDBRANCH  25  26
ENDBRANCH  24  25
ENDBRANCH  21  24
ENDBRANCH  20  21
ENDBRANCH  16  19
ENDBRANCH   9  10
ENDBRANCH   2   9
TORSDOF 11
ENDMDL
MODEL       59
REMARK 921   NORMALIZED FREE ENERGY PREDICTED BY IDOCK:   -5.06 KCAL/MOL
REMARK 922        TOTAL FREE ENERGY PREDICTED BY IDOCK:  -10.71 KCAL/MOL
REMARK 923 INTER-LIGAND FREE ENERGY PREDICTED BY IDOCK:   -9.22 KCAL/MOL
REMARK 924 INTRA-LIGAND FREE ENERGY PREDICTED BY IDOCK:   -1.49 KCAL/MOL
REMARK 927      BINDING AFFINITY PREDICTED BY RF-SCORE:    0.00 PKD
ROOT
HETATM    1  C   UNL     1     -10.596   8.958  66.865  1.00  0.00    -0.254 C  
HETATM    2  C   UNL     1     -10.425   7.895  67.665  1.00  0.00    -0.303 C  
ENDROOT
BRANCH   1   3
HETATM    3  C   UNL     1     -10.300  10.392  67.207  1.00  0.00    -0.278 C  
BRANCH   3   4
HETATM    4  C   UNL     1     -10.529  11.316  66.010  1.00  0.00    -0.310 C  
BRANCH   4   5
HETATM    5  C   UNL     1     -11.595  12.375  66.294  1.00  0.00    -0.449 C  
HETATM    6  O   UNL     1     -13.049  13.957  65.277  1.00  0.00    -0.777 OA 
HETATM    7  C   UNL     1     -12.096  13.029  65.030  1.00  0.00    -0.427 C  
HETATM    8  O   UNL     1     -11.714  12.767  63.899  1.00  0.00    -0.386 OA 
ENDBRANCH   4   5
ENDBRANCH   3   4
ENDBRANCH   1   3
BRANCH   2   9
HETATM    9  C   UNL     1      -9.958   7.921  69.096  1.00  0.00    -0.184 C  
BRANCH   9  10
HETATM   10  C   UNL     1     -11.031   7.637  70.159  1.00  0.00    -0.255 C  
HETATM   11  H   UNL     1      -9.963   8.383  73.824  1.00  0.00     0.000 HD 
HETATM   12  C   UNL     1     -10.874   6.227  70.750  1.00  0.00    -0.281 C  
HETATM   13  O   UNL     1     -10.185   7.533  73.463  1.00  0.00    -0.332 OA 
HETATM   14  O   UNL     1      -9.518   5.950  71.095  1.00  0.00    -0.159 OA 
HETATM   15  C   UNL     1     -11.687   6.287  72.033  1.00  0.00    -0.374 C  
HETATM   16  C   UNL     1     -10.990   8.564  71.406  1.00  0.00    -0.329 C  
HETATM   17  H   UNL     1      -9.421   5.078  71.460  1.00  0.00     0.000 HD 
HETATM   18  C   UNL     1     -11.331   7.654  72.615  1.00  0.00    -0.370 C  
BRANCH  16  19
HETATM   19  C   UNL     1     -11.905   9.762  71.302  1.00  0.00    -0.481 C  
HETATM   20  C   UNL     1     -11.661  10.863  70.569  1.00  0.00    -0.441 C  
BRANCH  20  21
HETATM   21  C   UNL     1     -12.526  12.092  70.509  1.00  0.00    -0.198 C  
HETATM   22  O   UNL     1     -13.132  12.330  71.774  1.00  0.00    -0.425 OA 
HETATM   23  H   UNL     1     -13.678  13.106  71.736  1.00  0.00     0.000 HD 
BRANCH  21  24
HETATM   24  C   UNL     1     -11.719  13.335  70.118  1.00  0.00    -0.254 C  
BRANCH  24  25
HETATM   25  C   UNL     1     -12.535  14.626  69.988  1.00  0.00    -0.333 C  
BRANCH  25  26
HETATM   26  C   UNL     1     -12.210  15.648  71.076  1.00  0.00    -0.462 C  
BRANCH  26  27
HETATM   27  C   UNL     1     -13.375  15.824  72.049  1.00  0.00    -0.467 C  
HETATM   28  C   UNL     1     -12.904  15.697  73.488  1.00  0.00    -0.696 C  
ENDBRANCH  26  27
ENDBRANCH  25  26
ENDBRANCH  24  25
ENDBRANCH  21  24
ENDBRANCH  20  21
ENDBRANCH  16  19
ENDBRANCH   9  10
ENDBRANCH   2   9
TORSDOF 11
ENDMDL
MODEL       60
REMARK 921   NORMALIZED FREE ENERGY PREDICTED BY IDOCK:   -5.02 KCAL/MOL
REMARK 922        TOTAL FREE ENERGY PREDICTED BY IDOCK:  -10.65 KCAL/MOL
REMARK 923 INTER-LIGAND FREE ENERGY PREDICTED BY IDOCK:   -9.49 KCAL/MOL
REMARK 924 INTRA-LIGAND FREE ENERGY PREDICTED BY IDOCK:   -1.16 KCAL/MOL
REMARK 927      BINDING AFFINITY PREDICTED BY RF-SCORE:    0.00 PKD
ROOT
HETATM    1  C   UNL     1      -9.751  16.031  67.918  1.00  0.00    -0.220 C  
HETATM    2  C   UNL     1     -10.334  14.955  67.369  1.00  0.00    -0.243 C  
ENDROOT
BRANCH   1   3
HETATM    3  C   UNL     1     -10.447  17.264  68.426  1.00  0.00    -0.381 C  
BRANCH   3   4
HETATM    4  C   UNL     1     -10.550  18.340  67.344  1.00  0.00    -0.425 C  
BRANCH   4   5
HETATM    5  C   UNL     1      -9.612  19.518  67.609  1.00  0.00    -0.436 C  
HETATM    6  O   UNL     1      -7.572  20.538  66.938  1.00  0.00    -0.301 OA 
HETATM    7  C   UNL     1      -8.398  19.489  66.714  1.00  0.00    -0.300 C  
HETATM    8  O   UNL     1      -8.163  18.640  65.868  1.00  0.00    -0.488 OA 
ENDBRANCH   4   5
ENDBRANCH   3   4
ENDBRANCH   1   3
BRANCH   2   9
HETATM    9  C   UNL     1     -11.802  14.780  67.091  1.00  0.00    -0.307 C  
BRANCH   9  10
HETATM   10  C   UNL     1     -12.190  13.533  66.279  1.00  0.00    -0.468 C  
HETATM   11  H   UNL     1      -9.221  11.666  64.598  1.00  0.00     0.000 HD 
HETATM   12  C   UNL     1     -12.386  13.873  64.792  1.00  0.00    -0.400 C  
HETATM   13  O   UNL     1      -9.937  12.103  64.153  1.00  0.00    -0.296 OA 
HETATM   14  O   UNL     1     -11.320  14.677  64.292  1.00  0.00    -0.608 OA 
HETATM   15  C   UNL     1     -12.321  12.518  64.107  1.00  0.00    -0.548 C  
HETATM   16  C   UNL     1     -11.128  12.399  66.259  1.00  0.00    -0.344 C  
HETATM   17  H   UNL     1     -11.442  14.887  63.373  1.00  0.00     0.000 HD 
HETATM   18  C   UNL     1     -11.168  11.815  64.823  1.00  0.00    -0.271 C  
BRANCH  16  19
HETATM   19  C   UNL     1     -11.344  11.347  67.322  1.00  0.00    -0.347 C  
HETATM   20  C   UNL     1     -11.171  11.533  68.643  1.00  0.00    -0.307 C  
BRANCH  20  21
HETATM   21  C   UNL     1     -11.313  10.479  69.708  1.00  0.00    -0.300 C  
HETATM   22  O   UNL     1     -10.041  10.163  70.261  1.00  0.00    -0.390 OA 
HETATM   23  H   UNL     1     -10.131   9.499  70.934  1.00  0.00     0.000 HD 
BRANCH  21  24
HETATM   24  C   UNL     1     -12.233  10.942  70.844  1.00  0.00    -0.485 C  
BRANCH  24  25
HETATM   25  C   UNL     1     -13.375   9.980  71.189  1.00  0.00    -0.379 C  
BRANCH  25  26
HETATM   26  C   UNL     1     -12.956   8.887  72.172  1.00  0.00    -0.473 C  
BRANCH  26  27
HETATM   27  C   UNL     1     -13.092   7.496  71.557  1.00  0.00    -0.402 C  
HETATM   28  C   UNL     1     -11.789   6.722  71.671  1.00  0.00    -0.370 C  
ENDBRANCH  26  27
ENDBRANCH  25  26
ENDBRANCH  24  25
ENDBRANCH  21  24
ENDBRANCH  20  21
ENDBRANCH  16  19
ENDBRANCH   9  10
ENDBRANCH   2   9
TORSDOF 11
ENDMDL
MODEL       61
REMARK 921   NORMALIZED FREE ENERGY PREDICTED BY IDOCK:   -5.02 KCAL/MOL
REMARK 922        TOTAL FREE ENERGY PREDICTED BY IDOCK:  -10.64 KCAL/MOL
REMARK 923 INTER-LIGAND FREE ENERGY PREDICTED BY IDOCK:   -9.36 KCAL/MOL
REMARK 924 INTRA-LIGAND FREE ENERGY PREDICTED BY IDOCK:   -1.27 KCAL/MOL
REMARK 927      BINDING AFFINITY PREDICTED BY RF-SCORE:    0.00 PKD
ROOT
HETATM    1  C   UNL     1     -10.358  15.201  68.550  1.00  0.00    -0.230 C  
HETATM    2  C   UNL     1     -10.604  14.591  67.381  1.00  0.00    -0.271 C  
ENDROOT
BRANCH   1   3
HETATM    3  C   UNL     1     -11.358  15.922  69.411  1.00  0.00    -0.349 C  
BRANCH   3   4
HETATM    4  C   UNL     1     -12.013  14.981  70.423  1.00  0.00    -0.372 C  
BRANCH   4   5
HETATM    5  C   UNL     1     -11.917  15.514  71.854  1.00  0.00    -0.506 C  
HETATM    6  O   UNL     1     -13.190  16.126  73.766  1.00  0.00    -0.657 OA 
HETATM    7  C   UNL     1     -13.273  15.667  72.495  1.00  0.00    -0.497 C  
HETATM    8  O   UNL     1     -14.341  15.406  71.962  1.00  0.00    -0.533 OA 
ENDBRANCH   4   5
ENDBRANCH   3   4
ENDBRANCH   1   3
BRANCH   2   9
HETATM    9  C   UNL     1     -11.922  14.552  66.656  1.00  0.00    -0.358 C  
BRANCH   9  10
HETATM   10  C   UNL     1     -12.234  13.252  65.897  1.00  0.00    -0.497 C  
HETATM   11  H   UNL     1      -9.174  11.550  64.204  1.00  0.00     0.000 HD 
HETATM   12  C   UNL     1     -12.490  13.523  64.405  1.00  0.00    -0.267 C  
HETATM   13  O   UNL     1      -9.931  11.917  63.763  1.00  0.00    -0.336 OA 
HETATM   14  O   UNL     1     -11.499  14.386  63.850  1.00  0.00    -0.582 OA 
HETATM   15  C   UNL     1     -12.339  12.153  63.765  1.00  0.00    -0.635 C  
HETATM   16  C   UNL     1     -11.092  12.199  65.887  1.00  0.00    -0.360 C  
HETATM   17  H   UNL     1     -11.657  14.553  62.928  1.00  0.00     0.000 HD 
HETATM   18  C   UNL     1     -11.121  11.563  64.473  1.00  0.00    -0.273 C  
BRANCH  16  19
HETATM   19  C   UNL     1     -11.204  11.172  66.990  1.00  0.00    -0.291 C  
HETATM   20  C   UNL     1     -10.193  10.771  67.782  1.00  0.00    -0.212 C  
BRANCH  20  21
HETATM   21  C   UNL     1     -10.270   9.701  68.837  1.00  0.00    -0.201 C  
HETATM   22  O   UNL     1     -11.625   9.467  69.203  1.00  0.00    -0.436 OA 
HETATM   23  H   UNL     1     -11.674   8.792  69.869  1.00  0.00     0.000 HD 
BRANCH  21  24
HETATM   24  C   UNL     1      -9.666   8.379  68.350  1.00  0.00    -0.168 C  
BRANCH  24  25
HETATM   25  C   UNL     1      -9.826   7.197  69.313  1.00  0.00    -0.161 C  
BRANCH  25  26
HETATM   26  C   UNL     1     -10.762   6.115  68.776  1.00  0.00    -0.370 C  
BRANCH  26  27
HETATM   27  C   UNL     1     -11.030   6.294  67.284  1.00  0.00    -0.455 C  
HETATM   28  C   UNL     1     -10.431   5.149  66.484  1.00  0.00    -0.346 C  
ENDBRANCH  26  27
ENDBRANCH  25  26
ENDBRANCH  24  25
ENDBRANCH  21  24
ENDBRANCH  20  21
ENDBRANCH  16  19
ENDBRANCH   9  10
ENDBRANCH   2   9
TORSDOF 11
ENDMDL
MODEL       62
REMARK 921   NORMALIZED FREE ENERGY PREDICTED BY IDOCK:   -5.01 KCAL/MOL
REMARK 922        TOTAL FREE ENERGY PREDICTED BY IDOCK:  -10.62 KCAL/MOL
REMARK 923 INTER-LIGAND FREE ENERGY PREDICTED BY IDOCK:   -8.71 KCAL/MOL
REMARK 924 INTRA-LIGAND FREE ENERGY PREDICTED BY IDOCK:   -1.91 KCAL/MOL
REMARK 927      BINDING AFFINITY PREDICTED BY RF-SCORE:    0.00 PKD
ROOT
HETATM    1  C   UNL     1     -13.338  15.103  71.346  1.00  0.00    -0.547 C  
HETATM    2  C   UNL     1     -12.413  15.569  70.494  1.00  0.00    -0.472 C  
ENDROOT
BRANCH   1   3
HETATM    3  C   UNL     1     -13.098  14.187  72.514  1.00  0.00    -0.554 C  
BRANCH   3   4
HETATM    4  C   UNL     1     -13.607  12.772  72.237  1.00  0.00    -0.563 C  
BRANCH   4   5
HETATM    5  C   UNL     1     -12.660  11.984  71.330  1.00  0.00    -0.330 C  
HETATM    6  O   UNL     1     -11.972   9.795  70.710  1.00  0.00    -0.284 OA 
HETATM    7  C   UNL     1     -12.800  10.495  71.521  1.00  0.00    -0.463 C  
HETATM    8  O   UNL     1     -13.569   9.950  72.299  1.00  0.00    -0.402 OA 
ENDBRANCH   4   5
ENDBRANCH   3   4
ENDBRANCH   1   3
BRANCH   2   9
HETATM    9  C   UNL     1     -10.948  15.223  70.490  1.00  0.00    -0.318 C  
BRANCH   9  10
HETATM   10  C   UNL     1     -10.229  15.350  69.138  1.00  0.00    -0.239 C  
HETATM   11  H   UNL     1     -12.545  15.209  66.016  1.00  0.00     0.000 HD 
HETATM   12  C   UNL     1      -9.901  13.970  68.546  1.00  0.00    -0.225 C  
HETATM   13  O   UNL     1     -11.869  14.583  66.246  1.00  0.00    -0.380 OA 
HETATM   14  O   UNL     1     -11.021  13.089  68.614  1.00  0.00    -0.247 OA 
HETATM   15  C   UNL     1      -9.620  14.268  67.083  1.00  0.00    -0.245 C  
HETATM   16  C   UNL     1     -11.048  16.045  68.015  1.00  0.00    -0.334 C  
HETATM   17  H   UNL     1     -10.818  12.236  68.249  1.00  0.00     0.000 HD 
HETATM   18  C   UNL     1     -10.708  15.276  66.712  1.00  0.00    -0.313 C  
BRANCH  16  19
HETATM   19  C   UNL     1     -10.785  17.528  67.901  1.00  0.00    -0.340 C  
HETATM   20  C   UNL     1     -10.543  18.188  66.754  1.00  0.00    -0.310 C  
BRANCH  20  21
HETATM   21  C   UNL     1     -10.210  19.650  66.631  1.00  0.00    -0.465 C  
HETATM   22  O   UNL     1     -10.300  20.285  67.901  1.00  0.00    -0.356 OA 
HETATM   23  H   UNL     1     -10.090  21.208  67.824  1.00  0.00     0.000 HD 
BRANCH  21  24
HETATM   24  C   UNL     1      -8.795  19.866  66.082  1.00  0.00    -0.358 C  
BRANCH  24  25
HETATM   25  C   UNL     1      -7.733  20.200  67.136  1.00  0.00    -0.343 C  
BRANCH  25  26
HETATM   26  C   UNL     1      -6.514  19.281  67.064  1.00  0.00    -0.195 C  
BRANCH  26  27
HETATM   27  C   UNL     1      -6.914  17.809  67.137  1.00  0.00    -0.196 C  
HETATM   28  C   UNL     1      -7.253  17.410  68.564  1.00  0.00    -0.230 C  
ENDBRANCH  26  27
ENDBRANCH  25  26
ENDBRANCH  24  25
ENDBRANCH  21  24
ENDBRANCH  20  21
ENDBRANCH  16  19
ENDBRANCH   9  10
ENDBRANCH   2   9
TORSDOF 11
ENDMDL
MODEL       63
REMARK 921   NORMALIZED FREE ENERGY PREDICTED BY IDOCK:   -4.99 KCAL/MOL
REMARK 922        TOTAL FREE ENERGY PREDICTED BY IDOCK:  -10.60 KCAL/MOL
REMARK 923 INTER-LIGAND FREE ENERGY PREDICTED BY IDOCK:   -8.22 KCAL/MOL
REMARK 924 INTRA-LIGAND FREE ENERGY PREDICTED BY IDOCK:   -2.38 KCAL/MOL
REMARK 927      BINDING AFFINITY PREDICTED BY RF-SCORE:    0.00 PKD
ROOT
HETATM    1  C   UNL     1     -11.455  11.102  68.626  1.00  0.00    -0.363 C  
HETATM    2  C   UNL     1     -12.026  12.222  69.092  1.00  0.00    -0.303 C  
ENDROOT
BRANCH   1   3
HETATM    3  C   UNL     1     -10.982   9.931  69.444  1.00  0.00    -0.263 C  
BRANCH   3   4
HETATM    4  C   UNL     1     -10.462   8.797  68.559  1.00  0.00    -0.212 C  
BRANCH   4   5
HETATM    5  C   UNL     1     -10.530   9.147  67.072  1.00  0.00    -0.311 C  
HETATM    6  O   UNL     1      -9.224   9.454  65.109  1.00  0.00    -0.229 OA 
HETATM    7  C   UNL     1      -9.166   9.157  66.428  1.00  0.00    -0.183 C  
HETATM    8  O   UNL     1      -8.112   8.919  66.999  1.00  0.00    -0.108 OA 
ENDBRANCH   4   5
ENDBRANCH   3   4
ENDBRANCH   1   3
BRANCH   2   9
HETATM    9  C   UNL     1     -12.258  12.570  70.538  1.00  0.00    -0.382 C  
BRANCH   9  10
HETATM   10  C   UNL     1     -12.833  13.970  70.810  1.00  0.00    -0.355 C  
HETATM   11  H   UNL     1     -11.373  15.780  73.927  1.00  0.00     0.000 HD 
HETATM   12  C   UNL     1     -14.004  13.910  71.804  1.00  0.00    -0.339 C  
HETATM   13  O   UNL     1     -12.273  15.501  73.806  1.00  0.00    -0.489 OA 
HETATM   14  O   UNL     1     -13.693  13.097  72.934  1.00  0.00    -0.648 OA 
HETATM   15  C   UNL     1     -14.142  15.347  72.277  1.00  0.00    -0.660 C  
HETATM   16  C   UNL     1     -11.847  14.976  71.465  1.00  0.00    -0.429 C  
HETATM   17  H   UNL     1     -14.417  13.059  73.548  1.00  0.00     0.000 HD 
HETATM   18  C   UNL     1     -12.694  15.796  72.472  1.00  0.00    -0.451 C  
BRANCH  16  19
HETATM   19  C   UNL     1     -11.119  15.848  70.468  1.00  0.00    -0.381 C  
HETATM   20  C   UNL     1     -11.482  16.030  69.186  1.00  0.00    -0.347 C  
BRANCH  20  21
HETATM   21  C   UNL     1     -10.732  16.838  68.163  1.00  0.00    -0.361 C  
HETATM   22  O   UNL     1      -9.436  17.169  68.650  1.00  0.00    -0.261 OA 
HETATM   23  H   UNL     1      -8.962  17.679  68.004  1.00  0.00     0.000 HD 
BRANCH  21  24
HETATM   24  C   UNL     1     -10.571  16.074  66.844  1.00  0.00    -0.300 C  
BRANCH  24  25
HETATM   25  C   UNL     1      -9.231  15.349  66.671  1.00  0.00    -0.303 C  
BRANCH  25  26
HETATM   26  C   UNL     1      -9.282  13.889  67.118  1.00  0.00    -0.242 C  
BRANCH  26  27
HETATM   27  C   UNL     1      -8.481  13.665  68.399  1.00  0.00    -0.147 C  
HETATM   28  C   UNL     1      -7.898  12.262  68.437  1.00  0.00    -0.151 C  
ENDBRANCH  26  27
ENDBRANCH  25  26
ENDBRANCH  24  25
ENDBRANCH  21  24
ENDBRANCH  20  21
ENDBRANCH  16  19
ENDBRANCH   9  10
ENDBRANCH   2   9
TORSDOF 11
ENDMDL
MODEL       64
REMARK 921   NORMALIZED FREE ENERGY PREDICTED BY IDOCK:   -4.99 KCAL/MOL
REMARK 922        TOTAL FREE ENERGY PREDICTED BY IDOCK:  -10.59 KCAL/MOL
REMARK 923 INTER-LIGAND FREE ENERGY PREDICTED BY IDOCK:   -8.90 KCAL/MOL
REMARK 924 INTRA-LIGAND FREE ENERGY PREDICTED BY IDOCK:   -1.69 KCAL/MOL
REMARK 927      BINDING AFFINITY PREDICTED BY RF-SCORE:    0.00 PKD
ROOT
HETATM    1  C   UNL     1     -11.209  11.460  67.291  1.00  0.00    -0.370 C  
HETATM    2  C   UNL     1     -11.639  12.701  67.565  1.00  0.00    -0.418 C  
ENDROOT
BRANCH   1   3
HETATM    3  C   UNL     1     -10.069  11.087  66.384  1.00  0.00    -0.275 C  
BRANCH   3   4
HETATM    4  C   UNL     1      -9.893   9.571  66.292  1.00  0.00    -0.334 C  
BRANCH   4   5
HETATM    5  C   UNL     1     -10.601   8.837  67.431  1.00  0.00    -0.304 C  
HETATM    6  O   UNL     1     -10.979   6.697  68.396  1.00  0.00    -0.257 OA 
HETATM    7  C   UNL     1     -10.364   7.348  67.381  1.00  0.00    -0.270 C  
HETATM    8  O   UNL     1      -9.692   6.766  66.543  1.00  0.00    -0.174 OA 
ENDBRANCH   4   5
ENDBRANCH   3   4
ENDBRANCH   1   3
BRANCH   2   9
HETATM    9  C   UNL     1     -11.108  13.979  66.973  1.00  0.00    -0.312 C  
BRANCH   9  10
HETATM   10  C   UNL     1     -10.416  14.938  67.955  1.00  0.00    -0.250 C  
HETATM   11  H   UNL     1     -11.724  18.600  67.886  1.00  0.00     0.000 HD 
HETATM   12  C   UNL     1      -9.257  15.689  67.279  1.00  0.00    -0.204 C  
HETATM   13  O   UNL     1     -10.851  18.308  67.652  1.00  0.00    -0.396 OA 
HETATM   14  O   UNL     1      -9.640  16.213  66.009  1.00  0.00    -0.305 OA 
HETATM   15  C   UNL     1      -8.998  16.858  68.216  1.00  0.00    -0.235 C  
HETATM   16  C   UNL     1     -11.314  16.076  68.514  1.00  0.00    -0.382 C  
HETATM   17  H   UNL     1      -8.923  16.676  65.591  1.00  0.00     0.000 HD 
HETATM   18  C   UNL     1     -10.402  17.328  68.592  1.00  0.00    -0.357 C  
BRANCH  16  19
HETATM   19  C   UNL     1     -11.961  15.743  69.838  1.00  0.00    -0.346 C  
HETATM   20  C   UNL     1     -11.309  15.594  71.005  1.00  0.00    -0.426 C  
BRANCH  20  21
HETATM   21  C   UNL     1     -11.928  15.195  72.316  1.00  0.00    -0.396 C  
HETATM   22  O   UNL     1     -12.080  16.333  73.156  1.00  0.00    -0.496 OA 
HETATM   23  H   UNL     1     -12.471  16.081  73.984  1.00  0.00     0.000 HD 
BRANCH  21  24
HETATM   24  C   UNL     1     -13.305  14.551  72.121  1.00  0.00    -0.471 C  
BRANCH  24  25
HETATM   25  C   UNL     1     -13.369  13.049  72.420  1.00  0.00    -0.563 C  
BRANCH  25  26
HETATM   26  C   UNL     1     -12.796  12.192  71.292  1.00  0.00    -0.349 C  
BRANCH  26  27
HETATM   27  C   UNL     1     -12.776  10.711  71.665  1.00  0.00    -0.531 C  
HETATM   28  C   UNL     1     -11.611   9.999  70.998  1.00  0.00    -0.476 C  
ENDBRANCH  26  27
ENDBRANCH  25  26
ENDBRANCH  24  25
ENDBRANCH  21  24
ENDBRANCH  20  21
ENDBRANCH  16  19
ENDBRANCH   9  10
ENDBRANCH   2   9
TORSDOF 11
ENDMDL
MODEL       65
REMARK 921   NORMALIZED FREE ENERGY PREDICTED BY IDOCK:   -4.98 KCAL/MOL
REMARK 922        TOTAL FREE ENERGY PREDICTED BY IDOCK:  -10.58 KCAL/MOL
REMARK 923 INTER-LIGAND FREE ENERGY PREDICTED BY IDOCK:   -8.74 KCAL/MOL
REMARK 924 INTRA-LIGAND FREE ENERGY PREDICTED BY IDOCK:   -1.84 KCAL/MOL
REMARK 927      BINDING AFFINITY PREDICTED BY RF-SCORE:    0.00 PKD
ROOT
HETATM    1  C   UNL     1     -13.407   9.035  72.418  1.00  0.00    -0.516 C  
HETATM    2  C   UNL     1     -13.064  10.235  71.927  1.00  0.00    -0.568 C  
ENDROOT
BRANCH   1   3
HETATM    3  C   UNL     1     -13.742   7.805  71.622  1.00  0.00    -0.434 C  
BRANCH   3   4
HETATM    4  C   UNL     1     -12.595   6.793  71.635  1.00  0.00    -0.380 C  
BRANCH   4   5
HETATM    5  C   UNL     1     -11.423   7.260  72.500  1.00  0.00    -0.322 C  
HETATM    6  O   UNL     1      -9.858   6.568  74.149  1.00  0.00    -0.232 OA 
HETATM    7  C   UNL     1     -10.904   6.161  73.392  1.00  0.00    -0.221 C  
HETATM    8  O   UNL     1     -11.344   5.023  73.443  1.00  0.00    -0.329 OA 
ENDBRANCH   4   5
ENDBRANCH   3   4
ENDBRANCH   1   3
BRANCH   2   9
HETATM    9  C   UNL     1     -13.003  10.619  70.473  1.00  0.00    -0.277 C  
BRANCH   9  10
HETATM   10  C   UNL     1     -11.637  11.106  69.962  1.00  0.00    -0.421 C  
HETATM   11  H   UNL     1     -11.064  10.707  66.136  1.00  0.00     0.000 HD 
HETATM   12  C   UNL     1     -10.620   9.955  69.900  1.00  0.00    -0.273 C  
HETATM   13  O   UNL     1     -10.581  10.270  66.828  1.00  0.00    -0.231 OA 
HETATM   14  O   UNL     1     -11.176   8.795  69.283  1.00  0.00    -0.435 OA 
HETATM   15  C   UNL     1      -9.526  10.496  68.994  1.00  0.00    -0.211 C  
HETATM   16  C   UNL     1     -11.634  11.676  68.517  1.00  0.00    -0.379 C  
HETATM   17  H   UNL     1     -10.548   8.084  69.244  1.00  0.00     0.000 HD 
HETATM   18  C   UNL     1     -10.303  11.198  67.881  1.00  0.00    -0.185 C  
BRANCH  16  19
HETATM   19  C   UNL     1     -11.803  13.177  68.457  1.00  0.00    -0.377 C  
HETATM   20  C   UNL     1     -11.872  13.993  69.524  1.00  0.00    -0.378 C  
BRANCH  20  21
HETATM   21  C   UNL     1     -12.109  15.478  69.484  1.00  0.00    -0.302 C  
HETATM   22  O   UNL     1     -13.166  15.832  70.369  1.00  0.00    -0.731 OA 
HETATM   23  H   UNL     1     -13.316  16.769  70.344  1.00  0.00     0.000 HD 
BRANCH  21  24
HETATM   24  C   UNL     1     -10.856  16.264  69.890  1.00  0.00    -0.352 C  
BRANCH  24  25
HETATM   25  C   UNL     1      -9.848  16.507  68.762  1.00  0.00    -0.254 C  
BRANCH  25  26
HETATM   26  C   UNL     1     -10.515  16.840  67.428  1.00  0.00    -0.310 C  
BRANCH  26  27
HETATM   27  C   UNL     1      -9.885  16.062  66.275  1.00  0.00    -0.331 C  
HETATM   28  C   UNL     1      -9.046  14.906  66.794  1.00  0.00    -0.295 C  
ENDBRANCH  26  27
ENDBRANCH  25  26
ENDBRANCH  24  25
ENDBRANCH  21  24
ENDBRANCH  20  21
ENDBRANCH  16  19
ENDBRANCH   9  10
ENDBRANCH   2   9
TORSDOF 11
ENDMDL
MODEL       66
REMARK 921   NORMALIZED FREE ENERGY PREDICTED BY IDOCK:   -4.98 KCAL/MOL
REMARK 922        TOTAL FREE ENERGY PREDICTED BY IDOCK:  -10.57 KCAL/MOL
REMARK 923 INTER-LIGAND FREE ENERGY PREDICTED BY IDOCK:   -9.26 KCAL/MOL
REMARK 924 INTRA-LIGAND FREE ENERGY PREDICTED BY IDOCK:   -1.31 KCAL/MOL
REMARK 927      BINDING AFFINITY PREDICTED BY RF-SCORE:    0.00 PKD
ROOT
HETATM    1  C   UNL     1     -11.909  14.429  66.258  1.00  0.00    -0.391 C  
HETATM    2  C   UNL     1     -12.049  13.110  66.459  1.00  0.00    -0.423 C  
ENDROOT
BRANCH   1   3
HETATM    3  C   UNL     1     -11.124  15.088  65.158  1.00  0.00    -0.408 C  
BRANCH   3   4
HETATM    4  C   UNL     1      -9.852  15.751  65.689  1.00  0.00    -0.357 C  
BRANCH   4   5
HETATM    5  C   UNL     1     -10.119  16.595  66.936  1.00  0.00    -0.280 C  
HETATM    6  O   UNL     1     -10.739  18.762  67.691  1.00  0.00    -0.429 OA 
HETATM    7  C   UNL     1     -10.490  18.016  66.590  1.00  0.00    -0.325 C  
HETATM    8  O   UNL     1     -10.576  18.470  65.459  1.00  0.00    -0.621 OA 
ENDBRANCH   4   5
ENDBRANCH   3   4
ENDBRANCH   1   3
BRANCH   2   9
HETATM    9  C   UNL     1     -11.400  12.012  65.660  1.00  0.00    -0.381 C  
BRANCH   9  10
HETATM   10  C   UNL     1     -10.609  10.970  66.467  1.00  0.00    -0.310 C  
HETATM   11  H   UNL     1      -8.542  12.398  69.436  1.00  0.00     0.000 HD 
HETATM   12  C   UNL     1      -9.165  10.844  65.954  1.00  0.00    -0.191 C  
HETATM   13  O   UNL     1      -8.196  11.971  68.661  1.00  0.00    -0.132 OA 
HETATM   14  O   UNL     1      -8.562  12.122  65.762  1.00  0.00    -0.360 OA 
HETATM   15  C   UNL     1      -8.444  10.144  67.094  1.00  0.00    -0.125 C  
HETATM   16  C   UNL     1     -10.435  11.293  67.977  1.00  0.00    -0.215 C  
HETATM   17  H   UNL     1      -7.669  12.044  65.445  1.00  0.00     0.000 HD 
HETATM   18  C   UNL     1      -8.999  10.832  68.340  1.00  0.00    -0.153 C  
BRANCH  16  19
HETATM   19  C   UNL     1     -11.489  10.664  68.857  1.00  0.00    -0.334 C  
HETATM   20  C   UNL     1     -11.377  10.470  70.183  1.00  0.00    -0.400 C  
BRANCH  20  21
HETATM   21  C   UNL     1     -12.387   9.783  71.063  1.00  0.00    -0.332 C  
HETATM   22  O   UNL     1     -11.728   8.979  72.034  1.00  0.00    -0.357 OA 
HETATM   23  H   UNL     1     -12.365   8.546  72.589  1.00  0.00     0.000 HD 
BRANCH  21  24
HETATM   24  C   UNL     1     -13.280  10.791  71.795  1.00  0.00    -0.523 C  
BRANCH  24  25
HETATM   25  C   UNL     1     -12.911  12.263  71.579  1.00  0.00    -0.390 C  
BRANCH  25  26
HETATM   26  C   UNL     1     -13.860  13.225  72.293  1.00  0.00    -0.637 C  
BRANCH  26  27
HETATM   27  C   UNL     1     -13.860  14.605  71.636  1.00  0.00    -0.522 C  
HETATM   28  C   UNL     1     -13.693  15.700  72.676  1.00  0.00    -0.666 C  
ENDBRANCH  26  27
ENDBRANCH  25  26
ENDBRANCH  24  25
ENDBRANCH  21  24
ENDBRANCH  20  21
ENDBRANCH  16  19
ENDBRANCH   9  10
ENDBRANCH   2   9
TORSDOF 11
ENDMDL
MODEL       67
REMARK 921   NORMALIZED FREE ENERGY PREDICTED BY IDOCK:   -4.97 KCAL/MOL
REMARK 922        TOTAL FREE ENERGY PREDICTED BY IDOCK:  -10.56 KCAL/MOL
REMARK 923 INTER-LIGAND FREE ENERGY PREDICTED BY IDOCK:   -8.27 KCAL/MOL
REMARK 924 INTRA-LIGAND FREE ENERGY PREDICTED BY IDOCK:   -2.29 KCAL/MOL
REMARK 927      BINDING AFFINITY PREDICTED BY RF-SCORE:    0.00 PKD
ROOT
HETATM    1  C   UNL     1     -11.928  12.458  69.810  1.00  0.00    -0.359 C  
HETATM    2  C   UNL     1     -12.289  11.798  70.921  1.00  0.00    -0.420 C  
ENDROOT
BRANCH   1   3
HETATM    3  C   UNL     1     -11.794  11.879  68.429  1.00  0.00    -0.352 C  
BRANCH   3   4
HETATM    4  C   UNL     1     -11.907  12.958  67.351  1.00  0.00    -0.418 C  
BRANCH   4   5
HETATM    5  C   UNL     1     -11.794  12.379  65.940  1.00  0.00    -0.467 C  
HETATM    6  O   UNL     1     -12.523  12.640  63.693  1.00  0.00    -0.625 OA 
HETATM    7  C   UNL     1     -12.630  13.143  64.945  1.00  0.00    -0.407 C  
HETATM    8  O   UNL     1     -13.326  14.114  65.202  1.00  0.00    -0.684 OA 
ENDBRANCH   4   5
ENDBRANCH   3   4
ENDBRANCH   1   3
BRANCH   2   9
HETATM    9  C   UNL     1     -12.578  10.325  71.029  1.00  0.00    -0.487 C  
BRANCH   9  10
HETATM   10  C   UNL     1     -11.355   9.411  71.215  1.00  0.00    -0.436 C  
HETATM   11  H   UNL     1     -11.590   5.956  69.445  1.00  0.00     0.000 HD 
HETATM   12  C   UNL     1     -11.551   8.448  72.397  1.00  0.00    -0.380 C  
HETATM   13  O   UNL     1     -11.541   6.109  70.382  1.00  0.00    -0.343 OA 
HETATM   14  O   UNL     1     -12.835   7.828  72.363  1.00  0.00    -0.515 OA 
HETATM   15  C   UNL     1     -10.499   7.377  72.160  1.00  0.00    -0.243 C  
HETATM   16  C   UNL     1     -11.045   8.467  70.021  1.00  0.00    -0.152 C  
HETATM   17  H   UNL     1     -12.956   7.233  73.094  1.00  0.00     0.000 HD 
HETATM   18  C   UNL     1     -10.578   7.131  70.654  1.00  0.00    -0.225 C  
BRANCH  16  19
HETATM   19  C   UNL     1     -10.040   9.033  69.045  1.00  0.00    -0.204 C  
HETATM   20  C   UNL     1      -9.030   9.862  69.365  1.00  0.00    -0.204 C  
BRANCH  20  21
HETATM   21  C   UNL     1      -8.063  10.490  68.399  1.00  0.00    -0.119 C  
HETATM   22  O   UNL     1      -8.455  10.211  67.059  1.00  0.00    -0.128 OA 
HETATM   23  H   UNL     1      -7.845  10.607  66.449  1.00  0.00     0.000 HD 
BRANCH  21  24
HETATM   24  C   UNL     1      -7.992  12.011  68.574  1.00  0.00    -0.132 C  
BRANCH  24  25
HETATM   25  C   UNL     1      -8.106  12.821  67.278  1.00  0.00    -0.172 C  
BRANCH  25  26
HETATM   26  C   UNL     1      -8.642  14.234  67.505  1.00  0.00    -0.203 C  
BRANCH  26  27
HETATM   27  C   UNL     1      -9.162  14.853  66.209  1.00  0.00    -0.301 C  
HETATM   28  C   UNL     1     -10.053  16.049  66.498  1.00  0.00    -0.297 C  
ENDBRANCH  26  27
ENDBRANCH  25  26
ENDBRANCH  24  25
ENDBRANCH  21  24
ENDBRANCH  20  21
ENDBRANCH  16  19
ENDBRANCH   9  10
ENDBRANCH   2   9
TORSDOF 11
ENDMDL
MODEL       68
REMARK 921   NORMALIZED FREE ENERGY PREDICTED BY IDOCK:   -4.97 KCAL/MOL
REMARK 922        TOTAL FREE ENERGY PREDICTED BY IDOCK:  -10.55 KCAL/MOL
REMARK 923 INTER-LIGAND FREE ENERGY PREDICTED BY IDOCK:   -9.24 KCAL/MOL
REMARK 924 INTRA-LIGAND FREE ENERGY PREDICTED BY IDOCK:   -1.31 KCAL/MOL
REMARK 927      BINDING AFFINITY PREDICTED BY RF-SCORE:    0.00 PKD
ROOT
HETATM    1  C   UNL     1      -9.355   9.549  67.498  1.00  0.00    -0.146 C  
HETATM    2  C   UNL     1      -8.943  10.468  66.611  1.00  0.00    -0.155 C  
ENDROOT
BRANCH   1   3
HETATM    3  C   UNL     1     -10.431   8.521  67.286  1.00  0.00    -0.366 C  
BRANCH   3   4
HETATM    4  C   UNL     1     -10.538   7.562  68.473  1.00  0.00    -0.172 C  
BRANCH   4   5
HETATM    5  C   UNL     1     -10.570   8.300  69.811  1.00  0.00    -0.228 C  
HETATM    6  O   UNL     1     -11.513   8.282  71.993  1.00  0.00    -0.289 OA 
HETATM    7  C   UNL     1     -11.493   7.637  70.803  1.00  0.00    -0.277 C  
HETATM    8  O   UNL     1     -12.151   6.630  70.593  1.00  0.00    -0.394 OA 
ENDBRANCH   4   5
ENDBRANCH   3   4
ENDBRANCH   1   3
BRANCH   2   9
HETATM    9  C   UNL     1      -9.514  10.702  65.239  1.00  0.00    -0.270 C  
BRANCH   9  10
HETATM   10  C   UNL     1     -10.281  12.020  65.044  1.00  0.00    -0.308 C  
HETATM   11  H   UNL     1     -14.150  11.668  64.858  1.00  0.00     0.000 HD 
HETATM   12  C   UNL     1     -10.565  12.287  63.557  1.00  0.00    -0.448 C  
HETATM   13  O   UNL     1     -13.577  11.971  64.164  1.00  0.00    -0.519 OA 
HETATM   14  O   UNL     1     -11.076  11.127  62.903  1.00  0.00    -0.812 OA 
HETATM   15  C   UNL     1     -11.664  13.337  63.589  1.00  0.00    -0.447 C  
HETATM   16  C   UNL     1     -11.688  12.071  65.701  1.00  0.00    -0.312 C  
HETATM   17  H   UNL     1     -11.251  11.293  61.983  1.00  0.00     0.000 HD 
HETATM   18  C   UNL     1     -12.587  12.849  64.706  1.00  0.00    -0.425 C  
BRANCH  16  19
HETATM   19  C   UNL     1     -11.690  12.677  67.085  1.00  0.00    -0.438 C  
HETATM   20  C   UNL     1     -11.353  13.946  67.376  1.00  0.00    -0.349 C  
BRANCH  20  21
HETATM   21  C   UNL     1     -11.281  14.547  68.754  1.00  0.00    -0.261 C  
HETATM   22  O   UNL     1     -10.032  14.239  69.361  1.00  0.00    -0.421 OA 
HETATM   23  H   UNL     1      -9.986  14.618  70.230  1.00  0.00     0.000 HD 
BRANCH  21  24
HETATM   24  C   UNL     1     -11.439  16.071  68.717  1.00  0.00    -0.375 C  
BRANCH  24  25
HETATM   25  C   UNL     1     -10.666  16.778  67.598  1.00  0.00    -0.305 C  
BRANCH  25  26
HETATM   26  C   UNL     1     -10.114  18.138  68.023  1.00  0.00    -0.376 C  
BRANCH  26  27
HETATM   27  C   UNL     1     -10.848  19.284  67.329  1.00  0.00    -0.554 C  
HETATM   28  C   UNL     1      -9.869  20.340  66.843  1.00  0.00    -0.597 C  
ENDBRANCH  26  27
ENDBRANCH  25  26
ENDBRANCH  24  25
ENDBRANCH  21  24
ENDBRANCH  20  21
ENDBRANCH  16  19
ENDBRANCH   9  10
ENDBRANCH   2   9
TORSDOF 11
ENDMDL
MODEL       69
REMARK 921   NORMALIZED FREE ENERGY PREDICTED BY IDOCK:   -4.96 KCAL/MOL
REMARK 922        TOTAL FREE ENERGY PREDICTED BY IDOCK:  -10.54 KCAL/MOL
REMARK 923 INTER-LIGAND FREE ENERGY PREDICTED BY IDOCK:   -8.55 KCAL/MOL
REMARK 924 INTRA-LIGAND FREE ENERGY PREDICTED BY IDOCK:   -1.99 KCAL/MOL
REMARK 927      BINDING AFFINITY PREDICTED BY RF-SCORE:    0.00 PKD
ROOT
HETATM    1  C   UNL     1      -8.849  14.167  67.840  1.00  0.00    -0.182 C  
HETATM    2  C   UNL     1      -8.631  15.002  68.867  1.00  0.00    -0.189 C  
ENDROOT
BRANCH   1   3
HETATM    3  C   UNL     1      -8.566  14.441  66.389  1.00  0.00     0.203 C  
BRANCH   3   4
HETATM    4  C   UNL     1      -9.568  15.432  65.796  1.00  0.00    -0.368 C  
BRANCH   4   5
HETATM    5  C   UNL     1     -10.843  14.744  65.307  1.00  0.00    -0.395 C  
HETATM    6  O   UNL     1     -12.737  14.988  63.892  1.00  0.00    -0.775 OA 
HETATM    7  C   UNL     1     -11.615  15.601  64.336  1.00  0.00    -0.249 C  
HETATM    8  O   UNL     1     -11.288  16.718  63.963  1.00  0.00    -1.153 OA 
ENDBRANCH   4   5
ENDBRANCH   3   4
ENDBRANCH   1   3
BRANCH   2   9
HETATM    9  C   UNL     1      -8.116  16.413  68.775  1.00  0.00    -0.234 C  
BRANCH   9  10
HETATM   10  C   UNL     1      -9.150  17.525  69.012  1.00  0.00    -0.050 C  
HETATM   11  H   UNL     1     -11.390  18.380  65.950  1.00  0.00     0.000 HD 
HETATM   12  C   UNL     1      -8.607  18.896  68.579  1.00  0.00    -0.348 C  
HETATM   13  O   UNL     1     -10.764  18.957  66.370  1.00  0.00    -0.392 OA 
HETATM   14  O   UNL     1      -7.991  18.836  67.294  1.00  0.00    -0.237 OA 
HETATM   15  C   UNL     1      -9.857  19.754  68.467  1.00  0.00    -0.506 C  
HETATM   16  C   UNL     1     -10.472  17.383  68.208  1.00  0.00    -0.385 C  
HETATM   17  H   UNL     1      -7.655  19.684  67.027  1.00  0.00     0.000 HD 
HETATM   18  C   UNL     1     -10.864  18.825  67.791  1.00  0.00    -0.269 C  
BRANCH  16  19
HETATM   19  C   UNL     1     -11.571  16.677  68.966  1.00  0.00     0.130 C  
HETATM   20  C   UNL     1     -11.471  16.213  70.224  1.00  0.00    -0.319 C  
BRANCH  20  21
HETATM   21  C   UNL     1     -12.530  15.446  70.969  1.00  0.00    -0.411 C  
HETATM   22  O   UNL     1     -13.805  15.666  70.377  1.00  0.00    -0.683 OA 
HETATM   23  H   UNL     1     -14.473  15.182  70.847  1.00  0.00     0.000 HD 
BRANCH  21  24
HETATM   24  C   UNL     1     -12.248  13.939  70.964  1.00  0.00    -0.421 C  
BRANCH  24  25
HETATM   25  C   UNL     1     -12.054  13.319  69.575  1.00  0.00    -0.315 C  
BRANCH  25  26
HETATM   26  C   UNL     1     -12.034  11.791  69.603  1.00  0.00    -0.378 C  
BRANCH  26  27
HETATM   27  C   UNL     1     -10.989  11.226  68.643  1.00  0.00    -0.266 C  
HETATM   28  C   UNL     1     -11.328  11.578  67.204  1.00  0.00    -0.354 C  
ENDBRANCH  26  27
ENDBRANCH  25  26
ENDBRANCH  24  25
ENDBRANCH  21  24
ENDBRANCH  20  21
ENDBRANCH  16  19
ENDBRANCH   9  10
ENDBRANCH   2   9
TORSDOF 11
ENDMDL
MODEL       70
REMARK 921   NORMALIZED FREE ENERGY PREDICTED BY IDOCK:   -4.95 KCAL/MOL
REMARK 922        TOTAL FREE ENERGY PREDICTED BY IDOCK:  -10.53 KCAL/MOL
REMARK 923 INTER-LIGAND FREE ENERGY PREDICTED BY IDOCK:   -8.98 KCAL/MOL
REMARK 924 INTRA-LIGAND FREE ENERGY PREDICTED BY IDOCK:   -1.55 KCAL/MOL
REMARK 927      BINDING AFFINITY PREDICTED BY RF-SCORE:    0.00 PKD
ROOT
HETATM    1  C   UNL     1     -10.712   9.971  68.546  1.00  0.00    -0.264 C  
HETATM    2  C   UNL     1     -10.791  10.237  67.233  1.00  0.00    -0.312 C  
ENDROOT
BRANCH   1   3
HETATM    3  C   UNL     1      -9.680  10.497  69.505  1.00  0.00    -0.147 C  
BRANCH   3   4
HETATM    4  C   UNL     1      -9.267   9.438  70.528  1.00  0.00    -0.314 C  
BRANCH   4   5
HETATM    5  C   UNL     1      -9.418   8.018  69.982  1.00  0.00    -0.160 C  
HETATM    6  O   UNL     1      -8.230   6.033  69.435  1.00  0.00    -0.111 OA 
HETATM    7  C   UNL     1      -8.097   7.295  69.906  1.00  0.00    -0.127 C  
HETATM    8  O   UNL     1      -7.016   7.761  70.234  1.00  0.00    -0.048 OA 
ENDBRANCH   4   5
ENDBRANCH   3   4
ENDBRANCH   1   3
BRANCH   2   9
HETATM    9  C   UNL     1      -9.828  11.071  66.433  1.00  0.00    -0.252 C  
BRANCH   9  10
HETATM   10  C   UNL     1     -10.426  12.297  65.725  1.00  0.00    -0.287 C  
HETATM   11  H   UNL     1     -14.223  12.053  64.920  1.00  0.00     0.000 HD 
HETATM   12  C   UNL     1     -10.428  12.117  64.198  1.00  0.00    -0.362 C  
HETATM   13  O   UNL     1     -13.515  12.111  64.289  1.00  0.00    -0.708 OA 
HETATM   14  O   UNL     1     -10.925  10.834  63.821  1.00  0.00    -0.430 OA 
HETATM   15  C   UNL     1     -11.415  13.168  63.718  1.00  0.00    -0.426 C  
HETATM   16  C   UNL     1     -11.913  12.597  66.061  1.00  0.00    -0.478 C  
HETATM   17  H   UNL     1     -10.926  10.723  62.878  1.00  0.00     0.000 HD 
HETATM   18  C   UNL     1     -12.554  13.074  64.732  1.00  0.00    -0.397 C  
BRANCH  16  19
HETATM   19  C   UNL     1     -12.093  13.590  67.185  1.00  0.00    -0.386 C  
HETATM   20  C   UNL     1     -11.228  13.782  68.197  1.00  0.00    -0.298 C  
BRANCH  20  21
HETATM   21  C   UNL     1     -11.424  14.716  69.360  1.00  0.00    -0.296 C  
HETATM   22  O   UNL     1     -12.225  15.825  68.971  1.00  0.00    -0.575 OA 
HETATM   23  H   UNL     1     -12.349  16.415  69.705  1.00  0.00     0.000 HD 
BRANCH  21  24
HETATM   24  C   UNL     1     -12.108  14.016  70.540  1.00  0.00    -0.424 C  
BRANCH  24  25
HETATM   25  C   UNL     1     -13.504  14.544  70.889  1.00  0.00    -0.266 C  
BRANCH  25  26
HETATM   26  C   UNL     1     -13.520  15.385  72.165  1.00  0.00    -0.570 C  
BRANCH  26  27
HETATM   27  C   UNL     1     -12.157  15.388  72.854  1.00  0.00    -0.545 C  
HETATM   28  C   UNL     1     -12.307  15.570  74.355  1.00  0.00    -0.798 C  
ENDBRANCH  26  27
ENDBRANCH  25  26
ENDBRANCH  24  25
ENDBRANCH  21  24
ENDBRANCH  20  21
ENDBRANCH  16  19
ENDBRANCH   9  10
ENDBRANCH   2   9
TORSDOF 11
ENDMDL
MODEL       71
REMARK 921   NORMALIZED FREE ENERGY PREDICTED BY IDOCK:   -4.95 KCAL/MOL
REMARK 922        TOTAL FREE ENERGY PREDICTED BY IDOCK:  -10.53 KCAL/MOL
REMARK 923 INTER-LIGAND FREE ENERGY PREDICTED BY IDOCK:   -9.00 KCAL/MOL
REMARK 924 INTRA-LIGAND FREE ENERGY PREDICTED BY IDOCK:   -1.53 KCAL/MOL
REMARK 927      BINDING AFFINITY PREDICTED BY RF-SCORE:    0.00 PKD
ROOT
HETATM    1  C   UNL     1     -11.117  13.495  66.385  1.00  0.00    -0.311 C  
HETATM    2  C   UNL     1     -11.559  13.184  67.612  1.00  0.00    -0.392 C  
ENDROOT
BRANCH   1   3
HETATM    3  C   UNL     1     -11.176  14.847  65.728  1.00  0.00    -0.334 C  
BRANCH   3   4
HETATM    4  C   UNL     1      -9.811  15.536  65.731  1.00  0.00    -0.392 C  
BRANCH   4   5
HETATM    5  C   UNL     1      -9.601  16.395  66.978  1.00  0.00    -0.244 C  
HETATM    6  O   UNL     1      -8.443  16.522  69.051  1.00  0.00    -0.240 OA 
HETATM    7  C   UNL     1      -8.641  15.757  67.952  1.00  0.00    -0.159 C  
HETATM    8  O   UNL     1      -8.082  14.683  67.793  1.00  0.00    -0.129 OA 
ENDBRANCH   4   5
ENDBRANCH   3   4
ENDBRANCH   1   3
BRANCH   2   9
HETATM    9  C   UNL     1     -12.263  14.109  68.567  1.00  0.00    -0.204 C  
BRANCH   9  10
HETATM   10  C   UNL     1     -11.916  13.933  70.055  1.00  0.00    -0.404 C  
HETATM   11  H   UNL     1     -14.916  13.026  72.358  1.00  0.00     0.000 HD 
HETATM   12  C   UNL     1     -12.136  15.238  70.838  1.00  0.00    -0.344 C  
HETATM   13  O   UNL     1     -14.397  13.821  72.394  1.00  0.00    -0.664 OA 
HETATM   14  O   UNL     1     -13.392  15.834  70.524  1.00  0.00    -0.767 OA 
HETATM   15  C   UNL     1     -12.177  14.778  72.287  1.00  0.00    -0.382 C  
HETATM   16  C   UNL     1     -12.782  12.895  70.820  1.00  0.00    -0.229 C  
HETATM   17  H   UNL     1     -13.528  16.641  71.008  1.00  0.00     0.000 HD 
HETATM   18  C   UNL     1     -13.012  13.500  72.229  1.00  0.00    -0.296 C  
BRANCH  16  19
HETATM   19  C   UNL     1     -12.171  11.515  70.871  1.00  0.00    -0.425 C  
HETATM   20  C   UNL     1     -12.642  10.484  71.595  1.00  0.00    -0.498 C  
BRANCH  20  21
HETATM   21  C   UNL     1     -12.007   9.125  71.712  1.00  0.00    -0.379 C  
HETATM   22  O   UNL     1     -12.455   8.280  70.659  1.00  0.00    -0.490 OA 
HETATM   23  H   UNL     1     -12.054   7.422  70.733  1.00  0.00     0.000 HD 
BRANCH  21  24
HETATM   24  C   UNL     1     -10.478   9.206  71.650  1.00  0.00    -0.403 C  
BRANCH  24  25
HETATM   25  C   UNL     1      -9.737   8.099  72.408  1.00  0.00    -0.338 C  
BRANCH  25  26
HETATM   26  C   UNL     1     -10.623   7.373  73.419  1.00  0.00    -0.427 C  
BRANCH  26  27
HETATM   27  C   UNL     1     -10.486   5.857  73.301  1.00  0.00    -0.255 C  
HETATM   28  C   UNL     1     -10.565   5.417  71.848  1.00  0.00    -0.288 C  
ENDBRANCH  26  27
ENDBRANCH  25  26
ENDBRANCH  24  25
ENDBRANCH  21  24
ENDBRANCH  20  21
ENDBRANCH  16  19
ENDBRANCH   9  10
ENDBRANCH   2   9
TORSDOF 11
ENDMDL
MODEL       72
REMARK 921   NORMALIZED FREE ENERGY PREDICTED BY IDOCK:   -4.95 KCAL/MOL
REMARK 922        TOTAL FREE ENERGY PREDICTED BY IDOCK:  -10.53 KCAL/MOL
REMARK 923 INTER-LIGAND FREE ENERGY PREDICTED BY IDOCK:   -8.34 KCAL/MOL
REMARK 924 INTRA-LIGAND FREE ENERGY PREDICTED BY IDOCK:   -2.19 KCAL/MOL
REMARK 927      BINDING AFFINITY PREDICTED BY RF-SCORE:    0.00 PKD
ROOT
HETATM    1  C   UNL     1     -12.758  10.951  71.096  1.00  0.00    -0.530 C  
HETATM    2  C   UNL     1     -11.803  11.333  70.235  1.00  0.00    -0.446 C  
ENDROOT
BRANCH   1   3
HETATM    3  C   UNL     1     -13.721   9.811  70.916  1.00  0.00     0.011 C  
BRANCH   3   4
HETATM    4  C   UNL     1     -13.687   8.849  72.104  1.00  0.00    -0.527 C  
BRANCH   4   5
HETATM    5  C   UNL     1     -13.214   7.451  71.703  1.00  0.00    -0.416 C  
HETATM    6  O   UNL     1     -11.375   5.947  71.788  1.00  0.00    -0.273 OA 
HETATM    7  C   UNL     1     -11.792   7.189  72.131  1.00  0.00    -0.277 C  
HETATM    8  O   UNL     1     -11.075   7.978  72.728  1.00  0.00    -0.373 OA 
ENDBRANCH   4   5
ENDBRANCH   3   4
ENDBRANCH   1   3
BRANCH   2   9
HETATM    9  C   UNL     1     -11.536  10.739  68.878  1.00  0.00    -0.361 C  
BRANCH   9  10
HETATM   10  C   UNL     1     -10.057  10.614  68.477  1.00  0.00    -0.185 C  
HETATM   11  H   UNL     1      -9.130   7.347  66.581  1.00  0.00     0.000 HD 
HETATM   12  C   UNL     1      -9.255   9.837  69.533  1.00  0.00    -0.213 C  
HETATM   13  O   UNL     1      -8.811   7.614  67.436  1.00  0.00    -0.123 OA 
HETATM   14  O   UNL     1      -9.929   8.646  69.934  1.00  0.00    -0.180 OA 
HETATM   15  C   UNL     1      -7.988   9.439  68.794  1.00  0.00    -0.092 C  
HETATM   16  C   UNL     1      -9.791   9.828  67.163  1.00  0.00    -0.238 C  
HETATM   17  H   UNL     1      -9.434   8.166  70.587  1.00  0.00     0.000 HD 
HETATM   18  C   UNL     1      -8.500   9.009  67.420  1.00  0.00    -0.115 C  
BRANCH  16  19
HETATM   19  C   UNL     1      -9.689  10.709  65.940  1.00  0.00    -0.273 C  
HETATM   20  C   UNL     1     -10.538  10.689  64.896  1.00  0.00    -0.192 C  
BRANCH  20  21
HETATM   21  C   UNL     1     -10.412  11.508  63.641  1.00  0.00    -0.427 C  
HETATM   22  O   UNL     1     -10.401  10.660  62.498  1.00  0.00    -0.751 OA 
HETATM   23  H   UNL     1     -10.321  11.177  61.706  1.00  0.00     0.000 HD 
BRANCH  21  24
HETATM   24  C   UNL     1     -11.571  12.501  63.493  1.00  0.00    -0.584 C  
BRANCH  24  25
HETATM   25  C   UNL     1     -12.518  12.579  64.697  1.00  0.00    -0.539 C  
BRANCH  25  26
HETATM   26  C   UNL     1     -12.421  13.908  65.444  1.00  0.00    -0.528 C  
BRANCH  26  27
HETATM   27  C   UNL     1     -12.076  13.700  66.918  1.00  0.00    -0.431 C  
HETATM   28  C   UNL     1     -10.631  14.082  67.195  1.00  0.00    -0.274 C  
ENDBRANCH  26  27
ENDBRANCH  25  26
ENDBRANCH  24  25
ENDBRANCH  21  24
ENDBRANCH  20  21
ENDBRANCH  16  19
ENDBRANCH   9  10
ENDBRANCH   2   9
TORSDOF 11
ENDMDL
MODEL       73
REMARK 921   NORMALIZED FREE ENERGY PREDICTED BY IDOCK:   -4.94 KCAL/MOL
REMARK 922        TOTAL FREE ENERGY PREDICTED BY IDOCK:  -10.51 KCAL/MOL
REMARK 923 INTER-LIGAND FREE ENERGY PREDICTED BY IDOCK:   -8.52 KCAL/MOL
REMARK 924 INTRA-LIGAND FREE ENERGY PREDICTED BY IDOCK:   -1.99 KCAL/MOL
REMARK 927      BINDING AFFINITY PREDICTED BY RF-SCORE:    0.00 PKD
ROOT
HETATM    1  C   UNL     1     -10.638   7.086  67.870  1.00  0.00    -0.276 C  
HETATM    2  C   UNL     1     -10.983   6.219  68.834  1.00  0.00    -0.435 C  
ENDROOT
BRANCH   1   3
HETATM    3  C   UNL     1      -9.350   7.856  67.778  1.00  0.00    -0.153 C  
BRANCH   3   4
HETATM    4  C   UNL     1      -9.599   9.354  67.601  1.00  0.00    -0.163 C  
BRANCH   4   5
HETATM    5  C   UNL     1      -9.893   9.723  66.146  1.00  0.00    -0.329 C  
HETATM    6  O   UNL     1     -10.859  11.379  64.742  1.00  0.00    -0.306 OA 
HETATM    7  C   UNL     1     -10.610  11.045  66.029  1.00  0.00    -0.213 C  
HETATM    8  O   UNL     1     -10.932  11.760  66.966  1.00  0.00    -0.254 OA 
ENDBRANCH   4   5
ENDBRANCH   3   4
ENDBRANCH   1   3
BRANCH   2   9
HETATM    9  C   UNL     1     -10.177   5.881  70.059  1.00  0.00    -0.286 C  
BRANCH   9  10
HETATM   10  C   UNL     1     -10.564   6.626  71.347  1.00  0.00    -0.255 C  
HETATM   11  H   UNL     1      -7.589   8.163  73.325  1.00  0.00     0.000 HD 
HETATM   12  C   UNL     1     -10.474   5.705  72.575  1.00  0.00    -0.213 C  
HETATM   13  O   UNL     1      -8.169   7.472  73.624  1.00  0.00    -0.122 OA 
HETATM   14  O   UNL     1      -9.257   4.963  72.587  1.00  0.00    -0.130 OA 
HETATM   15  C   UNL     1     -10.451   6.675  73.745  1.00  0.00    -0.357 C  
HETATM   16  C   UNL     1      -9.649   7.825  71.720  1.00  0.00    -0.204 C  
HETATM   17  H   UNL     1      -9.202   4.393  73.346  1.00  0.00     0.000 HD 
HETATM   18  C   UNL     1      -9.517   7.786  73.265  1.00  0.00    -0.283 C  
BRANCH  16  19
HETATM   19  C   UNL     1     -10.153   9.155  71.211  1.00  0.00    -0.388 C  
HETATM   20  C   UNL     1     -11.448   9.506  71.109  1.00  0.00    -0.430 C  
BRANCH  20  21
HETATM   21  C   UNL     1     -11.970  10.797  70.540  1.00  0.00    -0.361 C  
HETATM   22  O   UNL     1     -12.617  10.561  69.296  1.00  0.00    -0.726 OA 
HETATM   23  H   UNL     1     -12.947  11.376  68.936  1.00  0.00     0.000 HD 
BRANCH  21  24
HETATM   24  C   UNL     1     -12.972  11.470  71.486  1.00  0.00    -0.485 C  
BRANCH  24  25
HETATM   25  C   UNL     1     -12.877  12.998  71.553  1.00  0.00    -0.386 C  
BRANCH  25  26
HETATM   26  C   UNL     1     -14.134  13.648  72.130  1.00  0.00    -0.553 C  
BRANCH  26  27
HETATM   27  C   UNL     1     -14.102  15.167  71.979  1.00  0.00    -0.659 C  
HETATM   28  C   UNL     1     -13.036  15.590  70.981  1.00  0.00    -0.551 C  
ENDBRANCH  26  27
ENDBRANCH  25  26
ENDBRANCH  24  25
ENDBRANCH  21  24
ENDBRANCH  20  21
ENDBRANCH  16  19
ENDBRANCH   9  10
ENDBRANCH   2   9
TORSDOF 11
ENDMDL
MODEL       74
REMARK 921   NORMALIZED FREE ENERGY PREDICTED BY IDOCK:   -4.92 KCAL/MOL
REMARK 922        TOTAL FREE ENERGY PREDICTED BY IDOCK:  -10.47 KCAL/MOL
REMARK 923 INTER-LIGAND FREE ENERGY PREDICTED BY IDOCK:   -8.48 KCAL/MOL
REMARK 924 INTRA-LIGAND FREE ENERGY PREDICTED BY IDOCK:   -2.00 KCAL/MOL
REMARK 927      BINDING AFFINITY PREDICTED BY RF-SCORE:    0.00 PKD
ROOT
HETATM    1  C   UNL     1     -10.542  12.302  68.971  1.00  0.00    -0.104 C  
HETATM    2  C   UNL     1     -10.313  13.110  67.925  1.00  0.00    -0.232 C  
ENDROOT
BRANCH   1   3
HETATM    3  C   UNL     1     -11.857  11.678  69.349  1.00  0.00    -0.408 C  
BRANCH   3   4
HETATM    4  C   UNL     1     -12.282  12.070  70.765  1.00  0.00    -0.382 C  
BRANCH   4   5
HETATM    5  C   UNL     1     -12.596  13.562  70.882  1.00  0.00    -0.414 C  
HETATM    6  O   UNL     1     -13.820  15.175  72.128  1.00  0.00    -0.410 OA 
HETATM    7  C   UNL     1     -13.550  13.854  72.014  1.00  0.00    -0.477 C  
HETATM    8  O   UNL     1     -14.032  13.020  72.766  1.00  0.00    -0.591 OA 
ENDBRANCH   4   5
ENDBRANCH   3   4
ENDBRANCH   1   3
BRANCH   2   9
HETATM    9  C   UNL     1     -11.338  13.610  66.944  1.00  0.00    -0.345 C  
BRANCH   9  10
HETATM   10  C   UNL     1     -11.733  12.632  65.825  1.00  0.00    -0.466 C  
HETATM   11  H   UNL     1      -8.887  11.737  63.330  1.00  0.00     0.000 HD 
HETATM   12  C   UNL     1     -12.163  13.381  64.553  1.00  0.00    -0.398 C  
HETATM   13  O   UNL     1      -9.692  12.198  63.126  1.00  0.00    -0.379 OA 
HETATM   14  O   UNL     1     -11.246  14.422  64.221  1.00  0.00    -0.596 OA 
HETATM   15  C   UNL     1     -12.084  12.316  63.471  1.00  0.00    -0.649 C  
HETATM   16  C   UNL     1     -10.596  11.694  65.333  1.00  0.00    -0.331 C  
HETATM   17  H   UNL     1     -11.512  14.885  63.435  1.00  0.00     0.000 HD 
HETATM   18  C   UNL     1     -10.789  11.574  63.798  1.00  0.00    -0.416 C  
BRANCH  16  19
HETATM   19  C   UNL     1     -10.575  10.351  66.025  1.00  0.00    -0.136 C  
HETATM   20  C   UNL     1      -9.499   9.551  66.132  1.00  0.00    -0.281 C  
BRANCH  20  21
HETATM   21  C   UNL     1      -9.477   8.182  66.755  1.00  0.00    -0.198 C  
HETATM   22  O   UNL     1      -9.171   7.198  65.773  1.00  0.00    -0.374 OA 
HETATM   23  H   UNL     1      -9.156   6.334  66.167  1.00  0.00     0.000 HD 
BRANCH  21  24
HETATM   24  C   UNL     1      -8.435   8.086  67.876  1.00  0.00    -0.125 C  
BRANCH  24  25
HETATM   25  C   UNL     1      -8.005   9.427  68.480  1.00  0.00    -0.093 C  
BRANCH  25  26
HETATM   26  C   UNL     1      -8.501   9.622  69.912  1.00  0.00    -0.211 C  
BRANCH  26  27
HETATM   27  C   UNL     1      -9.711   8.739  70.213  1.00  0.00    -0.198 C  
HETATM   28  C   UNL     1      -9.666   8.226  71.643  1.00  0.00    -0.261 C  
ENDBRANCH  26  27
ENDBRANCH  25  26
ENDBRANCH  24  25
ENDBRANCH  21  24
ENDBRANCH  20  21
ENDBRANCH  16  19
ENDBRANCH   9  10
ENDBRANCH   2   9
TORSDOF 11
ENDMDL
MODEL       75
REMARK 921   NORMALIZED FREE ENERGY PREDICTED BY IDOCK:   -4.90 KCAL/MOL
REMARK 922        TOTAL FREE ENERGY PREDICTED BY IDOCK:  -10.45 KCAL/MOL
REMARK 923 INTER-LIGAND FREE ENERGY PREDICTED BY IDOCK:   -9.08 KCAL/MOL
REMARK 924 INTRA-LIGAND FREE ENERGY PREDICTED BY IDOCK:   -1.37 KCAL/MOL
REMARK 927      BINDING AFFINITY PREDICTED BY RF-SCORE:    0.00 PKD
ROOT
HETATM    1  C   UNL     1     -12.093   9.597  70.776  1.00  0.00    -0.328 C  
HETATM    2  C   UNL     1     -12.698  10.781  70.598  1.00  0.00    -0.417 C  
ENDROOT
BRANCH   1   3
HETATM    3  C   UNL     1     -11.496   9.081  72.056  1.00  0.00    -0.408 C  
BRANCH   3   4
HETATM    4  C   UNL     1     -10.029   8.688  71.876  1.00  0.00    -0.392 C  
BRANCH   4   5
HETATM    5  C   UNL     1      -9.438   9.240  70.579  1.00  0.00    -0.317 C  
HETATM    6  O   UNL     1      -8.570   8.631  68.451  1.00  0.00    -0.133 OA 
HETATM    7  C   UNL     1      -9.081   8.144  69.606  1.00  0.00    -0.151 C  
HETATM    8  O   UNL     1      -9.234   6.948  69.801  1.00  0.00    -0.147 OA 
ENDBRANCH   4   5
ENDBRANCH   3   4
ENDBRANCH   1   3
BRANCH   2   9
HETATM    9  C   UNL     1     -12.851  11.868  71.627  1.00  0.00    -0.417 C  
BRANCH   9  10
HETATM   10  C   UNL     1     -13.419  13.203  71.118  1.00  0.00     0.120 C  
HETATM   11  H   UNL     1     -10.992  16.232  71.360  1.00  0.00     0.000 HD 
HETATM   12  C   UNL     1     -14.031  14.024  72.265  1.00  0.00    -0.553 C  
HETATM   13  O   UNL     1     -11.815  16.129  71.823  1.00  0.00    -0.472 OA 
HETATM   14  O   UNL     1     -13.167  14.068  73.399  1.00  0.00    -0.485 OA 
HETATM   15  C   UNL     1     -14.126  15.426  71.685  1.00  0.00    -0.618 C  
HETATM   16  C   UNL     1     -12.378  14.169  70.489  1.00  0.00    -0.434 C  
HETATM   17  H   UNL     1     -13.545  14.576  74.107  1.00  0.00     0.000 HD 
HETATM   18  C   UNL     1     -12.803  15.591  70.940  1.00  0.00    -0.477 C  
BRANCH  16  19
HETATM   19  C   UNL     1     -12.263  14.044  68.988  1.00  0.00    -0.280 C  
HETATM   20  C   UNL     1     -11.602  13.068  68.339  1.00  0.00    -0.370 C  
BRANCH  20  21
HETATM   21  C   UNL     1     -11.418  12.966  66.850  1.00  0.00    -0.341 C  
HETATM   22  O   UNL     1     -11.990  11.757  66.365  1.00  0.00    -0.515 OA 
HETATM   23  H   UNL     1     -11.874  11.692  65.424  1.00  0.00     0.000 HD 
BRANCH  21  24
HETATM   24  C   UNL     1     -12.077  14.140  66.116  1.00  0.00    -0.454 C  
BRANCH  24  25
HETATM   25  C   UNL     1     -11.337  14.619  64.861  1.00  0.00    -0.403 C  
BRANCH  25  26
HETATM   26  C   UNL     1     -10.866  16.068  64.964  1.00  0.00    -0.421 C  
BRANCH  26  27
HETATM   27  C   UNL     1      -9.842  16.247  66.083  1.00  0.00    -0.358 C  
HETATM   28  C   UNL     1     -10.357  17.208  67.142  1.00  0.00    -0.307 C  
ENDBRANCH  26  27
ENDBRANCH  25  26
ENDBRANCH  24  25
ENDBRANCH  21  24
ENDBRANCH  20  21
ENDBRANCH  16  19
ENDBRANCH   9  10
ENDBRANCH   2   9
TORSDOF 11
ENDMDL
MODEL       76
REMARK 921   NORMALIZED FREE ENERGY PREDICTED BY IDOCK:   -4.89 KCAL/MOL
REMARK 922        TOTAL FREE ENERGY PREDICTED BY IDOCK:  -10.44 KCAL/MOL
REMARK 923 INTER-LIGAND FREE ENERGY PREDICTED BY IDOCK:   -8.48 KCAL/MOL
REMARK 924 INTRA-LIGAND FREE ENERGY PREDICTED BY IDOCK:   -1.96 KCAL/MOL
REMARK 927      BINDING AFFINITY PREDICTED BY RF-SCORE:    0.00 PKD
ROOT
HETATM    1  C   UNL     1     -12.555  11.553  71.214  1.00  0.00    -0.452 C  
HETATM    2  C   UNL     1     -12.056  12.202  70.151  1.00  0.00    -0.368 C  
ENDROOT
BRANCH   1   3
HETATM    3  C   UNL     1     -13.161  10.177  71.218  1.00  0.00    -0.490 C  
BRANCH   3   4
HETATM    4  C   UNL     1     -12.351   9.206  72.079  1.00  0.00    -0.448 C  
BRANCH   4   5
HETATM    5  C   UNL     1     -10.922   9.030  71.563  1.00  0.00    -0.418 C  
HETATM    6  O   UNL     1      -9.539   7.713  70.147  1.00  0.00    -0.168 OA 
HETATM    7  C   UNL     1     -10.800   7.863  70.616  1.00  0.00    -0.237 C  
HETATM    8  O   UNL     1     -11.714   7.125  70.280  1.00  0.00    -0.262 OA 
ENDBRANCH   4   5
ENDBRANCH   3   4
ENDBRANCH   1   3
BRANCH   2   9
HETATM    9  C   UNL     1     -12.054  11.713  68.728  1.00  0.00    -0.221 C  
BRANCH   9  10
HETATM   10  C   UNL     1     -10.737  11.893  67.956  1.00  0.00    -0.242 C  
HETATM   11  H   UNL     1     -10.956  11.216  64.132  1.00  0.00     0.000 HD 
HETATM   12  C   UNL     1      -9.985  10.559  67.814  1.00  0.00    -0.171 C  
HETATM   13  O   UNL     1     -10.446  10.723  64.764  1.00  0.00    -0.326 OA 
HETATM   14  O   UNL     1     -10.854   9.508  67.394  1.00  0.00    -0.334 OA 
HETATM   15  C   UNL     1      -8.992  10.829  66.695  1.00  0.00    -0.164 C  
HETATM   16  C   UNL     1     -10.889  12.386  66.490  1.00  0.00    -0.284 C  
HETATM   17  H   UNL     1     -10.390   8.684  67.307  1.00  0.00     0.000 HD 
HETATM   18  C   UNL     1      -9.811  11.622  65.678  1.00  0.00    -0.240 C  
BRANCH  16  19
HETATM   19  C   UNL     1     -10.778  13.885  66.340  1.00  0.00    -0.281 C  
HETATM   20  C   UNL     1     -10.586  14.536  65.179  1.00  0.00    -0.429 C  
BRANCH  20  21
HETATM   21  C   UNL     1     -10.404  16.021  65.019  1.00  0.00    -0.106 C  
HETATM   22  O   UNL     1     -11.393  16.548  64.143  1.00  0.00    -1.381 OA 
HETATM   23  H   UNL     1     -11.279  17.485  64.042  1.00  0.00     0.000 HD 
BRANCH  21  24
HETATM   24  C   UNL     1     -10.509  16.753  66.362  1.00  0.00    -0.269 C  
BRANCH  24  25
HETATM   25  C   UNL     1      -9.169  17.112  67.014  1.00  0.00    -0.251 C  
BRANCH  25  26
HETATM   26  C   UNL     1      -9.262  17.243  68.534  1.00  0.00    -0.273 C  
BRANCH  26  27
HETATM   27  C   UNL     1     -10.600  16.727  69.061  1.00  0.00    -0.343 C  
HETATM   28  C   UNL     1     -10.400  15.513  69.952  1.00  0.00    -0.322 C  
ENDBRANCH  26  27
ENDBRANCH  25  26
ENDBRANCH  24  25
ENDBRANCH  21  24
ENDBRANCH  20  21
ENDBRANCH  16  19
ENDBRANCH   9  10
ENDBRANCH   2   9
TORSDOF 11
ENDMDL
MODEL       77
REMARK 921   NORMALIZED FREE ENERGY PREDICTED BY IDOCK:   -4.89 KCAL/MOL
REMARK 922        TOTAL FREE ENERGY PREDICTED BY IDOCK:  -10.43 KCAL/MOL
REMARK 923 INTER-LIGAND FREE ENERGY PREDICTED BY IDOCK:   -8.32 KCAL/MOL
REMARK 924 INTRA-LIGAND FREE ENERGY PREDICTED BY IDOCK:   -2.10 KCAL/MOL
REMARK 927      BINDING AFFINITY PREDICTED BY RF-SCORE:    0.00 PKD
ROOT
HETATM    1  C   UNL     1     -10.440  11.866  63.609  1.00  0.00    -0.493 C  
HETATM    2  C   UNL     1      -9.727  11.046  64.395  1.00  0.00    -0.330 C  
ENDROOT
BRANCH   1   3
HETATM    3  C   UNL     1     -11.924  12.102  63.673  1.00  0.00    -0.628 C  
BRANCH   3   4
HETATM    4  C   UNL     1     -12.293  13.080  64.790  1.00  0.00    -0.490 C  
BRANCH   4   5
HETATM    5  C   UNL     1     -12.586  14.482  64.256  1.00  0.00    -0.137 C  
HETATM    6  O   UNL     1     -11.646  16.635  63.891  1.00  0.00    -1.204 OA 
HETATM    7  C   UNL     1     -11.393  15.396  64.375  1.00  0.00    -0.238 C  
HETATM    8  O   UNL     1     -10.306  15.085  64.839  1.00  0.00    -0.383 OA 
ENDBRANCH   4   5
ENDBRANCH   3   4
ENDBRANCH   1   3
BRANCH   2   9
HETATM    9  C   UNL     1     -10.272  10.142  65.467  1.00  0.00    -0.288 C  
BRANCH   9  10
HETATM   10  C   UNL     1      -9.878  10.495  66.910  1.00  0.00    -0.235 C  
HETATM   11  H   UNL     1      -6.236  11.783  67.360  1.00  0.00     0.000 HD 
HETATM   12  C   UNL     1      -9.193   9.309  67.610  1.00  0.00    -0.124 C  
HETATM   13  O   UNL     1      -6.600  10.983  67.721  1.00  0.00    -0.062 OA 
HETATM   14  O   UNL     1      -8.194   8.717  66.782  1.00  0.00    -0.105 OA 
HETATM   15  C   UNL     1      -8.503   9.951  68.802  1.00  0.00    -0.122 C  
HETATM   16  C   UNL     1      -8.847  11.649  67.052  1.00  0.00    -0.177 C  
HETATM   17  H   UNL     1      -7.771   7.984  67.214  1.00  0.00     0.000 HD 
HETATM   18  C   UNL     1      -7.916  11.237  68.221  1.00  0.00    -0.134 C  
BRANCH  16  19
HETATM   19  C   UNL     1      -9.480  13.005  67.261  1.00  0.00    -0.224 C  
HETATM   20  C   UNL     1     -10.560  13.248  68.024  1.00  0.00    -0.249 C  
BRANCH  20  21
HETATM   21  C   UNL     1     -11.244  14.578  68.188  1.00  0.00    -0.284 C  
HETATM   22  O   UNL     1     -12.401  14.440  69.005  1.00  0.00    -0.541 OA 
HETATM   23  H   UNL     1     -12.833  15.279  69.109  1.00  0.00     0.000 HD 
BRANCH  21  24
HETATM   24  C   UNL     1     -10.319  15.616  68.832  1.00  0.00    -0.218 C  
BRANCH  24  25
HETATM   25  C   UNL     1      -9.676  16.608  67.856  1.00  0.00    -0.244 C  
BRANCH  25  26
HETATM   26  C   UNL     1     -10.548  17.835  67.594  1.00  0.00    -0.385 C  
BRANCH  26  27
HETATM   27  C   UNL     1     -10.166  18.527  66.287  1.00  0.00    -0.446 C  
HETATM   28  C   UNL     1      -9.855  19.996  66.521  1.00  0.00    -0.581 C  
ENDBRANCH  26  27
ENDBRANCH  25  26
ENDBRANCH  24  25
ENDBRANCH  21  24
ENDBRANCH  20  21
ENDBRANCH  16  19
ENDBRANCH   9  10
ENDBRANCH   2   9
TORSDOF 11
ENDMDL
MODEL       78
REMARK 921   NORMALIZED FREE ENERGY PREDICTED BY IDOCK:   -4.88 KCAL/MOL
REMARK 922        TOTAL FREE ENERGY PREDICTED BY IDOCK:  -10.42 KCAL/MOL
REMARK 923 INTER-LIGAND FREE ENERGY PREDICTED BY IDOCK:   -7.90 KCAL/MOL
REMARK 924 INTRA-LIGAND FREE ENERGY PREDICTED BY IDOCK:   -2.52 KCAL/MOL
REMARK 927      BINDING AFFINITY PREDICTED BY RF-SCORE:    0.00 PKD
ROOT
HETATM    1  C   UNL     1     -12.701  14.255  70.236  1.00  0.00    -0.305 C  
HETATM    2  C   UNL     1     -12.280  15.528  70.254  1.00  0.00    -0.432 C  
ENDROOT
BRANCH   1   3
HETATM    3  C   UNL     1     -11.837  13.028  70.138  1.00  0.00    -0.324 C  
BRANCH   3   4
HETATM    4  C   UNL     1     -12.519  11.806  70.754  1.00  0.00    -0.405 C  
BRANCH   4   5
HETATM    5  C   UNL     1     -11.684  10.536  70.594  1.00  0.00    -0.453 C  
HETATM    6  O   UNL     1     -11.529   8.247  71.218  1.00  0.00    -0.261 OA 
HETATM    7  C   UNL     1     -12.259   9.376  71.368  1.00  0.00    -0.356 C  
HETATM    8  O   UNL     1     -13.271   9.415  72.052  1.00  0.00    -0.384 OA 
ENDBRANCH   4   5
ENDBRANCH   3   4
ENDBRANCH   1   3
BRANCH   2   9
HETATM    9  C   UNL     1     -10.857  15.999  70.120  1.00  0.00    -0.349 C  
BRANCH   9  10
HETATM   10  C   UNL     1     -10.357  16.231  68.684  1.00  0.00    -0.263 C  
HETATM   11  H   UNL     1      -6.866  17.923  68.402  1.00  0.00     0.000 HD 
HETATM   12  C   UNL     1     -10.714  17.641  68.189  1.00  0.00    -0.307 C  
HETATM   13  O   UNL     1      -7.694  18.283  68.107  1.00  0.00    -0.261 OA 
HETATM   14  O   UNL     1     -10.400  18.636  69.162  1.00  0.00    -0.491 OA 
HETATM   15  C   UNL     1      -9.796  17.840  66.993  1.00  0.00    -0.309 C  
HETATM   16  C   UNL     1      -8.816  16.156  68.499  1.00  0.00    -0.200 C  
HETATM   17  H   UNL     1     -10.620  19.508  68.855  1.00  0.00     0.000 HD 
HETATM   18  C   UNL     1      -8.465  17.261  67.469  1.00  0.00    -0.204 C  
BRANCH  16  19
HETATM   19  C   UNL     1      -8.321  14.791  68.081  1.00  0.00    -0.144 C  
HETATM   20  C   UNL     1      -8.951  13.628  68.327  1.00  0.00    -0.187 C  
BRANCH  20  21
HETATM   21  C   UNL     1      -8.440  12.257  67.980  1.00  0.00    -0.171 C  
HETATM   22  O   UNL     1      -8.450  11.421  69.132  1.00  0.00    -0.370 OA 
HETATM   23  H   UNL     1      -8.127  10.555  68.913  1.00  0.00     0.000 HD 
BRANCH  21  24
HETATM   24  C   UNL     1      -9.292  11.591  66.893  1.00  0.00    -0.189 C  
BRANCH  24  25
HETATM   25  C   UNL     1     -10.806  11.778  67.049  1.00  0.00    -0.306 C  
BRANCH  25  26
HETATM   26  C   UNL     1     -11.446  12.476  65.851  1.00  0.00    -0.417 C  
BRANCH  26  27
HETATM   27  C   UNL     1     -11.994  13.851  66.228  1.00  0.00    -0.462 C  
HETATM   28  C   UNL     1     -11.276  14.950  65.463  1.00  0.00    -0.348 C  
ENDBRANCH  26  27
ENDBRANCH  25  26
ENDBRANCH  24  25
ENDBRANCH  21  24
ENDBRANCH  20  21
ENDBRANCH  16  19
ENDBRANCH   9  10
ENDBRANCH   2   9
TORSDOF 11
ENDMDL
MODEL       79
REMARK 921   NORMALIZED FREE ENERGY PREDICTED BY IDOCK:   -4.88 KCAL/MOL
REMARK 922        TOTAL FREE ENERGY PREDICTED BY IDOCK:  -10.42 KCAL/MOL
REMARK 923 INTER-LIGAND FREE ENERGY PREDICTED BY IDOCK:   -8.43 KCAL/MOL
REMARK 924 INTRA-LIGAND FREE ENERGY PREDICTED BY IDOCK:   -1.98 KCAL/MOL
REMARK 927      BINDING AFFINITY PREDICTED BY RF-SCORE:    0.00 PKD
ROOT
HETATM    1  C   UNL     1     -10.955  14.181  68.861  1.00  0.00    -0.280 C  
HETATM    2  C   UNL     1     -11.953  14.209  67.966  1.00  0.00    -0.372 C  
ENDROOT
BRANCH   1   3
HETATM    3  C   UNL     1      -9.482  14.243  68.561  1.00  0.00    -0.206 C  
BRANCH   3   4
HETATM    4  C   UNL     1      -8.952  15.676  68.625  1.00  0.00    -0.202 C  
BRANCH   4   5
HETATM    5  C   UNL     1      -8.832  16.310  67.239  1.00  0.00    -0.204 C  
HETATM    6  O   UNL     1      -9.853  17.838  65.730  1.00  0.00    -0.541 OA 
HETATM    7  C   UNL     1      -9.964  17.265  66.952  1.00  0.00    -0.294 C  
HETATM    8  O   UNL     1     -10.882  17.524  67.715  1.00  0.00    -0.368 OA 
ENDBRANCH   4   5
ENDBRANCH   3   4
ENDBRANCH   1   3
BRANCH   2   9
HETATM    9  C   UNL     1     -11.808  14.246  66.468  1.00  0.00    -0.433 C  
BRANCH   9  10
HETATM   10  C   UNL     1     -11.966  12.900  65.743  1.00  0.00    -0.496 C  
HETATM   11  H   UNL     1      -9.043  11.954  63.358  1.00  0.00     0.000 HD 
HETATM   12  C   UNL     1     -12.601  13.083  64.355  1.00  0.00    -0.285 C  
HETATM   13  O   UNL     1      -9.944  12.125  63.107  1.00  0.00    -0.393 OA 
HETATM   14  O   UNL     1     -11.988  14.150  63.633  1.00  0.00    -0.749 OA 
HETATM   15  C   UNL     1     -12.278  11.780  63.642  1.00  0.00    -0.489 C  
HETATM   16  C   UNL     1     -10.639  12.149  65.443  1.00  0.00    -0.309 C  
HETATM   17  H   UNL     1     -12.381  14.263  62.776  1.00  0.00     0.000 HD 
HETATM   18  C   UNL     1     -10.830  11.506  64.045  1.00  0.00    -0.387 C  
BRANCH  16  19
HETATM   19  C   UNL     1     -10.261  11.140  66.502  1.00  0.00    -0.275 C  
HETATM   20  C   UNL     1     -11.064  10.718  67.495  1.00  0.00    -0.374 C  
BRANCH  20  21
HETATM   21  C   UNL     1     -10.682   9.768  68.596  1.00  0.00    -0.216 C  
HETATM   22  O   UNL     1     -11.692   9.743  69.598  1.00  0.00    -0.447 OA 
HETATM   23  H   UNL     1     -11.451   9.143  70.294  1.00  0.00     0.000 HD 
BRANCH  21  24
HETATM   24  C   UNL     1     -10.485   8.341  68.072  1.00  0.00    -0.239 C  
BRANCH  24  25
HETATM   25  C   UNL     1      -9.226   7.630  68.579  1.00  0.00    -0.143 C  
BRANCH  25  26
HETATM   26  C   UNL     1      -9.241   7.397  70.089  1.00  0.00    -0.151 C  
BRANCH  26  27
HETATM   27  C   UNL     1     -10.420   6.522  70.511  1.00  0.00    -0.251 C  
HETATM   28  C   UNL     1     -10.199   5.077  70.097  1.00  0.00    -0.329 C  
ENDBRANCH  26  27
ENDBRANCH  25  26
ENDBRANCH  24  25
ENDBRANCH  21  24
ENDBRANCH  20  21
ENDBRANCH  16  19
ENDBRANCH   9  10
ENDBRANCH   2   9
TORSDOF 11
ENDMDL
MODEL       80
REMARK 921   NORMALIZED FREE ENERGY PREDICTED BY IDOCK:   -4.88 KCAL/MOL
REMARK 922        TOTAL FREE ENERGY PREDICTED BY IDOCK:  -10.41 KCAL/MOL
REMARK 923 INTER-LIGAND FREE ENERGY PREDICTED BY IDOCK:   -8.64 KCAL/MOL
REMARK 924 INTRA-LIGAND FREE ENERGY PREDICTED BY IDOCK:   -1.78 KCAL/MOL
REMARK 927      BINDING AFFINITY PREDICTED BY RF-SCORE:    0.00 PKD
ROOT
HETATM    1  C   UNL     1      -9.647   8.969  66.723  1.00  0.00    -0.259 C  
HETATM    2  C   UNL     1     -10.012   9.900  65.829  1.00  0.00    -0.347 C  
ENDROOT
BRANCH   1   3
HETATM    3  C   UNL     1      -8.472   9.038  67.658  1.00  0.00    -0.117 C  
BRANCH   3   4
HETATM    4  C   UNL     1      -8.764   8.336  68.985  1.00  0.00    -0.143 C  
BRANCH   4   5
HETATM    5  C   UNL     1      -9.865   7.283  68.852  1.00  0.00    -0.158 C  
HETATM    6  O   UNL     1     -11.775   6.355  69.919  1.00  0.00    -0.426 OA 
HETATM    7  C   UNL     1     -10.792   7.277  70.041  1.00  0.00    -0.253 C  
HETATM    8  O   UNL     1     -10.702   8.013  71.012  1.00  0.00    -0.216 OA 
ENDBRANCH   4   5
ENDBRANCH   3   4
ENDBRANCH   1   3
BRANCH   2   9
HETATM    9  C   UNL     1      -9.285  11.184  65.532  1.00  0.00    -0.236 C  
BRANCH   9  10
HETATM   10  C   UNL     1     -10.145  12.459  65.529  1.00  0.00    -0.287 C  
HETATM   11  H   UNL     1     -13.941  11.891  64.902  1.00  0.00     0.000 HD 
HETATM   12  C   UNL     1     -10.329  13.006  64.104  1.00  0.00    -0.321 C  
HETATM   13  O   UNL     1     -13.341  12.368  64.340  1.00  0.00    -0.789 OA 
HETATM   14  O   UNL     1     -10.683  11.973  63.186  1.00  0.00    -0.636 OA 
HETATM   15  C   UNL     1     -11.513  13.949  64.236  1.00  0.00    -0.336 C  
HETATM   16  C   UNL     1     -11.600  12.278  66.043  1.00  0.00    -0.451 C  
HETATM   17  H   UNL     1     -10.796  12.311  62.305  1.00  0.00     0.000 HD 
HETATM   18  C   UNL     1     -12.478  13.182  65.139  1.00  0.00    -0.483 C  
BRANCH  16  19
HETATM   19  C   UNL     1     -11.767  12.587  67.512  1.00  0.00    -0.439 C  
HETATM   20  C   UNL     1     -12.147  13.774  68.018  1.00  0.00    -0.315 C  
BRANCH  20  21
HETATM   21  C   UNL     1     -12.250  14.119  69.479  1.00  0.00    -0.305 C  
HETATM   22  O   UNL     1     -11.442  13.238  70.251  1.00  0.00    -0.513 OA 
HETATM   23  H   UNL     1     -11.507  13.455  71.173  1.00  0.00     0.000 HD 
BRANCH  21  24
HETATM   24  C   UNL     1     -11.798  15.557  69.755  1.00  0.00    -0.376 C  
BRANCH  24  25
HETATM   25  C   UNL     1     -10.538  15.999  69.002  1.00  0.00    -0.257 C  
BRANCH  25  26
HETATM   26  C   UNL     1     -10.769  17.229  68.126  1.00  0.00    -0.363 C  
BRANCH  26  27
HETATM   27  C   UNL     1      -9.640  17.418  67.114  1.00  0.00    -0.265 C  
HETATM   28  C   UNL     1      -9.496  16.191  66.228  1.00  0.00    -0.347 C  
ENDBRANCH  26  27
ENDBRANCH  25  26
ENDBRANCH  24  25
ENDBRANCH  21  24
ENDBRANCH  20  21
ENDBRANCH  16  19
ENDBRANCH   9  10
ENDBRANCH   2   9
TORSDOF 11
ENDMDL
MODEL       81
REMARK 921   NORMALIZED FREE ENERGY PREDICTED BY IDOCK:   -4.87 KCAL/MOL
REMARK 922        TOTAL FREE ENERGY PREDICTED BY IDOCK:  -10.40 KCAL/MOL
REMARK 923 INTER-LIGAND FREE ENERGY PREDICTED BY IDOCK:   -8.10 KCAL/MOL
REMARK 924 INTRA-LIGAND FREE ENERGY PREDICTED BY IDOCK:   -2.30 KCAL/MOL
REMARK 927      BINDING AFFINITY PREDICTED BY RF-SCORE:    0.00 PKD
ROOT
HETATM    1  C   UNL     1     -12.530  14.309  69.514  1.00  0.00    -0.169 C  
HETATM    2  C   UNL     1     -12.084  15.449  70.061  1.00  0.00    -0.388 C  
ENDROOT
BRANCH   1   3
HETATM    3  C   UNL     1     -11.688  13.190  68.966  1.00  0.00    -0.367 C  
BRANCH   3   4
HETATM    4  C   UNL     1     -12.113  12.805  67.548  1.00  0.00    -0.213 C  
BRANCH   4   5
HETATM    5  C   UNL     1     -12.073  13.995  66.589  1.00  0.00    -0.487 C  
HETATM    6  O   UNL     1     -12.625  14.710  64.391  1.00  0.00    -0.662 OA 
HETATM    7  C   UNL     1     -12.647  13.654  65.237  1.00  0.00    -0.469 C  
HETATM    8  O   UNL     1     -13.098  12.566  64.913  1.00  0.00    -0.833 OA 
ENDBRANCH   4   5
ENDBRANCH   3   4
ENDBRANCH   1   3
BRANCH   2   9
HETATM    9  C   UNL     1     -10.646  15.876  70.187  1.00  0.00    -0.302 C  
BRANCH   9  10
HETATM   10  C   UNL     1      -9.903  16.136  68.867  1.00  0.00    -0.239 C  
HETATM   11  H   UNL     1      -6.641  18.229  69.191  1.00  0.00     0.000 HD 
HETATM   12  C   UNL     1     -10.313  17.483  68.250  1.00  0.00    -0.379 C  
HETATM   13  O   UNL     1      -7.429  18.481  68.725  1.00  0.00    -0.290 OA 
HETATM   14  O   UNL     1     -10.312  18.528  69.221  1.00  0.00    -0.469 OA 
HETATM   15  C   UNL     1      -9.206  17.766  67.247  1.00  0.00    -0.253 C  
HETATM   16  C   UNL     1      -8.357  16.243  68.986  1.00  0.00    -0.239 C  
HETATM   17  H   UNL     1     -10.566  19.360  68.840  1.00  0.00     0.000 HD 
HETATM   18  C   UNL     1      -7.938  17.360  67.996  1.00  0.00    -0.224 C  
BRANCH  16  19
HETATM   19  C   UNL     1      -7.638  14.939  68.731  1.00  0.00    -0.135 C  
HETATM   20  C   UNL     1      -8.226  13.788  68.360  1.00  0.00    -0.151 C  
BRANCH  20  21
HETATM   21  C   UNL     1      -7.535  12.465  68.170  1.00  0.00    -0.118 C  
HETATM   22  O   UNL     1      -7.036  11.987  69.414  1.00  0.00    -0.294 OA 
HETATM   23  H   UNL     1      -6.600  11.152  69.295  1.00  0.00     0.000 HD 
BRANCH  21  24
HETATM   24  C   UNL     1      -8.483  11.408  67.592  1.00  0.00    -0.130 C  
BRANCH  24  25
HETATM   25  C   UNL     1      -9.013  11.709  66.185  1.00  0.00    -0.180 C  
BRANCH  25  26
HETATM   26  C   UNL     1      -9.966  10.634  65.665  1.00  0.00    -0.327 C  
BRANCH  26  27
HETATM   27  C   UNL     1      -9.686  10.295  64.202  1.00  0.00    -0.357 C  
HETATM   28  C   UNL     1     -10.265  11.354  63.280  1.00  0.00    -0.430 C  
ENDBRANCH  26  27
ENDBRANCH  25  26
ENDBRANCH  24  25
ENDBRANCH  21  24
ENDBRANCH  20  21
ENDBRANCH  16  19
ENDBRANCH   9  10
ENDBRANCH   2   9
TORSDOF 11
ENDMDL
MODEL       82
REMARK 921   NORMALIZED FREE ENERGY PREDICTED BY IDOCK:   -4.84 KCAL/MOL
REMARK 922        TOTAL FREE ENERGY PREDICTED BY IDOCK:  -10.34 KCAL/MOL
REMARK 923 INTER-LIGAND FREE ENERGY PREDICTED BY IDOCK:   -8.00 KCAL/MOL
REMARK 924 INTRA-LIGAND FREE ENERGY PREDICTED BY IDOCK:   -2.34 KCAL/MOL
REMARK 927      BINDING AFFINITY PREDICTED BY RF-SCORE:    0.00 PKD
ROOT
HETATM    1  C   UNL     1     -12.014  13.405  64.416  1.00  0.00    -0.460 C  
HETATM    2  C   UNL     1     -11.856  12.231  63.787  1.00  0.00    -0.587 C  
ENDROOT
BRANCH   1   3
HETATM    3  C   UNL     1     -10.925  14.373  64.790  1.00  0.00    -0.409 C  
BRANCH   3   4
HETATM    4  C   UNL     1     -11.267  15.140  66.069  1.00  0.00    -0.275 C  
BRANCH   4   5
HETATM    5  C   UNL     1     -11.930  14.248  67.118  1.00  0.00    -0.449 C  
HETATM    6  O   UNL     1     -12.479  14.077  69.425  1.00  0.00    -0.283 OA 
HETATM    7  C   UNL     1     -11.881  14.859  68.496  1.00  0.00    -0.294 C  
HETATM    8  O   UNL     1     -11.377  15.937  68.774  1.00  0.00    -0.334 OA 
ENDBRANCH   4   5
ENDBRANCH   3   4
ENDBRANCH   1   3
BRANCH   2   9
HETATM    9  C   UNL     1     -10.549  11.607  63.378  1.00  0.00    -0.472 C  
BRANCH   9  10
HETATM   10  C   UNL     1     -10.026  10.482  64.287  1.00  0.00    -0.398 C  
HETATM   11  H   UNL     1      -7.055  11.468  66.594  1.00  0.00     0.000 HD 
HETATM   12  C   UNL     1      -8.845   9.742  63.638  1.00  0.00    -0.236 C  
HETATM   13  O   UNL     1      -7.037  10.827  65.893  1.00  0.00    -0.134 OA 
HETATM   14  O   UNL     1      -7.887  10.651  63.100  1.00  0.00    -0.303 OA 
HETATM   15  C   UNL     1      -8.203   9.008  64.803  1.00  0.00    -0.161 C  
HETATM   16  C   UNL     1      -9.459  10.946  65.657  1.00  0.00    -0.252 C  
HETATM   17  H   UNL     1      -7.157  10.193  62.699  1.00  0.00     0.000 HD 
HETATM   18  C   UNL     1      -8.231  10.040  65.930  1.00  0.00    -0.128 C  
BRANCH  16  19
HETATM   19  C   UNL     1     -10.473  10.908  66.777  1.00  0.00    -0.302 C  
HETATM   20  C   UNL     1     -10.208  11.161  68.071  1.00  0.00    -0.201 C  
BRANCH  20  21
HETATM   21  C   UNL     1     -11.188  11.059  69.208  1.00  0.00    -0.257 C  
HETATM   22  O   UNL     1     -12.521  11.055  68.711  1.00  0.00    -0.712 OA 
HETATM   23  H   UNL     1     -13.140  10.991  69.428  1.00  0.00     0.000 HD 
BRANCH  21  24
HETATM   24  C   UNL     1     -10.974   9.782  70.028  1.00  0.00    -0.319 C  
BRANCH  24  25
HETATM   25  C   UNL     1      -9.523   9.294  70.106  1.00  0.00    -0.258 C  
BRANCH  25  26
HETATM   26  C   UNL     1      -9.244   8.109  69.183  1.00  0.00    -0.151 C  
BRANCH  26  27
HETATM   27  C   UNL     1     -10.535   7.516  68.623  1.00  0.00    -0.207 C  
HETATM   28  C   UNL     1     -10.863   6.195  69.299  1.00  0.00    -0.418 C  
ENDBRANCH  26  27
ENDBRANCH  25  26
ENDBRANCH  24  25
ENDBRANCH  21  24
ENDBRANCH  20  21
ENDBRANCH  16  19
ENDBRANCH   9  10
ENDBRANCH   2   9
TORSDOF 11
ENDMDL
MODEL       83
REMARK 921   NORMALIZED FREE ENERGY PREDICTED BY IDOCK:   -4.83 KCAL/MOL
REMARK 922        TOTAL FREE ENERGY PREDICTED BY IDOCK:  -10.33 KCAL/MOL
REMARK 923 INTER-LIGAND FREE ENERGY PREDICTED BY IDOCK:   -8.48 KCAL/MOL
REMARK 924 INTRA-LIGAND FREE ENERGY PREDICTED BY IDOCK:   -1.86 KCAL/MOL
REMARK 927      BINDING AFFINITY PREDICTED BY RF-SCORE:    0.00 PKD
ROOT
HETATM    1  C   UNL     1     -11.783  12.107  66.540  1.00  0.00    -0.392 C  
HETATM    2  C   UNL     1     -11.961  13.436  66.595  1.00  0.00    -0.452 C  
ENDROOT
BRANCH   1   3
HETATM    3  C   UNL     1     -10.559  11.388  66.046  1.00  0.00    -0.319 C  
BRANCH   3   4
HETATM    4  C   UNL     1      -9.459  11.351  67.107  1.00  0.00    -0.186 C  
BRANCH   4   5
HETATM    5  C   UNL     1      -8.064  11.245  66.490  1.00  0.00    -0.160 C  
HETATM    6  O   UNL     1      -5.791  11.889  66.756  1.00  0.00    -0.174 OA 
HETATM    7  C   UNL     1      -7.029  11.991  67.294  1.00  0.00    -0.146 C  
HETATM    8  O   UNL     1      -7.247  12.616  68.321  1.00  0.00    -0.094 OA 
ENDBRANCH   4   5
ENDBRANCH   3   4
ENDBRANCH   1   3
BRANCH   2   9
HETATM    9  C   UNL     1     -10.994  14.485  66.116  1.00  0.00    -0.322 C  
BRANCH   9  10
HETATM   10  C   UNL     1     -10.283  15.296  67.212  1.00  0.00    -0.248 C  
HETATM   11  H   UNL     1     -11.693  18.873  67.799  1.00  0.00     0.000 HD 
HETATM   12  C   UNL     1      -9.178  16.187  66.621  1.00  0.00    -0.246 C  
HETATM   13  O   UNL     1     -10.824  18.653  67.484  1.00  0.00    -0.435 OA 
HETATM   14  O   UNL     1      -9.635  16.896  65.470  1.00  0.00    -0.519 OA 
HETATM   15  C   UNL     1      -8.908  17.196  67.724  1.00  0.00    -0.225 C  
HETATM   16  C   UNL     1     -11.185  16.296  67.987  1.00  0.00    -0.260 C  
HETATM   17  H   UNL     1      -8.952  17.446  65.105  1.00  0.00     0.000 HD 
HETATM   18  C   UNL     1     -10.305  17.549  68.231  1.00  0.00    -0.379 C  
BRANCH  16  19
HETATM   19  C   UNL     1     -11.760  15.730  69.264  1.00  0.00    -0.384 C  
HETATM   20  C   UNL     1     -11.232  15.890  70.491  1.00  0.00    -0.395 C  
BRANCH  20  21
HETATM   21  C   UNL     1     -11.752  15.277  71.762  1.00  0.00    -0.418 C  
HETATM   22  O   UNL     1     -11.978  16.286  72.740  1.00  0.00    -0.514 OA 
HETATM   23  H   UNL     1     -12.306  15.899  73.543  1.00  0.00     0.000 HD 
BRANCH  21  24
HETATM   24  C   UNL     1     -13.067  14.523  71.532  1.00  0.00    -0.413 C  
BRANCH  24  25
HETATM   25  C   UNL     1     -12.955  12.995  71.566  1.00  0.00    -0.398 C  
BRANCH  25  26
HETATM   26  C   UNL     1     -12.182  12.428  70.376  1.00  0.00    -0.370 C  
BRANCH  26  27
HETATM   27  C   UNL     1     -12.035  10.911  70.472  1.00  0.00    -0.466 C  
HETATM   28  C   UNL     1     -12.942  10.346  71.551  1.00  0.00    -0.562 C  
ENDBRANCH  26  27
ENDBRANCH  25  26
ENDBRANCH  24  25
ENDBRANCH  21  24
ENDBRANCH  20  21
ENDBRANCH  16  19
ENDBRANCH   9  10
ENDBRANCH   2   9
TORSDOF 11
ENDMDL
MODEL       84
REMARK 921   NORMALIZED FREE ENERGY PREDICTED BY IDOCK:   -4.82 KCAL/MOL
REMARK 922        TOTAL FREE ENERGY PREDICTED BY IDOCK:  -10.32 KCAL/MOL
REMARK 923 INTER-LIGAND FREE ENERGY PREDICTED BY IDOCK:   -8.80 KCAL/MOL
REMARK 924 INTRA-LIGAND FREE ENERGY PREDICTED BY IDOCK:   -1.52 KCAL/MOL
REMARK 927      BINDING AFFINITY PREDICTED BY RF-SCORE:    0.00 PKD
ROOT
HETATM    1  C   UNL     1     -10.702  14.843  68.355  1.00  0.00    -0.245 C  
HETATM    2  C   UNL     1     -11.174  13.836  67.606  1.00  0.00    -0.316 C  
ENDROOT
BRANCH   1   3
HETATM    3  C   UNL     1     -11.014  16.304  68.189  1.00  0.00    -0.343 C  
BRANCH   3   4
HETATM    4  C   UNL     1      -9.988  17.004  67.296  1.00  0.00    -0.275 C  
BRANCH   4   5
HETATM    5  C   UNL     1     -10.392  18.442  66.970  1.00  0.00    -0.419 C  
HETATM    6  O   UNL     1     -10.051  20.716  67.571  1.00  0.00    -0.380 OA 
HETATM    7  C   UNL     1      -9.706  19.441  67.867  1.00  0.00    -0.352 C  
HETATM    8  O   UNL     1      -8.917  19.167  68.759  1.00  0.00    -0.363 OA 
ENDBRANCH   4   5
ENDBRANCH   3   4
ENDBRANCH   1   3
BRANCH   2   9
HETATM    9  C   UNL     1     -12.068  13.963  66.402  1.00  0.00    -0.489 C  
BRANCH   9  10
HETATM   10  C   UNL     1     -12.136  12.734  65.481  1.00  0.00    -0.517 C  
HETATM   11  H   UNL     1      -8.966  12.116  63.314  1.00  0.00     0.000 HD 
HETATM   12  C   UNL     1     -12.620  13.116  64.072  1.00  0.00    -0.169 C  
HETATM   13  O   UNL     1      -9.836  12.326  62.995  1.00  0.00    -0.314 OA 
HETATM   14  O   UNL     1     -11.942  14.270  63.579  1.00  0.00    -0.814 OA 
HETATM   15  C   UNL     1     -12.211  11.925  63.221  1.00  0.00    -0.487 C  
HETATM   16  C   UNL     1     -10.778  12.024  65.222  1.00  0.00    -0.331 C  
HETATM   17  H   UNL     1     -12.241  14.507  62.709  1.00  0.00     0.000 HD 
HETATM   18  C   UNL     1     -10.812  11.587  63.734  1.00  0.00    -0.416 C  
BRANCH  16  19
HETATM   19  C   UNL     1     -10.507  10.872  66.161  1.00  0.00    -0.290 C  
HETATM   20  C   UNL     1     -10.072   9.655  65.791  1.00  0.00    -0.274 C  
BRANCH  20  21
HETATM   21  C   UNL     1      -9.863   8.477  66.703  1.00  0.00    -0.272 C  
HETATM   22  O   UNL     1      -9.319   7.381  65.976  1.00  0.00    -0.358 OA 
HETATM   23  H   UNL     1      -9.188   6.637  66.552  1.00  0.00     0.000 HD 
BRANCH  21  24
HETATM   24  C   UNL     1      -8.910   8.813  67.855  1.00  0.00    -0.136 C  
BRANCH  24  25
HETATM   25  C   UNL     1      -9.445   8.497  69.256  1.00  0.00    -0.158 C  
BRANCH  25  26
HETATM   26  C   UNL     1      -9.823   9.749  70.046  1.00  0.00    -0.295 C  
BRANCH  26  27
HETATM   27  C   UNL     1     -11.321   9.794  70.345  1.00  0.00    -0.362 C  
HETATM   28  C   UNL     1     -11.977  10.977  69.652  1.00  0.00    -0.424 C  
ENDBRANCH  26  27
ENDBRANCH  25  26
ENDBRANCH  24  25
ENDBRANCH  21  24
ENDBRANCH  20  21
ENDBRANCH  16  19
ENDBRANCH   9  10
ENDBRANCH   2   9
TORSDOF 11
ENDMDL
MODEL       85
REMARK 921   NORMALIZED FREE ENERGY PREDICTED BY IDOCK:   -4.81 KCAL/MOL
REMARK 922        TOTAL FREE ENERGY PREDICTED BY IDOCK:  -10.30 KCAL/MOL
REMARK 923 INTER-LIGAND FREE ENERGY PREDICTED BY IDOCK:   -8.67 KCAL/MOL
REMARK 924 INTRA-LIGAND FREE ENERGY PREDICTED BY IDOCK:   -1.63 KCAL/MOL
REMARK 927      BINDING AFFINITY PREDICTED BY RF-SCORE:    0.00 PKD
ROOT
HETATM    1  C   UNL     1     -10.173   6.151  68.763  1.00  0.00    -0.226 C  
HETATM    2  C   UNL     1      -9.760   6.836  67.686  1.00  0.00    -0.146 C  
ENDROOT
BRANCH   1   3
HETATM    3  C   UNL     1     -11.487   6.313  69.476  1.00  0.00    -0.387 C  
BRANCH   3   4
HETATM    4  C   UNL     1     -11.290   6.698  70.943  1.00  0.00    -0.377 C  
BRANCH   4   5
HETATM    5  C   UNL     1     -11.358   8.211  71.157  1.00  0.00    -0.299 C  
HETATM    6  O   UNL     1     -12.751   9.984  71.908  1.00  0.00    -0.395 OA 
HETATM    7  C   UNL     1     -12.693   8.647  71.705  1.00  0.00    -0.359 C  
HETATM    8  O   UNL     1     -13.631   7.906  71.959  1.00  0.00    -0.292 OA 
ENDBRANCH   4   5
ENDBRANCH   3   4
ENDBRANCH   1   3
BRANCH   2   9
HETATM    9  C   UNL     1     -10.500   7.954  67.002  1.00  0.00    -0.419 C  
BRANCH   9  10
HETATM   10  C   UNL     1      -9.833   9.338  67.061  1.00  0.00    -0.257 C  
HETATM   11  H   UNL     1     -11.403  12.028  64.731  1.00  0.00     0.000 HD 
HETATM   12  C   UNL     1      -8.764   9.491  65.967  1.00  0.00    -0.147 C  
HETATM   13  O   UNL     1     -10.523  11.675  64.673  1.00  0.00    -0.269 OA 
HETATM   14  O   UNL     1      -9.242   9.045  64.699  1.00  0.00    -0.435 OA 
HETATM   15  C   UNL     1      -8.546  10.993  65.891  1.00  0.00    -0.165 C  
HETATM   16  C   UNL     1     -10.784  10.542  66.815  1.00  0.00    -0.252 C  
HETATM   17  H   UNL     1      -8.581   9.139  64.023  1.00  0.00     0.000 HD 
HETATM   18  C   UNL     1      -9.961  11.561  65.984  1.00  0.00    -0.224 C  
BRANCH  16  19
HETATM   19  C   UNL     1     -11.343  11.142  68.084  1.00  0.00    -0.377 C  
HETATM   20  C   UNL     1     -11.642  12.441  68.262  1.00  0.00    -0.384 C  
BRANCH  20  21
HETATM   21  C   UNL     1     -12.134  13.067  69.539  1.00  0.00    -0.230 C  
HETATM   22  O   UNL     1     -11.831  12.227  70.647  1.00  0.00    -0.502 OA 
HETATM   23  H   UNL     1     -12.141  12.621  71.453  1.00  0.00     0.000 HD 
BRANCH  21  24
HETATM   24  C   UNL     1     -11.492  14.437  69.782  1.00  0.00    -0.328 C  
BRANCH  24  25
HETATM   25  C   UNL     1     -12.379  15.449  70.517  1.00  0.00    -0.452 C  
BRANCH  25  26
HETATM   26  C   UNL     1     -11.939  15.688  71.961  1.00  0.00    -0.544 C  
BRANCH  26  27
HETATM   27  C   UNL     1     -13.134  15.745  72.910  1.00  0.00    -0.618 C  
HETATM   28  C   UNL     1     -14.401  15.271  72.217  1.00  0.00    -0.586 C  
ENDBRANCH  26  27
ENDBRANCH  25  26
ENDBRANCH  24  25
ENDBRANCH  21  24
ENDBRANCH  20  21
ENDBRANCH  16  19
ENDBRANCH   9  10
ENDBRANCH   2   9
TORSDOF 11
ENDMDL
MODEL       86
REMARK 921   NORMALIZED FREE ENERGY PREDICTED BY IDOCK:   -4.79 KCAL/MOL
REMARK 922        TOTAL FREE ENERGY PREDICTED BY IDOCK:  -10.26 KCAL/MOL
REMARK 923 INTER-LIGAND FREE ENERGY PREDICTED BY IDOCK:   -8.87 KCAL/MOL
REMARK 924 INTRA-LIGAND FREE ENERGY PREDICTED BY IDOCK:   -1.39 KCAL/MOL
REMARK 927      BINDING AFFINITY PREDICTED BY RF-SCORE:    0.00 PKD
ROOT
HETATM    1  C   UNL     1     -13.302   9.508  72.122  1.00  0.00    -0.545 C  
HETATM    2  C   UNL     1     -12.620  10.478  71.494  1.00  0.00    -0.529 C  
ENDROOT
BRANCH   1   3
HETATM    3  C   UNL     1     -14.258   8.534  71.491  1.00  0.00    -0.448 C  
BRANCH   3   4
HETATM    4  C   UNL     1     -13.656   7.130  71.402  1.00  0.00    -0.368 C  
BRANCH   4   5
HETATM    5  C   UNL     1     -12.199   7.096  71.864  1.00  0.00    -0.358 C  
HETATM    6  O   UNL     1      -9.973   6.641  71.165  1.00  0.00    -0.182 OA 
HETATM    7  C   UNL     1     -11.265   6.660  70.762  1.00  0.00    -0.315 C  
HETATM    8  O   UNL     1     -11.601   6.364  69.626  1.00  0.00    -0.417 OA 
ENDBRANCH   4   5
ENDBRANCH   3   4
ENDBRANCH   1   3
BRANCH   2   9
HETATM    9  C   UNL     1     -12.715  10.833  70.035  1.00  0.00    -0.176 C  
BRANCH   9  10
HETATM   10  C   UNL     1     -11.440  11.409  69.398  1.00  0.00    -0.378 C  
HETATM   11  H   UNL     1     -11.345  11.311  65.511  1.00  0.00     0.000 HD 
HETATM   12  C   UNL     1     -10.405  10.306  69.121  1.00  0.00    -0.223 C  
HETATM   13  O   UNL     1     -10.765  10.845  66.102  1.00  0.00    -0.235 OA 
HETATM   14  O   UNL     1     -11.000   9.173  68.491  1.00  0.00    -0.438 OA 
HETATM   15  C   UNL     1      -9.452  10.954  68.131  1.00  0.00    -0.167 C  
HETATM   16  C   UNL     1     -11.638  12.082  68.012  1.00  0.00    -0.407 C  
HETATM   17  H   UNL     1     -10.361   8.492  68.321  1.00  0.00     0.000 HD 
HETATM   18  C   UNL     1     -10.384  11.704  67.180  1.00  0.00    -0.217 C  
BRANCH  16  19
HETATM   19  C   UNL     1     -11.857  13.575  68.088  1.00  0.00    -0.400 C  
HETATM   20  C   UNL     1     -11.725  14.323  69.198  1.00  0.00    -0.360 C  
BRANCH  20  21
HETATM   21  C   UNL     1     -12.007  15.797  69.308  1.00  0.00    -0.289 C  
HETATM   22  O   UNL     1     -12.840  16.056  70.432  1.00  0.00    -0.612 OA 
HETATM   23  H   UNL     1     -13.018  16.986  70.502  1.00  0.00     0.000 HD 
BRANCH  21  24
HETATM   24  C   UNL     1     -10.717  16.611  69.465  1.00  0.00    -0.306 C  
BRANCH  24  25
HETATM   25  C   UNL     1     -10.449  17.626  68.347  1.00  0.00    -0.360 C  
BRANCH  25  26
HETATM   26  C   UNL     1      -8.961  17.903  68.139  1.00  0.00    -0.268 C  
BRANCH  26  27
HETATM   27  C   UNL     1      -8.722  19.311  67.598  1.00  0.00    -0.335 C  
HETATM   28  C   UNL     1      -9.959  19.836  66.888  1.00  0.00    -0.537 C  
ENDBRANCH  26  27
ENDBRANCH  25  26
ENDBRANCH  24  25
ENDBRANCH  21  24
ENDBRANCH  20  21
ENDBRANCH  16  19
ENDBRANCH   9  10
ENDBRANCH   2   9
TORSDOF 11
ENDMDL
MODEL       87
REMARK 921   NORMALIZED FREE ENERGY PREDICTED BY IDOCK:   -4.77 KCAL/MOL
REMARK 922        TOTAL FREE ENERGY PREDICTED BY IDOCK:  -10.23 KCAL/MOL
REMARK 923 INTER-LIGAND FREE ENERGY PREDICTED BY IDOCK:   -7.89 KCAL/MOL
REMARK 924 INTRA-LIGAND FREE ENERGY PREDICTED BY IDOCK:   -2.34 KCAL/MOL
REMARK 927      BINDING AFFINITY PREDICTED BY RF-SCORE:    0.00 PKD
ROOT
HETATM    1  C   UNL     1     -11.472  11.015  67.715  1.00  0.00    -0.339 C  
HETATM    2  C   UNL     1     -11.365  10.014  68.601  1.00  0.00    -0.115 C  
ENDROOT
BRANCH   1   3
HETATM    3  C   UNL     1     -10.681  12.294  67.709  1.00  0.00    -0.246 C  
BRANCH   3   4
HETATM    4  C   UNL     1     -11.333  13.358  66.824  1.00  0.00    -0.353 C  
BRANCH   4   5
HETATM    5  C   UNL     1     -10.941  13.205  65.354  1.00  0.00    -0.298 C  
HETATM    6  O   UNL     1     -11.779  12.724  63.182  1.00  0.00    -0.472 OA 
HETATM    7  C   UNL     1     -12.121  12.847  64.486  1.00  0.00    -0.413 C  
HETATM    8  O   UNL     1     -13.267  12.690  64.880  1.00  0.00    -0.819 OA 
ENDBRANCH   4   5
ENDBRANCH   3   4
ENDBRANCH   1   3
BRANCH   2   9
HETATM    9  C   UNL     1     -10.472   9.987  69.812  1.00  0.00    -0.291 C  
BRANCH   9  10
HETATM   10  C   UNL     1     -10.451   8.669  70.604  1.00  0.00    -0.243 C  
HETATM   11  H   UNL     1     -13.791   6.676  70.584  1.00  0.00     0.000 HD 
HETATM   12  C   UNL     1     -10.964   8.871  72.039  1.00  0.00    -0.342 C  
HETATM   13  O   UNL     1     -13.371   7.066  71.341  1.00  0.00    -0.354 OA 
HETATM   14  O   UNL     1     -12.169   9.634  72.064  1.00  0.00    -0.354 OA 
HETATM   15  C   UNL     1     -11.285   7.460  72.503  1.00  0.00    -0.363 C  
HETATM   16  C   UNL     1     -11.365   7.544  70.043  1.00  0.00    -0.115 C  
HETATM   17  H   UNL     1     -12.486   9.758  72.951  1.00  0.00     0.000 HD 
HETATM   18  C   UNL     1     -11.961   6.832  71.285  1.00  0.00    -0.365 C  
BRANCH  16  19
HETATM   19  C   UNL     1     -10.652   6.592  69.111  1.00  0.00    -0.280 C  
HETATM   20  C   UNL     1     -10.882   6.481  67.791  1.00  0.00    -0.395 C  
BRANCH  20  21
HETATM   21  C   UNL     1     -10.233   5.492  66.862  1.00  0.00    -0.233 C  
HETATM   22  O   UNL     1     -11.165   5.052  65.881  1.00  0.00    -0.762 OA 
HETATM   23  H   UNL     1     -10.755   4.427  65.294  1.00  0.00     0.000 HD 
BRANCH  21  24
HETATM   24  C   UNL     1      -9.024   6.099  66.141  1.00  0.00    -0.164 C  
BRANCH  24  25
HETATM   25  C   UNL     1      -8.996   7.631  66.096  1.00  0.00    -0.197 C  
BRANCH  25  26
HETATM   26  C   UNL     1      -8.025   8.239  67.107  1.00  0.00    -0.105 C  
BRANCH  26  27
HETATM   27  C   UNL     1      -8.021   9.765  67.036  1.00  0.00    -0.105 C  
HETATM   28  C   UNL     1      -8.411  10.244  65.647  1.00  0.00    -0.165 C  
ENDBRANCH  26  27
ENDBRANCH  25  26
ENDBRANCH  24  25
ENDBRANCH  21  24
ENDBRANCH  20  21
ENDBRANCH  16  19
ENDBRANCH   9  10
ENDBRANCH   2   9
TORSDOF 11
ENDMDL
MODEL       88
REMARK 921   NORMALIZED FREE ENERGY PREDICTED BY IDOCK:   -4.75 KCAL/MOL
REMARK 922        TOTAL FREE ENERGY PREDICTED BY IDOCK:  -10.20 KCAL/MOL
REMARK 923 INTER-LIGAND FREE ENERGY PREDICTED BY IDOCK:   -8.37 KCAL/MOL
REMARK 924 INTRA-LIGAND FREE ENERGY PREDICTED BY IDOCK:   -1.83 KCAL/MOL
REMARK 927      BINDING AFFINITY PREDICTED BY RF-SCORE:    0.00 PKD
ROOT
HETATM    1  C   UNL     1     -12.016  11.843  70.030  1.00  0.00    -0.409 C  
HETATM    2  C   UNL     1     -12.236  11.019  71.066  1.00  0.00    -0.456 C  
ENDROOT
BRANCH   1   3
HETATM    3  C   UNL     1     -11.910  11.451  68.582  1.00  0.00    -0.377 C  
BRANCH   3   4
HETATM    4  C   UNL     1     -11.370  12.597  67.725  1.00  0.00    -0.349 C  
BRANCH   4   5
HETATM    5  C   UNL     1     -12.156  12.765  66.424  1.00  0.00    -0.370 C  
HETATM    6  O   UNL     1     -12.706  14.304  64.698  1.00  0.00    -0.655 OA 
HETATM    7  C   UNL     1     -12.022  14.156  65.857  1.00  0.00    -0.409 C  
HETATM    8  O   UNL     1     -11.372  15.064  66.353  1.00  0.00    -0.341 OA 
ENDBRANCH   4   5
ENDBRANCH   3   4
ENDBRANCH   1   3
BRANCH   2   9
HETATM    9  C   UNL     1     -12.361   9.521  71.003  1.00  0.00    -0.363 C  
BRANCH   9  10
HETATM   10  C   UNL     1     -11.046   8.731  71.092  1.00  0.00    -0.340 C  
HETATM   11  H   UNL     1     -11.439   4.861  71.102  1.00  0.00     0.000 HD 
HETATM   12  C   UNL     1     -10.708   8.369  72.547  1.00  0.00    -0.302 C  
HETATM   13  O   UNL     1     -11.094   5.395  71.808  1.00  0.00    -0.193 OA 
HETATM   14  O   UNL     1     -11.840   7.838  73.234  1.00  0.00    -0.651 OA 
HETATM   15  C   UNL     1      -9.675   7.262  72.407  1.00  0.00    -0.186 C  
HETATM   16  C   UNL     1     -11.046   7.358  70.363  1.00  0.00    -0.284 C  
HETATM   17  H   UNL     1     -11.631   7.615  74.133  1.00  0.00     0.000 HD 
HETATM   18  C   UNL     1     -10.230   6.402  71.272  1.00  0.00    -0.200 C  
BRANCH  16  19
HETATM   19  C   UNL     1     -10.510   7.420  68.952  1.00  0.00    -0.213 C  
HETATM   20  C   UNL     1      -9.527   8.236  68.531  1.00  0.00    -0.149 C  
BRANCH  20  21
HETATM   21  C   UNL     1      -9.029   8.360  67.117  1.00  0.00    -0.137 C  
HETATM   22  O   UNL     1      -9.767   7.499  66.257  1.00  0.00    -0.387 OA 
HETATM   23  H   UNL     1      -9.453   7.578  65.364  1.00  0.00     0.000 HD 
BRANCH  21  24
HETATM   24  C   UNL     1      -9.161   9.795  66.593  1.00  0.00    -0.184 C  
BRANCH  24  25
HETATM   25  C   UNL     1      -9.987   9.945  65.310  1.00  0.00    -0.320 C  
BRANCH  25  26
HETATM   26  C   UNL     1      -9.140   9.844  64.042  1.00  0.00    -0.300 C  
BRANCH  26  27
HETATM   27  C   UNL     1      -9.331  11.063  63.141  1.00  0.00    -0.339 C  
HETATM   28  C   UNL     1     -10.711  11.670  63.334  1.00  0.00    -0.460 C  
ENDBRANCH  26  27
ENDBRANCH  25  26
ENDBRANCH  24  25
ENDBRANCH  21  24
ENDBRANCH  20  21
ENDBRANCH  16  19
ENDBRANCH   9  10
ENDBRANCH   2   9
TORSDOF 11
ENDMDL
MODEL       89
REMARK 921   NORMALIZED FREE ENERGY PREDICTED BY IDOCK:   -4.74 KCAL/MOL
REMARK 922        TOTAL FREE ENERGY PREDICTED BY IDOCK:  -10.18 KCAL/MOL
REMARK 923 INTER-LIGAND FREE ENERGY PREDICTED BY IDOCK:   -9.26 KCAL/MOL
REMARK 924 INTRA-LIGAND FREE ENERGY PREDICTED BY IDOCK:   -0.93 KCAL/MOL
REMARK 927      BINDING AFFINITY PREDICTED BY RF-SCORE:    0.00 PKD
ROOT
HETATM    1  C   UNL     1     -11.558  11.046  69.169  1.00  0.00    -0.389 C  
HETATM    2  C   UNL     1     -11.452  11.437  67.890  1.00  0.00    -0.361 C  
ENDROOT
BRANCH   1   3
HETATM    3  C   UNL     1     -12.154  11.837  70.300  1.00  0.00    -0.426 C  
BRANCH   3   4
HETATM    4  C   UNL     1     -12.733  10.925  71.383  1.00  0.00    -0.539 C  
BRANCH   4   5
HETATM    5  C   UNL     1     -12.051   9.557  71.413  1.00  0.00    -0.459 C  
HETATM    6  O   UNL     1     -12.444   7.216  71.534  1.00  0.00    -0.342 OA 
HETATM    7  C   UNL     1     -13.045   8.429  71.521  1.00  0.00    -0.296 C  
HETATM    8  O   UNL     1     -14.259   8.558  71.579  1.00  0.00    -0.413 OA 
ENDBRANCH   4   5
ENDBRANCH   3   4
ENDBRANCH   1   3
BRANCH   2   9
HETATM    9  C   UNL     1     -11.852  12.776  67.331  1.00  0.00    -0.404 C  
BRANCH   9  10
HETATM   10  C   UNL     1     -11.232  13.152  65.975  1.00  0.00    -0.316 C  
HETATM   11  H   UNL     1     -12.851  16.217  64.212  1.00  0.00     0.000 HD 
HETATM   12  C   UNL     1     -11.995  12.498  64.811  1.00  0.00    -0.409 C  
HETATM   13  O   UNL     1     -12.847  15.321  63.896  1.00  0.00    -0.637 OA 
HETATM   14  O   UNL     1     -13.405  12.652  64.954  1.00  0.00    -0.741 OA 
HETATM   15  C   UNL     1     -11.549  13.300  63.600  1.00  0.00    -0.376 C  
HETATM   16  C   UNL     1     -11.264  14.666  65.629  1.00  0.00    -0.342 C  
HETATM   17  H   UNL     1     -13.876  12.247  64.235  1.00  0.00     0.000 HD 
HETATM   18  C   UNL     1     -11.557  14.741  64.108  1.00  0.00    -0.078 C  
BRANCH  16  19
HETATM   19  C   UNL     1     -10.004  15.404  66.017  1.00  0.00    -0.350 C  
HETATM   20  C   UNL     1      -9.906  16.734  66.192  1.00  0.00    -0.330 C  
BRANCH  20  21
HETATM   21  C   UNL     1      -8.646  17.492  66.510  1.00  0.00    -0.263 C  
HETATM   22  O   UNL     1      -8.587  18.691  65.746  1.00  0.00    -0.430 OA 
HETATM   23  H   UNL     1      -7.791  19.169  65.946  1.00  0.00     0.000 HD 
BRANCH  21  24
HETATM   24  C   UNL     1      -8.566  17.862  67.995  1.00  0.00    -0.256 C  
BRANCH  24  25
HETATM   25  C   UNL     1      -7.188  18.332  68.475  1.00  0.00    -0.293 C  
BRANCH  25  26
HETATM   26  C   UNL     1      -7.239  19.668  69.215  1.00  0.00    -0.334 C  
BRANCH  26  27
HETATM   27  C   UNL     1      -6.402  20.733  68.510  1.00  0.00    -0.288 C  
HETATM   28  C   UNL     1      -5.411  20.097  67.550  1.00  0.00    -0.187 C  
ENDBRANCH  26  27
ENDBRANCH  25  26
ENDBRANCH  24  25
ENDBRANCH  21  24
ENDBRANCH  20  21
ENDBRANCH  16  19
ENDBRANCH   9  10
ENDBRANCH   2   9
TORSDOF 11
ENDMDL
MODEL       90
REMARK 921   NORMALIZED FREE ENERGY PREDICTED BY IDOCK:   -4.74 KCAL/MOL
REMARK 922        TOTAL FREE ENERGY PREDICTED BY IDOCK:  -10.18 KCAL/MOL
REMARK 923 INTER-LIGAND FREE ENERGY PREDICTED BY IDOCK:   -8.11 KCAL/MOL
REMARK 924 INTRA-LIGAND FREE ENERGY PREDICTED BY IDOCK:   -2.07 KCAL/MOL
REMARK 927      BINDING AFFINITY PREDICTED BY RF-SCORE:    0.00 PKD
ROOT
HETATM    1  C   UNL     1      -6.412  18.725  65.775  1.00  0.00    -0.287 C  
HETATM    2  C   UNL     1      -6.990  17.547  66.049  1.00  0.00    -0.296 C  
ENDROOT
BRANCH   1   3
HETATM    3  C   UNL     1      -7.116  20.027  65.507  1.00  0.00    -0.336 C  
BRANCH   3   4
HETATM    4  C   UNL     1      -7.312  20.838  66.789  1.00  0.00    -0.263 C  
BRANCH   4   5
HETATM    5  C   UNL     1      -6.295  20.468  67.868  1.00  0.00    -0.327 C  
HETATM    6  O   UNL     1      -6.044  19.466  70.009  1.00  0.00    -0.261 OA 
HETATM    7  C   UNL     1      -6.944  19.806  69.058  1.00  0.00    -0.337 C  
HETATM    8  O   UNL     1      -8.139  19.579  69.176  1.00  0.00    -0.320 OA 
ENDBRANCH   4   5
ENDBRANCH   3   4
ENDBRANCH   1   3
BRANCH   2   9
HETATM    9  C   UNL     1      -8.468  17.266  66.085  1.00  0.00    -0.216 C  
BRANCH   9  10
HETATM   10  C   UNL     1      -8.886  15.940  66.743  1.00  0.00    -0.294 C  
HETATM   11  H   UNL     1     -12.620  15.730  67.811  1.00  0.00     0.000 HD 
HETATM   12  C   UNL     1      -8.795  16.024  68.276  1.00  0.00    -0.182 C  
HETATM   13  O   UNL     1     -11.865  15.708  68.388  1.00  0.00    -0.346 OA 
HETATM   14  O   UNL     1      -9.391  17.221  68.773  1.00  0.00    -0.264 OA 
HETATM   15  C   UNL     1      -9.633  14.845  68.745  1.00  0.00    -0.214 C  
HETATM   16  C   UNL     1     -10.355  15.507  66.486  1.00  0.00    -0.293 C  
HETATM   17  H   UNL     1      -9.335  17.272  69.720  1.00  0.00     0.000 HD 
HETATM   18  C   UNL     1     -10.846  14.882  67.818  1.00  0.00    -0.286 C  
BRANCH  16  19
HETATM   19  C   UNL     1     -10.515  14.572  65.310  1.00  0.00    -0.411 C  
HETATM   20  C   UNL     1     -11.556  13.742  65.114  1.00  0.00    -0.341 C  
BRANCH  20  21
HETATM   21  C   UNL     1     -11.697  12.756  63.986  1.00  0.00    -0.426 C  
HETATM   22  O   UNL     1     -12.391  13.351  62.896  1.00  0.00    -0.869 OA 
HETATM   23  H   UNL     1     -12.480  12.729  62.184  1.00  0.00     0.000 HD 
BRANCH  21  24
HETATM   24  C   UNL     1     -10.333  12.269  63.484  1.00  0.00    -0.443 C  
BRANCH  24  25
HETATM   25  C   UNL     1     -10.120  10.753  63.549  1.00  0.00    -0.364 C  
BRANCH  25  26
HETATM   26  C   UNL     1      -9.841  10.251  64.965  1.00  0.00    -0.397 C  
BRANCH  26  27
HETATM   27  C   UNL     1      -8.835  11.143  65.689  1.00  0.00    -0.165 C  
HETATM   28  C   UNL     1      -9.264  11.389  67.126  1.00  0.00    -0.170 C  
ENDBRANCH  26  27
ENDBRANCH  25  26
ENDBRANCH  24  25
ENDBRANCH  21  24
ENDBRANCH  20  21
ENDBRANCH  16  19
ENDBRANCH   9  10
ENDBRANCH   2   9
TORSDOF 11
ENDMDL
MODEL       91
REMARK 921   NORMALIZED FREE ENERGY PREDICTED BY IDOCK:   -4.74 KCAL/MOL
REMARK 922        TOTAL FREE ENERGY PREDICTED BY IDOCK:  -10.18 KCAL/MOL
REMARK 923 INTER-LIGAND FREE ENERGY PREDICTED BY IDOCK:   -8.37 KCAL/MOL
REMARK 924 INTRA-LIGAND FREE ENERGY PREDICTED BY IDOCK:   -1.80 KCAL/MOL
REMARK 927      BINDING AFFINITY PREDICTED BY RF-SCORE:    0.00 PKD
ROOT
HETATM    1  C   UNL     1     -12.471  13.944  67.102  1.00  0.00    -0.084 C  
HETATM    2  C   UNL     1     -12.251  13.490  65.860  1.00  0.00    -0.507 C  
ENDROOT
BRANCH   1   3
HETATM    3  C   UNL     1     -11.428  14.239  68.145  1.00  0.00    -0.336 C  
BRANCH   3   4
HETATM    4  C   UNL     1     -11.636  15.615  68.779  1.00  0.00    -0.393 C  
BRANCH   4   5
HETATM    5  C   UNL     1     -11.102  15.679  70.210  1.00  0.00    -0.361 C  
HETATM    6  O   UNL     1     -11.744  15.810  72.496  1.00  0.00    -0.435 OA 
HETATM    7  C   UNL     1     -12.213  15.767  71.226  1.00  0.00    -0.438 C  
HETATM    8  O   UNL     1     -13.408  15.788  70.970  1.00  0.00    -0.580 OA 
ENDBRANCH   4   5
ENDBRANCH   3   4
ENDBRANCH   1   3
BRANCH   2   9
HETATM    9  C   UNL     1     -10.917  13.121  65.268  1.00  0.00    -0.304 C  
BRANCH   9  10
HETATM   10  C   UNL     1     -10.556  11.627  65.302  1.00  0.00    -0.333 C  
HETATM   11  H   UNL     1      -6.748  10.852  65.471  1.00  0.00     0.000 HD 
HETATM   12  C   UNL     1     -10.266  11.089  63.891  1.00  0.00    -0.364 C  
HETATM   13  O   UNL     1      -7.339  10.629  64.760  1.00  0.00    -0.014 OA 
HETATM   14  O   UNL     1      -9.399  11.958  63.165  1.00  0.00    -0.625 OA 
HETATM   15  C   UNL     1      -9.525   9.788  64.153  1.00  0.00    -0.164 C  
HETATM   16  C   UNL     1      -9.270  11.274  66.100  1.00  0.00    -0.222 C  
HETATM   17  H   UNL     1      -9.221  11.626  62.293  1.00  0.00     0.000 HD 
HETATM   18  C   UNL     1      -8.574  10.146  65.295  1.00  0.00    -0.158 C  
BRANCH  16  19
HETATM   19  C   UNL     1      -9.534  10.887  67.536  1.00  0.00    -0.168 C  
HETATM   20  C   UNL     1     -10.669  10.328  67.993  1.00  0.00    -0.299 C  
BRANCH  20  21
HETATM   21  C   UNL     1     -10.976  10.001  69.429  1.00  0.00    -0.244 C  
HETATM   22  O   UNL     1      -9.849  10.284  70.250  1.00  0.00    -0.400 OA 
HETATM   23  H   UNL     1     -10.042  10.078  71.157  1.00  0.00     0.000 HD 
BRANCH  21  24
HETATM   24  C   UNL     1     -12.170  10.807  69.952  1.00  0.00    -0.384 C  
BRANCH  24  25
HETATM   25  C   UNL     1     -13.221   9.993  70.713  1.00  0.00    -0.270 C  
BRANCH  25  26
HETATM   26  C   UNL     1     -12.873   9.804  72.189  1.00  0.00    -0.448 C  
BRANCH  26  27
HETATM   27  C   UNL     1     -12.218   8.447  72.443  1.00  0.00    -0.430 C  
HETATM   28  C   UNL     1     -12.798   7.385  71.524  1.00  0.00    -0.416 C  
ENDBRANCH  26  27
ENDBRANCH  25  26
ENDBRANCH  24  25
ENDBRANCH  21  24
ENDBRANCH  20  21
ENDBRANCH  16  19
ENDBRANCH   9  10
ENDBRANCH   2   9
TORSDOF 11
ENDMDL
MODEL       92
REMARK 921   NORMALIZED FREE ENERGY PREDICTED BY IDOCK:   -4.73 KCAL/MOL
REMARK 922        TOTAL FREE ENERGY PREDICTED BY IDOCK:  -10.17 KCAL/MOL
REMARK 923 INTER-LIGAND FREE ENERGY PREDICTED BY IDOCK:   -8.42 KCAL/MOL
REMARK 924 INTRA-LIGAND FREE ENERGY PREDICTED BY IDOCK:   -1.75 KCAL/MOL
REMARK 927      BINDING AFFINITY PREDICTED BY RF-SCORE:    0.00 PKD
ROOT
HETATM    1  C   UNL     1     -11.588  11.887  67.697  1.00  0.00    -0.382 C  
HETATM    2  C   UNL     1     -11.626  10.880  68.583  1.00  0.00    -0.373 C  
ENDROOT
BRANCH   1   3
HETATM    3  C   UNL     1     -11.791  13.348  67.993  1.00  0.00    -0.392 C  
BRANCH   3   4
HETATM    4  C   UNL     1     -12.040  14.153  66.717  1.00  0.00    -0.474 C  
BRANCH   4   5
HETATM    5  C   UNL     1     -12.265  13.254  65.501  1.00  0.00    -0.506 C  
HETATM    6  O   UNL     1     -12.567  13.253  63.143  1.00  0.00    -0.666 OA 
HETATM    7  C   UNL     1     -12.381  14.047  64.224  1.00  0.00    -0.355 C  
HETATM    8  O   UNL     1     -12.309  15.264  64.136  1.00  0.00    -0.630 OA 
ENDBRANCH   4   5
ENDBRANCH   3   4
ENDBRANCH   1   3
BRANCH   2   9
HETATM    9  C   UNL     1     -11.942  10.995  70.050  1.00  0.00    -0.430 C  
BRANCH   9  10
HETATM   10  C   UNL     1     -11.393   9.872  70.946  1.00  0.00    -0.446 C  
HETATM   11  H   UNL     1     -11.671   6.288  69.462  1.00  0.00     0.000 HD 
HETATM   12  C   UNL     1     -12.506   9.246  71.803  1.00  0.00    -0.381 C  
HETATM   13  O   UNL     1     -12.108   6.612  70.241  1.00  0.00    -0.350 OA 
HETATM   14  O   UNL     1     -13.668   8.959  71.027  1.00  0.00    -0.574 OA 
HETATM   15  C   UNL     1     -11.902   7.929  72.260  1.00  0.00    -0.404 C  
HETATM   16  C   UNL     1     -10.785   8.658  70.190  1.00  0.00    -0.244 C  
HETATM   17  H   UNL     1     -14.355   8.572  71.557  1.00  0.00     0.000 HD 
HETATM   18  C   UNL     1     -11.199   7.407  71.008  1.00  0.00    -0.264 C  
BRANCH  16  19
HETATM   19  C   UNL     1      -9.291   8.755  69.989  1.00  0.00    -0.175 C  
HETATM   20  C   UNL     1      -8.536   9.826  70.290  1.00  0.00    -0.163 C  
BRANCH  20  21
HETATM   21  C   UNL     1      -7.060   9.966  70.033  1.00  0.00    -0.127 C  
HETATM   22  O   UNL     1      -6.602  11.240  70.470  1.00  0.00    -0.499 OA 
HETATM   23  H   UNL     1      -5.671  11.329  70.308  1.00  0.00     0.000 HD 
BRANCH  21  24
HETATM   24  C   UNL     1      -6.252   8.886  70.762  1.00  0.00    -0.043 C  
BRANCH  24  25
HETATM   25  C   UNL     1      -5.594   9.339  72.070  1.00  0.00    -0.068 C  
BRANCH  25  26
HETATM   26  C   UNL     1      -6.025   8.503  73.274  1.00  0.00    -0.099 C  
BRANCH  26  27
HETATM   27  C   UNL     1      -7.141   7.526  72.909  1.00  0.00    -0.078 C  
HETATM   28  C   UNL     1      -8.431   7.883  73.629  1.00  0.00    -0.299 C  
ENDBRANCH  26  27
ENDBRANCH  25  26
ENDBRANCH  24  25
ENDBRANCH  21  24
ENDBRANCH  20  21
ENDBRANCH  16  19
ENDBRANCH   9  10
ENDBRANCH   2   9
TORSDOF 11
ENDMDL
MODEL       93
REMARK 921   NORMALIZED FREE ENERGY PREDICTED BY IDOCK:   -4.73 KCAL/MOL
REMARK 922        TOTAL FREE ENERGY PREDICTED BY IDOCK:  -10.16 KCAL/MOL
REMARK 923 INTER-LIGAND FREE ENERGY PREDICTED BY IDOCK:   -7.86 KCAL/MOL
REMARK 924 INTRA-LIGAND FREE ENERGY PREDICTED BY IDOCK:   -2.31 KCAL/MOL
REMARK 927      BINDING AFFINITY PREDICTED BY RF-SCORE:    0.00 PKD
ROOT
HETATM    1  C   UNL     1      -9.016   9.357  66.313  1.00  0.00    -0.189 C  
HETATM    2  C   UNL     1      -9.052  10.139  65.224  1.00  0.00    -0.234 C  
ENDROOT
BRANCH   1   3
HETATM    3  C   UNL     1     -10.195   8.728  67.003  1.00  0.00    -0.351 C  
BRANCH   3   4
HETATM    4  C   UNL     1     -10.152   8.952  68.515  1.00  0.00    -0.209 C  
BRANCH   4   5
HETATM    5  C   UNL     1     -10.908  10.213  68.934  1.00  0.00    -0.256 C  
HETATM    6  O   UNL     1     -11.920  11.324  70.776  1.00  0.00    -0.339 OA 
HETATM    7  C   UNL     1     -11.262  10.202  70.400  1.00  0.00    -0.330 C  
HETATM    8  O   UNL     1     -10.991   9.308  71.187  1.00  0.00    -0.281 OA 
ENDBRANCH   4   5
ENDBRANCH   3   4
ENDBRANCH   1   3
BRANCH   2   9
HETATM    9  C   UNL     1     -10.287  10.602  64.499  1.00  0.00    -0.352 C  
BRANCH   9  10
HETATM   10  C   UNL     1     -10.530  12.120  64.484  1.00  0.00    -0.339 C  
HETATM   11  H   UNL     1     -13.754  13.294  66.314  1.00  0.00     0.000 HD 
HETATM   12  C   UNL     1     -11.441  12.529  63.316  1.00  0.00    -0.341 C  
HETATM   13  O   UNL     1     -13.570  13.377  65.386  1.00  0.00    -0.357 OA 
HETATM   14  O   UNL     1     -12.583  11.680  63.217  1.00  0.00    -0.839 OA 
HETATM   15  C   UNL     1     -11.915  13.919  63.706  1.00  0.00    -0.305 C  
HETATM   16  C   UNL     1     -11.259  12.686  65.734  1.00  0.00    -0.347 C  
HETATM   17  H   UNL     1     -13.146  11.932  62.495  1.00  0.00     0.000 HD 
HETATM   18  C   UNL     1     -12.212  13.786  65.199  1.00  0.00    -0.431 C  
BRANCH  16  19
HETATM   19  C   UNL     1     -10.322  13.197  66.803  1.00  0.00    -0.252 C  
HETATM   20  C   UNL     1      -9.268  14.005  66.590  1.00  0.00    -0.262 C  
BRANCH  20  21
HETATM   21  C   UNL     1      -8.285  14.466  67.631  1.00  0.00    -0.176 C  
HETATM   22  O   UNL     1      -6.958  14.388  67.124  1.00  0.00    -0.367 OA 
HETATM   23  H   UNL     1      -6.337  14.679  67.781  1.00  0.00     0.000 HD 
BRANCH  21  24
HETATM   24  C   UNL     1      -8.552  15.913  68.063  1.00  0.00    -0.164 C  
BRANCH  24  25
HETATM   25  C   UNL     1      -9.307  16.067  69.388  1.00  0.00    -0.218 C  
BRANCH  25  26
HETATM   26  C   UNL     1     -10.566  16.923  69.260  1.00  0.00    -0.325 C  
BRANCH  26  27
HETATM   27  C   UNL     1     -11.768  16.092  68.815  1.00  0.00    -0.231 C  
HETATM   28  C   UNL     1     -11.897  14.832  69.655  1.00  0.00    -0.362 C  
ENDBRANCH  26  27
ENDBRANCH  25  26
ENDBRANCH  24  25
ENDBRANCH  21  24
ENDBRANCH  20  21
ENDBRANCH  16  19
ENDBRANCH   9  10
ENDBRANCH   2   9
TORSDOF 11
ENDMDL
MODEL       94
REMARK 921   NORMALIZED FREE ENERGY PREDICTED BY IDOCK:   -4.72 KCAL/MOL
REMARK 922        TOTAL FREE ENERGY PREDICTED BY IDOCK:  -10.15 KCAL/MOL
REMARK 923 INTER-LIGAND FREE ENERGY PREDICTED BY IDOCK:   -8.10 KCAL/MOL
REMARK 924 INTRA-LIGAND FREE ENERGY PREDICTED BY IDOCK:   -2.05 KCAL/MOL
REMARK 927      BINDING AFFINITY PREDICTED BY RF-SCORE:    0.00 PKD
ROOT
HETATM    1  C   UNL     1      -9.463  12.913  67.530  1.00  0.00    -0.198 C  
HETATM    2  C   UNL     1      -8.501  13.842  67.643  1.00  0.00    -0.183 C  
ENDROOT
BRANCH   1   3
HETATM    3  C   UNL     1     -10.587  12.906  66.531  1.00  0.00    -0.272 C  
BRANCH   3   4
HETATM    4  C   UNL     1     -10.205  12.149  65.258  1.00  0.00    -0.304 C  
BRANCH   4   5
HETATM    5  C   UNL     1     -10.270  10.633  65.446  1.00  0.00    -0.341 C  
HETATM    6  O   UNL     1      -8.952   8.671  65.697  1.00  0.00    -0.189 OA 
HETATM    7  C   UNL     1      -8.897  10.011  65.518  1.00  0.00    -0.165 C  
HETATM    8  O   UNL     1      -7.840  10.619  65.439  1.00  0.00    -0.143 OA 
ENDBRANCH   4   5
ENDBRANCH   3   4
ENDBRANCH   1   3
BRANCH   2   9
HETATM    9  C   UNL     1      -8.380  15.103  66.831  1.00  0.00    -0.267 C  
BRANCH   9  10
HETATM   10  C   UNL     1      -8.739  16.409  67.558  1.00  0.00    -0.188 C  
HETATM   11  H   UNL     1     -11.171  18.757  65.635  1.00  0.00     0.000 HD 
HETATM   12  C   UNL     1      -7.815  17.561  67.130  1.00  0.00    -0.207 C  
HETATM   13  O   UNL     1     -10.270  18.947  65.869  1.00  0.00    -0.505 OA 
HETATM   14  O   UNL     1      -7.669  17.617  65.712  1.00  0.00    -0.540 OA 
HETATM   15  C   UNL     1      -8.566  18.803  67.580  1.00  0.00    -0.293 C  
HETATM   16  C   UNL     1     -10.165  16.956  67.272  1.00  0.00    -0.297 C  
HETATM   17  H   UNL     1      -7.098  18.329  65.448  1.00  0.00     0.000 HD 
HETATM   18  C   UNL     1     -10.015  18.498  67.203  1.00  0.00    -0.336 C  
BRANCH  16  19
HETATM   19  C   UNL     1     -11.198  16.516  68.282  1.00  0.00    -0.265 C  
HETATM   20  C   UNL     1     -10.952  16.249  69.577  1.00  0.00    -0.339 C  
BRANCH  20  21
HETATM   21  C   UNL     1     -11.954  15.743  70.579  1.00  0.00    -0.371 C  
HETATM   22  O   UNL     1     -13.272  15.844  70.053  1.00  0.00    -0.615 OA 
HETATM   23  H   UNL     1     -13.904  15.525  70.685  1.00  0.00     0.000 HD 
BRANCH  21  24
HETATM   24  C   UNL     1     -11.694  14.279  70.952  1.00  0.00    -0.242 C  
BRANCH  24  25
HETATM   25  C   UNL     1     -12.281  13.247  69.982  1.00  0.00    -0.345 C  
BRANCH  25  26
HETATM   26  C   UNL     1     -12.140  11.811  70.483  1.00  0.00    -0.439 C  
BRANCH  26  27
HETATM   27  C   UNL     1     -13.003  11.560  71.719  1.00  0.00    -0.500 C  
HETATM   28  C   UNL     1     -13.252  10.074  71.914  1.00  0.00    -0.557 C  
ENDBRANCH  26  27
ENDBRANCH  25  26
ENDBRANCH  24  25
ENDBRANCH  21  24
ENDBRANCH  20  21
ENDBRANCH  16  19
ENDBRANCH   9  10
ENDBRANCH   2   9
TORSDOF 11
ENDMDL
MODEL       95
REMARK 921   NORMALIZED FREE ENERGY PREDICTED BY IDOCK:   -4.72 KCAL/MOL
REMARK 922        TOTAL FREE ENERGY PREDICTED BY IDOCK:  -10.15 KCAL/MOL
REMARK 923 INTER-LIGAND FREE ENERGY PREDICTED BY IDOCK:   -8.54 KCAL/MOL
REMARK 924 INTRA-LIGAND FREE ENERGY PREDICTED BY IDOCK:   -1.61 KCAL/MOL
REMARK 927      BINDING AFFINITY PREDICTED BY RF-SCORE:    0.00 PKD
ROOT
HETATM    1  C   UNL     1     -11.437  12.995  69.962  1.00  0.00    -0.086 C  
HETATM    2  C   UNL     1     -11.520  14.035  69.120  1.00  0.00    -0.340 C  
ENDROOT
BRANCH   1   3
HETATM    3  C   UNL     1     -12.017  11.624  69.752  1.00  0.00    -0.402 C  
BRANCH   3   4
HETATM    4  C   UNL     1     -10.924  10.568  69.581  1.00  0.00    -0.333 C  
BRANCH   4   5
HETATM    5  C   UNL     1     -10.634  10.270  68.109  1.00  0.00    -0.258 C  
HETATM    6  O   UNL     1     -10.072   8.545  66.573  1.00  0.00    -0.274 OA 
HETATM    7  C   UNL     1     -10.317   8.814  67.877  1.00  0.00    -0.224 C  
HETATM    8  O   UNL     1     -10.288   7.950  68.740  1.00  0.00    -0.203 OA 
ENDBRANCH   4   5
ENDBRANCH   3   4
ENDBRANCH   1   3
BRANCH   2   9
HETATM    9  C   UNL     1     -12.265  14.067  67.813  1.00  0.00    -0.209 C  
BRANCH   9  10
HETATM   10  C   UNL     1     -11.411  13.892  66.546  1.00  0.00    -0.340 C  
HETATM   11  H   UNL     1     -11.642  16.807  63.982  1.00  0.00     0.000 HD 
HETATM   12  C   UNL     1     -12.225  13.263  65.404  1.00  0.00    -0.456 C  
HETATM   13  O   UNL     1     -11.921  15.910  63.843  1.00  0.00    -0.730 OA 
HETATM   14  O   UNL     1     -13.497  13.891  65.257  1.00  0.00    -0.612 OA 
HETATM   15  C   UNL     1     -11.397  13.569  64.167  1.00  0.00    -0.370 C  
HETATM   16  C   UNL     1     -10.868  15.209  65.926  1.00  0.00    -0.342 C  
HETATM   17  H   UNL     1     -14.000  13.502  64.552  1.00  0.00     0.000 HD 
HETATM   18  C   UNL     1     -10.949  15.013  64.390  1.00  0.00    -0.026 C  
BRANCH  16  19
HETATM   19  C   UNL     1      -9.478  15.572  66.395  1.00  0.00    -0.320 C  
HETATM   20  C   UNL     1      -8.815  16.694  66.061  1.00  0.00    -0.242 C  
BRANCH  20  21
HETATM   21  C   UNL     1      -7.406  17.038  66.460  1.00  0.00    -0.285 C  
HETATM   22  O   UNL     1      -6.859  17.997  65.562  1.00  0.00    -0.442 OA 
HETATM   23  H   UNL     1      -5.970  18.214  65.814  1.00  0.00     0.000 HD 
BRANCH  21  24
HETATM   24  C   UNL     1      -7.344  17.615  67.879  1.00  0.00    -0.203 C  
BRANCH  24  25
HETATM   25  C   UNL     1      -8.531  18.501  68.273  1.00  0.00    -0.341 C  
BRANCH  25  26
HETATM   26  C   UNL     1      -8.343  19.963  67.871  1.00  0.00    -0.326 C  
BRANCH  26  27
HETATM   27  C   UNL     1      -9.650  20.584  67.383  1.00  0.00    -0.578 C  
HETATM   28  C   UNL     1     -10.711  19.518  67.167  1.00  0.00    -0.599 C  
ENDBRANCH  26  27
ENDBRANCH  25  26
ENDBRANCH  24  25
ENDBRANCH  21  24
ENDBRANCH  20  21
ENDBRANCH  16  19
ENDBRANCH   9  10
ENDBRANCH   2   9
TORSDOF 11
ENDMDL
MODEL       96
REMARK 921   NORMALIZED FREE ENERGY PREDICTED BY IDOCK:   -4.70 KCAL/MOL
REMARK 922        TOTAL FREE ENERGY PREDICTED BY IDOCK:  -10.12 KCAL/MOL
REMARK 923 INTER-LIGAND FREE ENERGY PREDICTED BY IDOCK:   -7.76 KCAL/MOL
REMARK 924 INTRA-LIGAND FREE ENERGY PREDICTED BY IDOCK:   -2.37 KCAL/MOL
REMARK 927      BINDING AFFINITY PREDICTED BY RF-SCORE:    0.00 PKD
ROOT
HETATM    1  C   UNL     1     -11.938  12.610  66.304  1.00  0.00    -0.439 C  
HETATM    2  C   UNL     1     -11.974  13.742  67.021  1.00  0.00    -0.452 C  
ENDROOT
BRANCH   1   3
HETATM    3  C   UNL     1     -10.761  11.687  66.146  1.00  0.00    -0.325 C  
BRANCH   3   4
HETATM    4  C   UNL     1     -10.954  10.387  66.928  1.00  0.00    -0.167 C  
BRANCH   4   5
HETATM    5  C   UNL     1      -9.631   9.663  67.179  1.00  0.00    -0.210 C  
HETATM    6  O   UNL     1      -8.630   7.521  67.422  1.00  0.00    -0.118 OA 
HETATM    7  C   UNL     1      -9.802   8.165  67.213  1.00  0.00    -0.197 C  
HETATM    8  O   UNL     1     -10.857   7.569  67.061  1.00  0.00    -0.348 OA 
ENDBRANCH   4   5
ENDBRANCH   3   4
ENDBRANCH   1   3
BRANCH   2   9
HETATM    9  C   UNL     1     -10.825  14.360  67.771  1.00  0.00    -0.263 C  
BRANCH   9  10
HETATM   10  C   UNL     1     -10.860  14.209  69.300  1.00  0.00    -0.219 C  
HETATM   11  H   UNL     1     -14.383  14.541  70.914  1.00  0.00     0.000 HD 
HETATM   12  C   UNL     1     -10.774  15.576  70.000  1.00  0.00    -0.318 C  
HETATM   13  O   UNL     1     -13.643  15.121  71.050  1.00  0.00    -0.437 OA 
HETATM   14  O   UNL     1     -11.665  16.523  69.413  1.00  0.00    -0.213 OA 
HETATM   15  C   UNL     1     -11.255  15.283  71.411  1.00  0.00    -0.364 C  
HETATM   16  C   UNL     1     -12.161  13.584  69.875  1.00  0.00    -0.408 C  
HETATM   17  H   UNL     1     -11.612  17.367  69.845  1.00  0.00     0.000 HD 
HETATM   18  C   UNL     1     -12.446  14.350  71.193  1.00  0.00    -0.359 C  
BRANCH  16  19
HETATM   19  C   UNL     1     -12.077  12.089  70.077  1.00  0.00    -0.355 C  
HETATM   20  C   UNL     1     -12.725  11.397  71.032  1.00  0.00    -0.447 C  
BRANCH  20  21
HETATM   21  C   UNL     1     -12.599   9.921  71.291  1.00  0.00    -0.381 C  
HETATM   22  O   UNL     1     -13.841   9.270  71.046  1.00  0.00    -0.559 OA 
HETATM   23  H   UNL     1     -13.762   8.338  71.209  1.00  0.00     0.000 HD 
BRANCH  21  24
HETATM   24  C   UNL     1     -11.532   9.277  70.398  1.00  0.00    -0.255 C  
BRANCH  24  25
HETATM   25  C   UNL     1     -10.788   8.093  71.025  1.00  0.00    -0.265 C  
BRANCH  25  26
HETATM   26  C   UNL     1      -9.419   8.479  71.584  1.00  0.00    -0.316 C  
BRANCH  26  27
HETATM   27  C   UNL     1      -8.680   9.436  70.650  1.00  0.00    -0.263 C  
HETATM   28  C   UNL     1      -7.226   9.024  70.491  1.00  0.00    -0.081 C  
ENDBRANCH  26  27
ENDBRANCH  25  26
ENDBRANCH  24  25
ENDBRANCH  21  24
ENDBRANCH  20  21
ENDBRANCH  16  19
ENDBRANCH   9  10
ENDBRANCH   2   9
TORSDOF 11
ENDMDL
MODEL       97
REMARK 921   NORMALIZED FREE ENERGY PREDICTED BY IDOCK:   -4.70 KCAL/MOL
REMARK 922        TOTAL FREE ENERGY PREDICTED BY IDOCK:  -10.12 KCAL/MOL
REMARK 923 INTER-LIGAND FREE ENERGY PREDICTED BY IDOCK:   -8.14 KCAL/MOL
REMARK 924 INTRA-LIGAND FREE ENERGY PREDICTED BY IDOCK:   -1.98 KCAL/MOL
REMARK 927      BINDING AFFINITY PREDICTED BY RF-SCORE:    0.00 PKD
ROOT
HETATM    1  C   UNL     1      -9.977  11.941  66.843  1.00  0.00    -0.219 C  
HETATM    2  C   UNL     1      -9.838  10.899  67.676  1.00  0.00    -0.192 C  
ENDROOT
BRANCH   1   3
HETATM    3  C   UNL     1     -11.010  12.089  65.760  1.00  0.00    -0.351 C  
BRANCH   3   4
HETATM    4  C   UNL     1     -12.080  13.115  66.137  1.00  0.00    -0.479 C  
BRANCH   4   5
HETATM    5  C   UNL     1     -11.683  14.537  65.739  1.00  0.00    -0.344 C  
HETATM    6  O   UNL     1     -11.807  16.151  63.998  1.00  0.00    -0.876 OA 
HETATM    7  C   UNL     1     -12.146  14.888  64.347  1.00  0.00    -0.401 C  
HETATM    8  O   UNL     1     -12.767  14.147  63.601  1.00  0.00    -0.790 OA 
ENDBRANCH   4   5
ENDBRANCH   3   4
ENDBRANCH   1   3
BRANCH   2   9
HETATM    9  C   UNL     1     -10.648   9.631  67.662  1.00  0.00    -0.334 C  
BRANCH   9  10
HETATM   10  C   UNL     1     -11.186   9.160  69.023  1.00  0.00     0.181 C  
HETATM   11  H   UNL     1      -8.942  10.031  72.078  1.00  0.00     0.000 HD 
HETATM   12  C   UNL     1     -10.608   7.789  69.409  1.00  0.00    -0.208 C  
HETATM   13  O   UNL     1      -9.153   9.160  71.762  1.00  0.00    -0.346 OA 
HETATM   14  O   UNL     1      -9.197   7.738  69.207  1.00  0.00    -0.146 OA 
HETATM   15  C   UNL     1     -10.878   7.697  70.901  1.00  0.00    -0.250 C  
HETATM   16  C   UNL     1     -10.818  10.066  70.230  1.00  0.00    -0.370 C  
HETATM   17  H   UNL     1      -8.840   6.890  69.445  1.00  0.00     0.000 HD 
HETATM   18  C   UNL     1     -10.538   9.098  71.409  1.00  0.00    -0.341 C  
BRANCH  16  19
HETATM   19  C   UNL     1     -11.873  11.096  70.560  1.00  0.00    -0.448 C  
HETATM   20  C   UNL     1     -11.880  12.367  70.122  1.00  0.00    -0.341 C  
BRANCH  20  21
HETATM   21  C   UNL     1     -12.883  13.424  70.496  1.00  0.00    -0.024 C  
HETATM   22  O   UNL     1     -13.127  13.398  71.898  1.00  0.00    -0.373 OA 
HETATM   23  H   UNL     1     -13.760  14.065  72.134  1.00  0.00     0.000 HD 
BRANCH  21  24
HETATM   24  C   UNL     1     -12.398  14.827  70.116  1.00  0.00    -0.381 C  
BRANCH  24  25
HETATM   25  C   UNL     1     -11.125  14.866  69.262  1.00  0.00    -0.284 C  
BRANCH  25  26
HETATM   26  C   UNL     1      -9.999  15.673  69.908  1.00  0.00    -0.235 C  
BRANCH  26  27
HETATM   27  C   UNL     1      -9.358  16.638  68.914  1.00  0.00    -0.244 C  
HETATM   28  C   UNL     1     -10.359  17.072  67.856  1.00  0.00    -0.338 C  
ENDBRANCH  26  27
ENDBRANCH  25  26
ENDBRANCH  24  25
ENDBRANCH  21  24
ENDBRANCH  20  21
ENDBRANCH  16  19
ENDBRANCH   9  10
ENDBRANCH   2   9
TORSDOF 11
ENDMDL
MODEL       98
REMARK 921   NORMALIZED FREE ENERGY PREDICTED BY IDOCK:   -4.68 KCAL/MOL
REMARK 922        TOTAL FREE ENERGY PREDICTED BY IDOCK:  -10.09 KCAL/MOL
REMARK 923 INTER-LIGAND FREE ENERGY PREDICTED BY IDOCK:   -7.69 KCAL/MOL
REMARK 924 INTRA-LIGAND FREE ENERGY PREDICTED BY IDOCK:   -2.40 KCAL/MOL
REMARK 927      BINDING AFFINITY PREDICTED BY RF-SCORE:    0.00 PKD
ROOT
HETATM    1  C   UNL     1      -8.418  14.127  68.511  1.00  0.00    -0.157 C  
HETATM    2  C   UNL     1      -8.364  13.609  67.274  1.00  0.00    -0.182 C  
ENDROOT
BRANCH   1   3
HETATM    3  C   UNL     1      -9.420  15.127  69.019  1.00  0.00    -0.221 C  
BRANCH   3   4
HETATM    4  C   UNL     1      -9.061  16.551  68.593  1.00  0.00    -0.239 C  
BRANCH   4   5
HETATM    5  C   UNL     1     -10.159  17.194  67.744  1.00  0.00    -0.306 C  
HETATM    6  O   UNL     1     -10.635  18.134  65.613  1.00  0.00    -0.611 OA 
HETATM    7  C   UNL     1      -9.663  17.577  66.372  1.00  0.00    -0.288 C  
HETATM    8  O   UNL     1      -8.526  17.408  65.958  1.00  0.00    -0.503 OA 
ENDBRANCH   4   5
ENDBRANCH   3   4
ENDBRANCH   1   3
BRANCH   2   9
HETATM    9  C   UNL     1      -9.258  13.967  66.118  1.00  0.00    -0.062 C  
BRANCH   9  10
HETATM   10  C   UNL     1     -10.576  13.182  66.017  1.00  0.00    -0.291 C  
HETATM   11  H   UNL     1     -11.925  12.673  62.405  1.00  0.00     0.000 HD 
HETATM   12  C   UNL     1     -11.788  14.127  65.982  1.00  0.00    -0.398 C  
HETATM   13  O   UNL     1     -12.344  13.167  63.100  1.00  0.00    -0.677 OA 
HETATM   14  O   UNL     1     -11.591  15.201  65.064  1.00  0.00    -0.354 OA 
HETATM   15  C   UNL     1     -12.908  13.247  65.452  1.00  0.00    -0.340 C  
HETATM   16  C   UNL     1     -10.741  12.326  64.732  1.00  0.00    -0.338 C  
HETATM   17  H   UNL     1     -12.341  15.785  65.043  1.00  0.00     0.000 HD 
HETATM   18  C   UNL     1     -12.235  12.452  64.334  1.00  0.00    -0.437 C  
BRANCH  16  19
HETATM   19  C   UNL     1     -10.302  10.890  64.899  1.00  0.00    -0.371 C  
HETATM   20  C   UNL     1     -10.502  10.140  65.998  1.00  0.00    -0.165 C  
BRANCH  20  21
HETATM   21  C   UNL     1     -10.011   8.734  66.207  1.00  0.00    -0.245 C  
HETATM   22  O   UNL     1      -9.071   8.385  65.198  1.00  0.00    -0.413 OA 
HETATM   23  H   UNL     1      -8.761   7.497  65.330  1.00  0.00     0.000 HD 
BRANCH  21  24
HETATM   24  C   UNL     1      -9.336   8.566  67.574  1.00  0.00    -0.169 C  
BRANCH  24  25
HETATM   25  C   UNL     1      -8.416   9.720  67.990  1.00  0.00    -0.118 C  
BRANCH  25  26
HETATM   26  C   UNL     1      -8.945  10.498  69.194  1.00  0.00    -0.171 C  
BRANCH  26  27
HETATM   27  C   UNL     1     -10.083   9.754  69.889  1.00  0.00    -0.288 C  
HETATM   28  C   UNL     1      -9.613   9.151  71.203  1.00  0.00    -0.347 C  
ENDBRANCH  26  27
ENDBRANCH  25  26
ENDBRANCH  24  25
ENDBRANCH  21  24
ENDBRANCH  20  21
ENDBRANCH  16  19
ENDBRANCH   9  10
ENDBRANCH   2   9
TORSDOF 11
ENDMDL
MODEL       99
REMARK 921   NORMALIZED FREE ENERGY PREDICTED BY IDOCK:   -4.68 KCAL/MOL
REMARK 922        TOTAL FREE ENERGY PREDICTED BY IDOCK:  -10.08 KCAL/MOL
REMARK 923 INTER-LIGAND FREE ENERGY PREDICTED BY IDOCK:   -8.61 KCAL/MOL
REMARK 924 INTRA-LIGAND FREE ENERGY PREDICTED BY IDOCK:   -1.47 KCAL/MOL
REMARK 927      BINDING AFFINITY PREDICTED BY RF-SCORE:    0.00 PKD
ROOT
HETATM    1  C   UNL     1      -9.783  10.509  67.025  1.00  0.00    -0.212 C  
HETATM    2  C   UNL     1      -9.560  10.594  65.705  1.00  0.00    -0.268 C  
ENDROOT
BRANCH   1   3
HETATM    3  C   UNL     1     -11.123  10.517  67.708  1.00  0.00    -0.382 C  
BRANCH   3   4
HETATM    4  C   UNL     1     -11.120  11.414  68.947  1.00  0.00    -0.290 C  
BRANCH   4   5
HETATM    5  C   UNL     1     -12.095  10.923  70.017  1.00  0.00    -0.433 C  
HETATM    6  O   UNL     1     -12.328   9.467  71.881  1.00  0.00    -0.359 OA 
HETATM    7  C   UNL     1     -11.471   9.893  70.925  1.00  0.00    -0.376 C  
HETATM    8  O   UNL     1     -10.325   9.478  70.841  1.00  0.00    -0.291 OA 
ENDBRANCH   4   5
ENDBRANCH   3   4
ENDBRANCH   1   3
BRANCH   2   9
HETATM    9  C   UNL     1     -10.601  10.776  64.634  1.00  0.00    -0.269 C  
BRANCH   9  10
HETATM   10  C   UNL     1     -10.849  12.221  64.174  1.00  0.00    -0.412 C  
HETATM   11  H   UNL     1     -13.176  14.315  66.482  1.00  0.00     0.000 HD 
HETATM   12  C   UNL     1     -12.133  12.330  63.336  1.00  0.00    -0.516 C  
HETATM   13  O   UNL     1     -13.350  14.064  65.582  1.00  0.00    -0.636 OA 
HETATM   14  O   UNL     1     -13.221  11.640  63.949  1.00  0.00    -0.382 OA 
HETATM   15  C   UNL     1     -12.444  13.817  63.353  1.00  0.00     0.067 C  
HETATM   16  C   UNL     1     -11.068  13.252  65.315  1.00  0.00    -0.306 C  
HETATM   17  H   UNL     1     -14.015  11.707  63.431  1.00  0.00     0.000 HD 
HETATM   18  C   UNL     1     -12.163  14.221  64.799  1.00  0.00    -0.443 C  
BRANCH  16  19
HETATM   19  C   UNL     1      -9.806  13.969  65.735  1.00  0.00    -0.280 C  
HETATM   20  C   UNL     1      -9.547  14.421  66.976  1.00  0.00    -0.251 C  
BRANCH  20  21
HETATM   21  C   UNL     1      -8.329  15.198  67.395  1.00  0.00    -0.186 C  
HETATM   22  O   UNL     1      -7.147  14.499  67.021  1.00  0.00    -0.359 OA 
HETATM   23  H   UNL     1      -6.378  14.989  67.285  1.00  0.00     0.000 HD 
BRANCH  21  24
HETATM   24  C   UNL     1      -8.293  16.588  66.751  1.00  0.00    -0.274 C  
BRANCH  24  25
HETATM   25  C   UNL     1      -9.624  17.349  66.773  1.00  0.00    -0.283 C  
BRANCH  25  26
HETATM   26  C   UNL     1      -9.934  17.967  68.136  1.00  0.00    -0.350 C  
BRANCH  26  27
HETATM   27  C   UNL     1     -10.331  19.436  68.010  1.00  0.00    -0.536 C  
HETATM   28  C   UNL     1     -10.619  19.798  66.562  1.00  0.00    -0.580 C  
ENDBRANCH  26  27
ENDBRANCH  25  26
ENDBRANCH  24  25
ENDBRANCH  21  24
ENDBRANCH  20  21
ENDBRANCH  16  19
ENDBRANCH   9  10
ENDBRANCH   2   9
TORSDOF 11
ENDMDL
MODEL      100
REMARK 921   NORMALIZED FREE ENERGY PREDICTED BY IDOCK:   -4.68 KCAL/MOL
REMARK 922        TOTAL FREE ENERGY PREDICTED BY IDOCK:  -10.08 KCAL/MOL
REMARK 923 INTER-LIGAND FREE ENERGY PREDICTED BY IDOCK:   -8.86 KCAL/MOL
REMARK 924 INTRA-LIGAND FREE ENERGY PREDICTED BY IDOCK:   -1.22 KCAL/MOL
REMARK 927      BINDING AFFINITY PREDICTED BY RF-SCORE:    0.00 PKD
ROOT
HETATM    1  C   UNL     1     -10.394  14.974  68.875  1.00  0.00    -0.244 C  
HETATM    2  C   UNL     1     -10.700  14.256  67.784  1.00  0.00    -0.253 C  
ENDROOT
BRANCH   1   3
HETATM    3  C   UNL     1     -11.208  16.091  69.468  1.00  0.00    -0.348 C  
BRANCH   3   4
HETATM    4  C   UNL     1     -12.206  15.574  70.505  1.00  0.00    -0.444 C  
BRANCH   4   5
HETATM    5  C   UNL     1     -11.851  16.023  71.923  1.00  0.00    -0.619 C  
HETATM    6  O   UNL     1     -12.695  16.254  74.133  1.00  0.00    -0.679 OA 
HETATM    7  C   UNL     1     -13.010  15.869  72.875  1.00  0.00    -0.499 C  
HETATM    8  O   UNL     1     -14.115  15.439  72.580  1.00  0.00    -0.527 OA 
ENDBRANCH   4   5
ENDBRANCH   3   4
ENDBRANCH   1   3
BRANCH   2   9
HETATM    9  C   UNL     1     -11.891  14.460  66.887  1.00  0.00    -0.433 C  
BRANCH   9  10
HETATM   10  C   UNL     1     -12.227  13.297  65.940  1.00  0.00    -0.497 C  
HETATM   11  H   UNL     1      -9.213  11.870  63.939  1.00  0.00     0.000 HD 
HETATM   12  C   UNL     1     -12.510  13.800  64.515  1.00  0.00    -0.285 C  
HETATM   13  O   UNL     1      -9.976  12.305  63.577  1.00  0.00    -0.388 OA 
HETATM   14  O   UNL     1     -11.524  14.735  64.082  1.00  0.00    -0.624 OA 
HETATM   15  C   UNL     1     -12.382  12.547  63.664  1.00  0.00    -0.618 C  
HETATM   16  C   UNL     1     -11.093  12.254  65.742  1.00  0.00    -0.362 C  
HETATM   17  H   UNL     1     -11.699  15.046  63.202  1.00  0.00     0.000 HD 
HETATM   18  C   UNL     1     -11.154  11.848  64.247  1.00  0.00    -0.356 C  
BRANCH  16  19
HETATM   19  C   UNL     1     -11.191  11.067  66.673  1.00  0.00    -0.124 C  
HETATM   20  C   UNL     1     -10.301  10.061  66.743  1.00  0.00    -0.283 C  
BRANCH  20  21
HETATM   21  C   UNL     1     -10.418   8.839  67.612  1.00  0.00    -0.244 C  
HETATM   22  O   UNL     1      -9.376   7.918  67.311  1.00  0.00    -0.140 OA 
HETATM   23  H   UNL     1      -9.450   7.146  67.859  1.00  0.00     0.000 HD 
BRANCH  21  24
HETATM   24  C   UNL     1     -10.335   9.192  69.101  1.00  0.00    -0.223 C  
BRANCH  24  25
HETATM   25  C   UNL     1      -9.166  10.104  69.489  1.00  0.00    -0.223 C  
BRANCH  25  26
HETATM   26  C   UNL     1      -8.121   9.398  70.351  1.00  0.00    -0.197 C  
BRANCH  26  27
HETATM   27  C   UNL     1      -6.829  10.209  70.444  1.00  0.00    -0.129 C  
HETATM   28  C   UNL     1      -6.794  11.297  69.384  1.00  0.00    -0.121 C  
ENDBRANCH  26  27
ENDBRANCH  25  26
ENDBRANCH  24  25
ENDBRANCH  21  24
ENDBRANCH  20  21
ENDBRANCH  16  19
ENDBRANCH   9  10
ENDBRANCH   2   9
TORSDOF 11
ENDMDL
MODEL      101
REMARK 921   NORMALIZED FREE ENERGY PREDICTED BY IDOCK:   -4.67 KCAL/MOL
REMARK 922        TOTAL FREE ENERGY PREDICTED BY IDOCK:  -10.07 KCAL/MOL
REMARK 923 INTER-LIGAND FREE ENERGY PREDICTED BY IDOCK:   -8.30 KCAL/MOL
REMARK 924 INTRA-LIGAND FREE ENERGY PREDICTED BY IDOCK:   -1.78 KCAL/MOL
REMARK 927      BINDING AFFINITY PREDICTED BY RF-SCORE:    0.00 PKD
ROOT
HETATM    1  C   UNL     1      -8.869  10.001  66.422  1.00  0.00    -0.158 C  
HETATM    2  C   UNL     1      -8.704  10.593  65.230  1.00  0.00    -0.198 C  
ENDROOT
BRANCH   1   3
HETATM    3  C   UNL     1     -10.135   9.381  66.947  1.00  0.00    -0.314 C  
BRANCH   3   4
HETATM    4  C   UNL     1     -10.288   9.598  68.453  1.00  0.00    -0.233 C  
BRANCH   4   5
HETATM    5  C   UNL     1     -10.181  11.074  68.838  1.00  0.00    -0.218 C  
HETATM    6  O   UNL     1     -11.443  13.034  69.304  1.00  0.00    -0.274 OA 
HETATM    7  C   UNL     1     -11.534  11.731  68.950  1.00  0.00    -0.297 C  
HETATM    8  O   UNL     1     -12.607  11.178  68.762  1.00  0.00    -0.345 OA 
ENDBRANCH   4   5
ENDBRANCH   3   4
ENDBRANCH   1   3
BRANCH   2   9
HETATM    9  C   UNL     1      -9.769  10.817  64.191  1.00  0.00    -0.364 C  
BRANCH   9  10
HETATM   10  C   UNL     1     -10.322  12.248  64.091  1.00  0.00    -0.396 C  
HETATM   11  H   UNL     1     -13.437  12.975  66.304  1.00  0.00     0.000 HD 
HETATM   12  C   UNL     1     -11.451  12.340  63.051  1.00  0.00     0.021 C  
HETATM   13  O   UNL     1     -13.403  12.987  65.355  1.00  0.00    -0.420 OA 
HETATM   14  O   UNL     1     -12.394  11.280  63.204  1.00  0.00    -0.795 OA 
HETATM   15  C   UNL     1     -12.145  13.647  63.396  1.00  0.00    -0.246 C  
HETATM   16  C   UNL     1     -10.974  12.799  65.389  1.00  0.00    -0.313 C  
HETATM   17  H   UNL     1     -13.092  11.337  62.561  1.00  0.00     0.000 HD 
HETATM   18  C   UNL     1     -12.199  13.627  64.923  1.00  0.00    -0.414 C  
BRANCH  16  19
HETATM   19  C   UNL     1     -10.025  13.597  66.252  1.00  0.00    -0.305 C  
HETATM   20  C   UNL     1      -9.636  14.863  66.013  1.00  0.00    -0.346 C  
BRANCH  20  21
HETATM   21  C   UNL     1      -8.640  15.648  66.821  1.00  0.00    -0.274 C  
HETATM   22  O   UNL     1      -7.325  15.151  66.599  1.00  0.00    -0.261 OA 
HETATM   23  H   UNL     1      -6.696  15.647  67.110  1.00  0.00     0.000 HD 
BRANCH  21  24
HETATM   24  C   UNL     1      -8.662  17.137  66.458  1.00  0.00    -0.293 C  
BRANCH  24  25
HETATM   25  C   UNL     1     -10.059  17.752  66.320  1.00  0.00    -0.345 C  
BRANCH  25  26
HETATM   26  C   UNL     1     -10.647  18.200  67.658  1.00  0.00    -0.424 C  
BRANCH  26  27
HETATM   27  C   UNL     1      -9.921  19.426  68.208  1.00  0.00    -0.516 C  
HETATM   28  C   UNL     1      -9.860  20.532  67.168  1.00  0.00    -0.567 C  
ENDBRANCH  26  27
ENDBRANCH  25  26
ENDBRANCH  24  25
ENDBRANCH  21  24
ENDBRANCH  20  21
ENDBRANCH  16  19
ENDBRANCH   9  10
ENDBRANCH   2   9
TORSDOF 11
ENDMDL
MODEL      102
REMARK 921   NORMALIZED FREE ENERGY PREDICTED BY IDOCK:   -4.66 KCAL/MOL
REMARK 922        TOTAL FREE ENERGY PREDICTED BY IDOCK:  -10.05 KCAL/MOL
REMARK 923 INTER-LIGAND FREE ENERGY PREDICTED BY IDOCK:   -8.60 KCAL/MOL
REMARK 924 INTRA-LIGAND FREE ENERGY PREDICTED BY IDOCK:   -1.45 KCAL/MOL
REMARK 927      BINDING AFFINITY PREDICTED BY RF-SCORE:    0.00 PKD
ROOT
HETATM    1  C   UNL     1     -11.117  15.175  67.672  1.00  0.00    -0.318 C  
HETATM    2  C   UNL     1     -12.030  14.265  67.300  1.00  0.00    -0.439 C  
ENDROOT
BRANCH   1   3
HETATM    3  C   UNL     1     -10.530  16.259  66.810  1.00  0.00    -0.287 C  
BRANCH   3   4
HETATM    4  C   UNL     1      -9.290  15.773  66.059  1.00  0.00    -0.384 C  
BRANCH   4   5
HETATM    5  C   UNL     1      -8.006  15.995  66.859  1.00  0.00    -0.283 C  
HETATM    6  O   UNL     1      -6.156  17.459  67.156  1.00  0.00    -0.124 OA 
HETATM    7  C   UNL     1      -7.287  17.253  66.440  1.00  0.00    -0.301 C  
HETATM    8  O   UNL     1      -7.658  18.024  65.569  1.00  0.00    -0.530 OA 
ENDBRANCH   4   5
ENDBRANCH   3   4
ENDBRANCH   1   3
BRANCH   2   9
HETATM    9  C   UNL     1     -12.613  14.100  65.923  1.00  0.00    -0.447 C  
BRANCH   9  10
HETATM   10  C   UNL     1     -12.397  12.729  65.260  1.00  0.00    -0.546 C  
HETATM   11  H   UNL     1      -8.959  12.268  63.501  1.00  0.00     0.000 HD 
HETATM   12  C   UNL     1     -12.781  12.760  63.772  1.00  0.00    -0.180 C  
HETATM   13  O   UNL     1      -9.812  12.267  63.083  1.00  0.00    -0.373 OA 
HETATM   14  O   UNL     1     -12.237  13.902  63.112  1.00  0.00    -1.071 OA 
HETATM   15  C   UNL     1     -12.110  11.520  63.206  1.00  0.00    -0.075 C  
HETATM   16  C   UNL     1     -10.928  12.223  65.249  1.00  0.00    -0.347 C  
HETATM   17  H   UNL     1     -12.475  13.921  62.193  1.00  0.00     0.000 HD 
HETATM   18  C   UNL     1     -10.738  11.522  63.879  1.00  0.00    -0.395 C  
BRANCH  16  19
HETATM   19  C   UNL     1     -10.586  11.325  66.415  1.00  0.00    -0.316 C  
HETATM   20  C   UNL     1      -9.658  11.590  67.352  1.00  0.00    -0.177 C  
BRANCH  20  21
HETATM   21  C   UNL     1      -9.257  10.678  68.479  1.00  0.00    -0.170 C  
HETATM   22  O   UNL     1      -8.193  11.256  69.226  1.00  0.00    -0.368 OA 
HETATM   23  H   UNL     1      -7.940  10.681  69.938  1.00  0.00     0.000 HD 
BRANCH  21  24
HETATM   24  C   UNL     1     -10.426  10.406  69.433  1.00  0.00    -0.261 C  
BRANCH  24  25
HETATM   25  C   UNL     1     -10.861   8.939  69.526  1.00  0.00    -0.163 C  
BRANCH  25  26
HETATM   26  C   UNL     1     -10.344   8.244  70.784  1.00  0.00    -0.221 C  
BRANCH  26  27
HETATM   27  C   UNL     1     -11.374   8.281  71.911  1.00  0.00    -0.372 C  
HETATM   28  C   UNL     1     -10.846   7.581  73.152  1.00  0.00    -0.448 C  
ENDBRANCH  26  27
ENDBRANCH  25  26
ENDBRANCH  24  25
ENDBRANCH  21  24
ENDBRANCH  20  21
ENDBRANCH  16  19
ENDBRANCH   9  10
ENDBRANCH   2   9
TORSDOF 11
ENDMDL
MODEL      103
REMARK 921   NORMALIZED FREE ENERGY PREDICTED BY IDOCK:   -4.64 KCAL/MOL
REMARK 922        TOTAL FREE ENERGY PREDICTED BY IDOCK:  -10.02 KCAL/MOL
REMARK 923 INTER-LIGAND FREE ENERGY PREDICTED BY IDOCK:   -8.51 KCAL/MOL
REMARK 924 INTRA-LIGAND FREE ENERGY PREDICTED BY IDOCK:   -1.51 KCAL/MOL
REMARK 927      BINDING AFFINITY PREDICTED BY RF-SCORE:    0.00 PKD
ROOT
HETATM    1  C   UNL     1      -8.346  15.689  68.814  1.00  0.00    -0.189 C  
HETATM    2  C   UNL     1      -8.769  14.504  68.349  1.00  0.00    -0.175 C  
ENDROOT
BRANCH   1   3
HETATM    3  C   UNL     1      -8.175  16.953  68.018  1.00  0.00    -0.203 C  
BRANCH   3   4
HETATM    4  C   UNL     1      -9.306  17.947  68.287  1.00  0.00    -0.287 C  
BRANCH   4   5
HETATM    5  C   UNL     1     -10.223  18.120  67.075  1.00  0.00    -0.373 C  
HETATM    6  O   UNL     1     -10.936  19.659  65.410  1.00  0.00    -0.438 OA 
HETATM    7  C   UNL     1     -10.135  19.507  66.491  1.00  0.00    -0.439 C  
HETATM    8  O   UNL     1      -9.426  20.408  66.911  1.00  0.00    -0.386 OA 
ENDBRANCH   4   5
ENDBRANCH   3   4
ENDBRANCH   1   3
BRANCH   2   9
HETATM    9  C   UNL     1      -9.103  14.175  66.919  1.00  0.00    -0.260 C  
BRANCH   9  10
HETATM   10  C   UNL     1     -10.600  14.111  66.574  1.00  0.00    -0.282 C  
HETATM   11  H   UNL     1     -11.754  10.841  64.815  1.00  0.00     0.000 HD 
HETATM   12  C   UNL     1     -10.863  14.586  65.136  1.00  0.00    -0.395 C  
HETATM   13  O   UNL     1     -11.770  11.716  64.446  1.00  0.00    -0.257 OA 
HETATM   14  O   UNL     1      -9.952  13.996  64.212  1.00  0.00    -0.668 OA 
HETATM   15  C   UNL     1     -12.255  14.054  64.836  1.00  0.00    -0.455 C  
HETATM   16  C   UNL     1     -11.229  12.692  66.613  1.00  0.00    -0.346 C  
HETATM   17  H   UNL     1     -10.115  14.289  63.323  1.00  0.00     0.000 HD 
HETATM   18  C   UNL     1     -12.231  12.646  65.430  1.00  0.00    -0.459 C  
BRANCH  16  19
HETATM   19  C   UNL     1     -11.874  12.350  67.936  1.00  0.00    -0.370 C  
HETATM   20  C   UNL     1     -11.357  11.519  68.859  1.00  0.00    -0.331 C  
BRANCH  20  21
HETATM   21  C   UNL     1     -12.017  11.114  70.149  1.00  0.00    -0.365 C  
HETATM   22  O   UNL     1     -13.290  10.534  69.890  1.00  0.00    -0.417 OA 
HETATM   23  H   UNL     1     -13.707  10.277  70.704  1.00  0.00     0.000 HD 
BRANCH  21  24
HETATM   24  C   UNL     1     -11.171  10.096  70.923  1.00  0.00    -0.383 C  
BRANCH  24  25
HETATM   25  C   UNL     1     -11.678   8.650  70.864  1.00  0.00    -0.287 C  
BRANCH  25  26
HETATM   26  C   UNL     1     -10.677   7.694  70.217  1.00  0.00    -0.244 C  
BRANCH  26  27
HETATM   27  C   UNL     1     -10.292   8.151  68.811  1.00  0.00    -0.220 C  
HETATM   28  C   UNL     1     -10.512   7.037  67.801  1.00  0.00    -0.282 C  
ENDBRANCH  26  27
ENDBRANCH  25  26
ENDBRANCH  24  25
ENDBRANCH  21  24
ENDBRANCH  20  21
ENDBRANCH  16  19
ENDBRANCH   9  10
ENDBRANCH   2   9
TORSDOF 11
ENDMDL
MODEL      104
REMARK 921   NORMALIZED FREE ENERGY PREDICTED BY IDOCK:   -4.64 KCAL/MOL
REMARK 922        TOTAL FREE ENERGY PREDICTED BY IDOCK:  -10.02 KCAL/MOL
REMARK 923 INTER-LIGAND FREE ENERGY PREDICTED BY IDOCK:   -8.46 KCAL/MOL
REMARK 924 INTRA-LIGAND FREE ENERGY PREDICTED BY IDOCK:   -1.55 KCAL/MOL
REMARK 927      BINDING AFFINITY PREDICTED BY RF-SCORE:    0.00 PKD
ROOT
HETATM    1  C   UNL     1      -9.869  15.348  67.320  1.00  0.00    -0.217 C  
HETATM    2  C   UNL     1     -10.702  14.383  67.738  1.00  0.00    -0.248 C  
ENDROOT
BRANCH   1   3
HETATM    3  C   UNL     1      -9.907  16.797  67.718  1.00  0.00    -0.257 C  
BRANCH   3   4
HETATM    4  C   UNL     1      -9.642  17.717  66.525  1.00  0.00    -0.315 C  
BRANCH   4   5
HETATM    5  C   UNL     1      -8.374  18.552  66.710  1.00  0.00    -0.279 C  
HETATM    6  O   UNL     1      -7.551  20.663  67.430  1.00  0.00    -0.335 OA 
HETATM    7  C   UNL     1      -8.674  19.926  67.253  1.00  0.00    -0.333 C  
HETATM    8  O   UNL     1      -9.786  20.354  67.524  1.00  0.00    -0.409 OA 
ENDBRANCH   4   5
ENDBRANCH   3   4
ENDBRANCH   1   3
BRANCH   2   9
HETATM    9  C   UNL     1     -11.888  14.561  68.647  1.00  0.00    -0.355 C  
BRANCH   9  10
HETATM   10  C   UNL     1     -11.674  14.169  70.118  1.00  0.00    -0.350 C  
HETATM   11  H   UNL     1     -14.897  13.147  72.041  1.00  0.00     0.000 HD 
HETATM   12  C   UNL     1     -11.894  15.369  71.054  1.00  0.00    -0.360 C  
HETATM   13  O   UNL     1     -14.344  13.897  72.224  1.00  0.00    -0.576 OA 
HETATM   14  O   UNL     1     -13.090  16.077  70.730  1.00  0.00    -0.581 OA 
HETATM   15  C   UNL     1     -12.079  14.725  72.418  1.00  0.00    -0.340 C  
HETATM   16  C   UNL     1     -12.652  13.093  70.666  1.00  0.00    -0.286 C  
HETATM   17  H   UNL     1     -13.225  16.818  71.308  1.00  0.00     0.000 HD 
HETATM   18  C   UNL     1     -12.968  13.519  72.123  1.00  0.00    -0.311 C  
BRANCH  16  19
HETATM   19  C   UNL     1     -12.115  11.683  70.574  1.00  0.00    -0.458 C  
HETATM   20  C   UNL     1     -11.253  11.241  69.641  1.00  0.00    -0.321 C  
BRANCH  20  21
HETATM   21  C   UNL     1     -10.763   9.826  69.493  1.00  0.00    -0.233 C  
HETATM   22  O   UNL     1     -11.736   8.914  69.988  1.00  0.00    -0.462 OA 
HETATM   23  H   UNL     1     -11.427   8.021  69.894  1.00  0.00     0.000 HD 
BRANCH  21  24
HETATM   24  C   UNL     1     -10.473   9.477  68.029  1.00  0.00    -0.279 C  
BRANCH  24  25
HETATM   25  C   UNL     1     -11.023  10.473  67.002  1.00  0.00    -0.247 C  
BRANCH  25  26
HETATM   26  C   UNL     1     -10.342  10.360  65.639  1.00  0.00    -0.260 C  
BRANCH  26  27
HETATM   27  C   UNL     1     -10.070  11.735  65.031  1.00  0.00    -0.302 C  
HETATM   28  C   UNL     1     -11.361  12.519  64.864  1.00  0.00    -0.351 C  
ENDBRANCH  26  27
ENDBRANCH  25  26
ENDBRANCH  24  25
ENDBRANCH  21  24
ENDBRANCH  20  21
ENDBRANCH  16  19
ENDBRANCH   9  10
ENDBRANCH   2   9
TORSDOF 11
ENDMDL
MODEL      105
REMARK 921   NORMALIZED FREE ENERGY PREDICTED BY IDOCK:   -4.63 KCAL/MOL
REMARK 922        TOTAL FREE ENERGY PREDICTED BY IDOCK:  -10.00 KCAL/MOL
REMARK 923 INTER-LIGAND FREE ENERGY PREDICTED BY IDOCK:   -8.07 KCAL/MOL
REMARK 924 INTRA-LIGAND FREE ENERGY PREDICTED BY IDOCK:   -1.94 KCAL/MOL
REMARK 927      BINDING AFFINITY PREDICTED BY RF-SCORE:    0.00 PKD
ROOT
HETATM    1  C   UNL     1     -11.012   6.163  68.224  1.00  0.00    -0.397 C  
HETATM    2  C   UNL     1     -10.980   6.916  67.114  1.00  0.00    -0.427 C  
ENDROOT
BRANCH   1   3
HETATM    3  C   UNL     1      -9.925   6.043  69.256  1.00  0.00    -0.207 C  
BRANCH   3   4
HETATM    4  C   UNL     1     -10.116   7.042  70.398  1.00  0.00    -0.198 C  
BRANCH   4   5
HETATM    5  C   UNL     1     -11.570   7.113  70.866  1.00  0.00    -0.350 C  
HETATM    6  O   UNL     1     -13.105   8.360  72.185  1.00  0.00    -0.339 OA 
HETATM    7  C   UNL     1     -11.816   8.287  71.779  1.00  0.00    -0.306 C  
HETATM    8  O   UNL     1     -10.975   9.104  72.124  1.00  0.00    -0.300 OA 
ENDBRANCH   4   5
ENDBRANCH   3   4
ENDBRANCH   1   3
BRANCH   2   9
HETATM    9  C   UNL     1      -9.823   7.751  66.637  1.00  0.00    -0.295 C  
BRANCH   9  10
HETATM   10  C   UNL     1      -9.921   9.260  66.917  1.00  0.00    -0.298 C  
HETATM   11  H   UNL     1      -6.973  11.391  65.540  1.00  0.00     0.000 HD 
HETATM   12  C   UNL     1      -9.163   9.641  68.199  1.00  0.00    -0.125 C  
HETATM   13  O   UNL     1      -7.203  11.269  66.453  1.00  0.00    -0.126 OA 
HETATM   14  O   UNL     1      -7.866   9.048  68.239  1.00  0.00    -0.098 OA 
HETATM   15  C   UNL     1      -8.993  11.147  68.077  1.00  0.00    -0.149 C  
HETATM   16  C   UNL     1      -9.292  10.178  65.833  1.00  0.00    -0.224 C  
HETATM   17  H   UNL     1      -7.398   9.284  69.031  1.00  0.00     0.000 HD 
HETATM   18  C   UNL     1      -8.623  11.343  66.607  1.00  0.00    -0.170 C  
BRANCH  16  19
HETATM   19  C   UNL     1     -10.281  10.658  64.796  1.00  0.00    -0.401 C  
HETATM   20  C   UNL     1     -10.351  11.912  64.314  1.00  0.00    -0.362 C  
BRANCH  20  21
HETATM   21  C   UNL     1     -11.372  12.424  63.335  1.00  0.00    -0.433 C  
HETATM   22  O   UNL     1     -12.313  11.403  63.025  1.00  0.00    -0.952 OA 
HETATM   23  H   UNL     1     -12.958  11.726  62.407  1.00  0.00     0.000 HD 
BRANCH  21  24
HETATM   24  C   UNL     1     -12.136  13.631  63.893  1.00  0.00    -0.462 C  
BRANCH  24  25
HETATM   25  C   UNL     1     -11.574  14.211  65.195  1.00  0.00    -0.344 C  
BRANCH  25  26
HETATM   26  C   UNL     1     -12.512  14.021  66.386  1.00  0.00    -0.395 C  
BRANCH  26  27
HETATM   27  C   UNL     1     -11.922  13.062  67.419  1.00  0.00    -0.372 C  
HETATM   28  C   UNL     1     -11.434  13.818  68.644  1.00  0.00    -0.336 C  
ENDBRANCH  26  27
ENDBRANCH  25  26
ENDBRANCH  24  25
ENDBRANCH  21  24
ENDBRANCH  20  21
ENDBRANCH  16  19
ENDBRANCH   9  10
ENDBRANCH   2   9
TORSDOF 11
ENDMDL
MODEL      106
REMARK 921   NORMALIZED FREE ENERGY PREDICTED BY IDOCK:   -4.63 KCAL/MOL
REMARK 922        TOTAL FREE ENERGY PREDICTED BY IDOCK:  -10.00 KCAL/MOL
REMARK 923 INTER-LIGAND FREE ENERGY PREDICTED BY IDOCK:   -7.36 KCAL/MOL
REMARK 924 INTRA-LIGAND FREE ENERGY PREDICTED BY IDOCK:   -2.64 KCAL/MOL
REMARK 927      BINDING AFFINITY PREDICTED BY RF-SCORE:    0.00 PKD
ROOT
HETATM    1  C   UNL     1     -12.272  12.496  65.028  1.00  0.00    -0.519 C  
HETATM    2  C   UNL     1     -12.218  13.362  66.051  1.00  0.00    -0.491 C  
ENDROOT
BRANCH   1   3
HETATM    3  C   UNL     1     -11.696  12.698  63.653  1.00  0.00    -0.597 C  
BRANCH   3   4
HETATM    4  C   UNL     1     -10.337  12.012  63.503  1.00  0.00    -0.492 C  
BRANCH   4   5
HETATM    5  C   UNL     1     -10.251  10.718  64.313  1.00  0.00    -0.422 C  
HETATM    6  O   UNL     1      -8.837   8.889  64.868  1.00  0.00    -0.186 OA 
HETATM    7  C   UNL     1      -8.921  10.029  64.142  1.00  0.00    -0.236 C  
HETATM    8  O   UNL     1      -8.000  10.430  63.446  1.00  0.00    -0.154 OA 
ENDBRANCH   4   5
ENDBRANCH   3   4
ENDBRANCH   1   3
BRANCH   2   9
HETATM    9  C   UNL     1     -11.623  14.744  66.019  1.00  0.00    -0.286 C  
BRANCH   9  10
HETATM   10  C   UNL     1     -10.101  14.826  66.221  1.00  0.00    -0.299 C  
HETATM   11  H   UNL     1      -8.963  16.401  69.590  1.00  0.00     0.000 HD 
HETATM   12  C   UNL     1      -9.551  16.191  65.777  1.00  0.00    -0.257 C  
HETATM   13  O   UNL     1      -8.805  16.751  68.721  1.00  0.00    -0.252 OA 
HETATM   14  O   UNL     1     -10.340  17.266  66.285  1.00  0.00    -0.337 OA 
HETATM   15  C   UNL     1      -8.183  16.254  66.436  1.00  0.00    -0.354 C  
HETATM   16  C   UNL     1      -9.619  14.697  67.693  1.00  0.00    -0.212 C  
HETATM   17  H   UNL     1     -10.000  18.110  66.010  1.00  0.00     0.000 HD 
HETATM   18  C   UNL     1      -8.437  15.691  67.834  1.00  0.00    -0.150 C  
BRANCH  16  19
HETATM   19  C   UNL     1      -9.246  13.288  68.088  1.00  0.00    -0.212 C  
HETATM   20  C   UNL     1      -8.830  12.329  67.241  1.00  0.00    -0.190 C  
BRANCH  20  21
HETATM   21  C   UNL     1      -8.522  10.903  67.606  1.00  0.00    -0.123 C  
HETATM   22  O   UNL     1      -7.254  10.523  67.083  1.00  0.00    -0.088 OA 
HETATM   23  H   UNL     1      -7.059   9.623  67.313  1.00  0.00     0.000 HD 
BRANCH  21  24
HETATM   24  C   UNL     1      -8.498  10.698  69.125  1.00  0.00    -0.134 C  
BRANCH  24  25
HETATM   25  C   UNL     1      -9.774  10.090  69.719  1.00  0.00    -0.259 C  
BRANCH  25  26
HETATM   26  C   UNL     1     -10.932  10.046  68.723  1.00  0.00    -0.242 C  
BRANCH  26  27
HETATM   27  C   UNL     1     -12.030  11.041  69.093  1.00  0.00    -0.394 C  
HETATM   28  C   UNL     1     -12.128  11.205  70.601  1.00  0.00    -0.477 C  
ENDBRANCH  26  27
ENDBRANCH  25  26
ENDBRANCH  24  25
ENDBRANCH  21  24
ENDBRANCH  20  21
ENDBRANCH  16  19
ENDBRANCH   9  10
ENDBRANCH   2   9
TORSDOF 11
ENDMDL
MODEL      107
REMARK 921   NORMALIZED FREE ENERGY PREDICTED BY IDOCK:   -4.63 KCAL/MOL
REMARK 922        TOTAL FREE ENERGY PREDICTED BY IDOCK:  -10.00 KCAL/MOL
REMARK 923 INTER-LIGAND FREE ENERGY PREDICTED BY IDOCK:   -7.77 KCAL/MOL
REMARK 924 INTRA-LIGAND FREE ENERGY PREDICTED BY IDOCK:   -2.23 KCAL/MOL
REMARK 927      BINDING AFFINITY PREDICTED BY RF-SCORE:    0.00 PKD
ROOT
HETATM    1  C   UNL     1     -12.356  13.262  66.779  1.00  0.00    -0.239 C  
HETATM    2  C   UNL     1     -11.878  12.430  65.842  1.00  0.00    -0.467 C  
ENDROOT
BRANCH   1   3
HETATM    3  C   UNL     1     -11.567  13.922  67.876  1.00  0.00    -0.377 C  
BRANCH   3   4
HETATM    4  C   UNL     1     -10.579  14.949  67.321  1.00  0.00    -0.272 C  
BRANCH   4   5
HETATM    5  C   UNL     1     -11.263  15.989  66.433  1.00  0.00     0.158 C  
HETATM    6  O   UNL     1     -11.381  16.844  64.218  1.00  0.00    -1.202 OA 
HETATM    7  C   UNL     1     -10.767  15.934  65.009  1.00  0.00    -0.404 C  
HETATM    8  O   UNL     1      -9.920  15.163  64.585  1.00  0.00    -0.061 OA 
ENDBRANCH   4   5
ENDBRANCH   3   4
ENDBRANCH   1   3
BRANCH   2   9
HETATM    9  C   UNL     1     -10.462  11.933  65.728  1.00  0.00    -0.295 C  
BRANCH   9  10
HETATM   10  C   UNL     1     -10.197  10.524  66.283  1.00  0.00    -0.296 C  
HETATM   11  H   UNL     1      -7.497  10.329  69.076  1.00  0.00     0.000 HD 
HETATM   12  C   UNL     1      -9.020   9.850  65.557  1.00  0.00    -0.174 C  
HETATM   13  O   UNL     1      -7.447   9.933  68.214  1.00  0.00    -0.079 OA 
HETATM   14  O   UNL     1      -7.904  10.730  65.436  1.00  0.00    -0.293 OA 
HETATM   15  C   UNL     1      -8.632   8.715  66.490  1.00  0.00    -0.124 C  
HETATM   16  C   UNL     1      -9.785  10.468  67.780  1.00  0.00    -0.180 C  
HETATM   17  H   UNL     1      -7.177  10.313  64.988  1.00  0.00     0.000 HD 
HETATM   18  C   UNL     1      -8.711   9.353  67.877  1.00  0.00    -0.120 C  
BRANCH  16  19
HETATM   19  C   UNL     1     -10.946  10.242  68.720  1.00  0.00    -0.285 C  
HETATM   20  C   UNL     1     -10.987  10.627  70.008  1.00  0.00    -0.325 C  
BRANCH  20  21
HETATM   21  C   UNL     1     -12.105  10.349  70.976  1.00  0.00    -0.385 C  
HETATM   22  O   UNL     1     -13.353  10.320  70.293  1.00  0.00    -0.502 OA 
HETATM   23  H   UNL     1     -14.058  10.144  70.905  1.00  0.00     0.000 HD 
BRANCH  21  24
HETATM   24  C   UNL     1     -11.914   9.007  71.692  1.00  0.00    -0.426 C  
BRANCH  24  25
HETATM   25  C   UNL     1     -10.459   8.542  71.827  1.00  0.00    -0.370 C  
BRANCH  25  26
HETATM   26  C   UNL     1     -10.197   7.202  71.142  1.00  0.00    -0.200 C  
BRANCH  26  27
HETATM   27  C   UNL     1     -11.453   6.664  70.460  1.00  0.00    -0.432 C  
HETATM   28  C   UNL     1     -11.181   6.340  69.000  1.00  0.00    -0.415 C  
ENDBRANCH  26  27
ENDBRANCH  25  26
ENDBRANCH  24  25
ENDBRANCH  21  24
ENDBRANCH  20  21
ENDBRANCH  16  19
ENDBRANCH   9  10
ENDBRANCH   2   9
TORSDOF 11
ENDMDL
MODEL      108
REMARK 921   NORMALIZED FREE ENERGY PREDICTED BY IDOCK:   -4.62 KCAL/MOL
REMARK 922        TOTAL FREE ENERGY PREDICTED BY IDOCK:   -9.99 KCAL/MOL
REMARK 923 INTER-LIGAND FREE ENERGY PREDICTED BY IDOCK:   -8.68 KCAL/MOL
REMARK 924 INTRA-LIGAND FREE ENERGY PREDICTED BY IDOCK:   -1.31 KCAL/MOL
REMARK 927      BINDING AFFINITY PREDICTED BY RF-SCORE:    0.00 PKD
ROOT
HETATM    1  C   UNL     1     -11.310  15.297  67.504  1.00  0.00    -0.300 C  
HETATM    2  C   UNL     1     -11.674  15.640  68.749  1.00  0.00    -0.382 C  
ENDROOT
BRANCH   1   3
HETATM    3  C   UNL     1      -9.939  14.869  67.058  1.00  0.00    -0.240 C  
BRANCH   3   4
HETATM    4  C   UNL     1      -9.857  14.733  65.537  1.00  0.00    -0.336 C  
BRANCH   4   5
HETATM    5  C   UNL     1     -11.232  14.816  64.874  1.00  0.00    -0.411 C  
HETATM    6  O   UNL     1     -12.708  13.719  63.368  1.00  0.00    -0.795 OA 
HETATM    7  C   UNL     1     -11.485  13.655  63.946  1.00  0.00    -0.181 C  
HETATM    8  O   UNL     1     -10.705  12.741  63.726  1.00  0.00    -0.413 OA 
ENDBRANCH   4   5
ENDBRANCH   3   4
ENDBRANCH   1   3
BRANCH   2   9
HETATM    9  C   UNL     1     -10.770  15.728  69.950  1.00  0.00    -0.332 C  
BRANCH   9  10
HETATM   10  C   UNL     1     -11.192  14.895  71.171  1.00  0.00    -0.190 C  
HETATM   11  H   UNL     1     -15.030  14.601  71.727  1.00  0.00     0.000 HD 
HETATM   12  C   UNL     1     -11.415  15.785  72.405  1.00  0.00    -0.286 C  
HETATM   13  O   UNL     1     -14.406  15.022  72.307  1.00  0.00    -0.492 OA 
HETATM   14  O   UNL     1     -12.201  16.933  72.090  1.00  0.00    -0.236 OA 
HETATM   15  C   UNL     1     -12.221  14.899  73.340  1.00  0.00    -0.463 C  
HETATM   16  C   UNL     1     -12.537  14.132  71.022  1.00  0.00    -0.439 C  
HETATM   17  H   UNL     1     -12.339  17.483  72.852  1.00  0.00     0.000 HD 
HETATM   18  C   UNL     1     -13.225  14.222  72.408  1.00  0.00    -0.458 C  
BRANCH  16  19
HETATM   19  C   UNL     1     -12.376  12.708  70.542  1.00  0.00    -0.350 C  
HETATM   20  C   UNL     1     -11.540  12.308  69.567  1.00  0.00    -0.366 C  
BRANCH  20  21
HETATM   21  C   UNL     1     -11.418  10.908  69.029  1.00  0.00    -0.302 C  
HETATM   22  O   UNL     1     -11.779  10.876  67.653  1.00  0.00    -0.566 OA 
HETATM   23  H   UNL     1     -11.702   9.992  67.314  1.00  0.00     0.000 HD 
BRANCH  21  24
HETATM   24  C   UNL     1      -9.989  10.371  69.166  1.00  0.00    -0.237 C  
BRANCH  24  25
HETATM   25  C   UNL     1      -9.882   8.929  69.676  1.00  0.00    -0.182 C  
BRANCH  25  26
HETATM   26  C   UNL     1      -9.215   7.990  68.672  1.00  0.00    -0.143 C  
BRANCH  26  27
HETATM   27  C   UNL     1     -10.036   7.863  67.391  1.00  0.00    -0.292 C  
HETATM   28  C   UNL     1      -9.329   8.534  66.225  1.00  0.00    -0.287 C  
ENDBRANCH  26  27
ENDBRANCH  25  26
ENDBRANCH  24  25
ENDBRANCH  21  24
ENDBRANCH  20  21
ENDBRANCH  16  19
ENDBRANCH   9  10
ENDBRANCH   2   9
TORSDOF 11
ENDMDL
MODEL      109
REMARK 921   NORMALIZED FREE ENERGY PREDICTED BY IDOCK:   -4.61 KCAL/MOL
REMARK 922        TOTAL FREE ENERGY PREDICTED BY IDOCK:   -9.97 KCAL/MOL
REMARK 923 INTER-LIGAND FREE ENERGY PREDICTED BY IDOCK:   -7.62 KCAL/MOL
REMARK 924 INTRA-LIGAND FREE ENERGY PREDICTED BY IDOCK:   -2.35 KCAL/MOL
REMARK 927      BINDING AFFINITY PREDICTED BY RF-SCORE:    0.00 PKD
ROOT
HETATM    1  C   UNL     1     -10.263   9.735  67.672  1.00  0.00    -0.261 C  
HETATM    2  C   UNL     1     -10.095  10.310  66.472  1.00  0.00    -0.290 C  
ENDROOT
BRANCH   1   3
HETATM    3  C   UNL     1      -9.828  10.291  69.000  1.00  0.00    -0.215 C  
BRANCH   3   4
HETATM    4  C   UNL     1      -8.585   9.575  69.532  1.00  0.00    -0.171 C  
BRANCH   4   5
HETATM    5  C   UNL     1      -7.358  10.487  69.555  1.00  0.00    -0.148 C  
HETATM    6  O   UNL     1      -5.402  11.106  68.355  1.00  0.00    -0.043 OA 
HETATM    7  C   UNL     1      -6.483  10.290  68.343  1.00  0.00    -0.048 C  
HETATM    8  O   UNL     1      -6.699   9.505  67.433  1.00  0.00    -0.070 OA 
ENDBRANCH   4   5
ENDBRANCH   3   4
ENDBRANCH   1   3
BRANCH   2   9
HETATM    9  C   UNL     1      -9.380  11.606  66.196  1.00  0.00    -0.237 C  
BRANCH   9  10
HETATM   10  C   UNL     1     -10.272  12.850  66.054  1.00  0.00    -0.293 C  
HETATM   11  H   UNL     1     -14.010  12.122  65.262  1.00  0.00     0.000 HD 
HETATM   12  C   UNL     1     -10.389  13.289  64.585  1.00  0.00    -0.375 C  
HETATM   13  O   UNL     1     -13.392  12.577  64.701  1.00  0.00    -0.804 OA 
HETATM   14  O   UNL     1     -10.662  12.184  63.726  1.00  0.00    -0.357 OA 
HETATM   15  C   UNL     1     -11.604  14.203  64.584  1.00  0.00    -0.414 C  
HETATM   16  C   UNL     1     -11.749  12.661  66.499  1.00  0.00    -0.463 C  
HETATM   17  H   UNL     1     -10.734  12.455  62.819  1.00  0.00     0.000 HD 
HETATM   18  C   UNL     1     -12.598  13.472  65.485  1.00  0.00    -0.481 C  
BRANCH  16  19
HETATM   19  C   UNL     1     -12.007  13.067  67.931  1.00  0.00    -0.338 C  
HETATM   20  C   UNL     1     -11.914  14.320  68.411  1.00  0.00    -0.344 C  
BRANCH  20  21
HETATM   21  C   UNL     1     -12.099  14.731  69.847  1.00  0.00    -0.332 C  
HETATM   22  O   UNL     1     -11.702  13.676  70.716  1.00  0.00    -0.516 OA 
HETATM   23  H   UNL     1     -11.819  13.936  71.622  1.00  0.00     0.000 HD 
BRANCH  21  24
HETATM   24  C   UNL     1     -11.274  15.976  70.191  1.00  0.00    -0.376 C  
BRANCH  24  25
HETATM   25  C   UNL     1     -10.813  16.804  68.986  1.00  0.00    -0.291 C  
BRANCH  25  26
HETATM   26  C   UNL     1      -9.291  16.885  68.867  1.00  0.00    -0.229 C  
BRANCH  26  27
HETATM   27  C   UNL     1      -8.834  16.761  67.415  1.00  0.00    -0.209 C  
HETATM   28  C   UNL     1     -10.017  16.851  66.464  1.00  0.00    -0.309 C  
ENDBRANCH  26  27
ENDBRANCH  25  26
ENDBRANCH  24  25
ENDBRANCH  21  24
ENDBRANCH  20  21
ENDBRANCH  16  19
ENDBRANCH   9  10
ENDBRANCH   2   9
TORSDOF 11
ENDMDL
MODEL      110
REMARK 921   NORMALIZED FREE ENERGY PREDICTED BY IDOCK:   -4.61 KCAL/MOL
REMARK 922        TOTAL FREE ENERGY PREDICTED BY IDOCK:   -9.97 KCAL/MOL
REMARK 923 INTER-LIGAND FREE ENERGY PREDICTED BY IDOCK:   -7.94 KCAL/MOL
REMARK 924 INTRA-LIGAND FREE ENERGY PREDICTED BY IDOCK:   -2.03 KCAL/MOL
REMARK 927      BINDING AFFINITY PREDICTED BY RF-SCORE:    0.00 PKD
ROOT
HETATM    1  C   UNL     1     -10.507  11.883  63.606  1.00  0.00    -0.493 C  
HETATM    2  C   UNL     1      -9.735  10.960  64.198  1.00  0.00    -0.347 C  
ENDROOT
BRANCH   1   3
HETATM    3  C   UNL     1     -11.938  12.202  63.941  1.00  0.00    -0.581 C  
BRANCH   3   4
HETATM    4  C   UNL     1     -12.039  13.276  65.025  1.00  0.00    -0.447 C  
BRANCH   4   5
HETATM    5  C   UNL     1     -12.349  14.656  64.444  1.00  0.00    -0.420 C  
HETATM    6  O   UNL     1     -11.452  16.824  64.059  1.00  0.00    -1.198 OA 
HETATM    7  C   UNL     1     -11.185  15.605  64.585  1.00  0.00    -0.369 C  
HETATM    8  O   UNL     1     -10.110  15.335  65.098  1.00  0.00    -0.345 OA 
ENDBRANCH   4   5
ENDBRANCH   3   4
ENDBRANCH   1   3
BRANCH   2   9
HETATM    9  C   UNL     1     -10.159  10.005  65.282  1.00  0.00    -0.299 C  
BRANCH   9  10
HETATM   10  C   UNL     1      -9.165   9.817  66.439  1.00  0.00    -0.200 C  
HETATM   11  H   UNL     1      -5.595  11.221  65.798  1.00  0.00     0.000 HD 
HETATM   12  C   UNL     1      -8.334   8.536  66.261  1.00  0.00    -0.116 C  
HETATM   13  O   UNL     1      -5.827  10.309  65.931  1.00  0.00    -0.069 OA 
HETATM   14  O   UNL     1      -7.825   8.420  64.933  1.00  0.00    -0.106 OA 
HETATM   15  C   UNL     1      -7.159   8.740  67.203  1.00  0.00    -0.075 C  
HETATM   16  C   UNL     1      -8.092  10.932  66.580  1.00  0.00    -0.147 C  
HETATM   17  H   UNL     1      -7.312   7.628  64.823  1.00  0.00     0.000 HD 
HETATM   18  C   UNL     1      -6.784  10.206  66.989  1.00  0.00    -0.078 C  
BRANCH  16  19
HETATM   19  C   UNL     1      -8.479  12.026  67.549  1.00  0.00    -0.165 C  
HETATM   20  C   UNL     1      -9.561  12.816  67.435  1.00  0.00    -0.199 C  
BRANCH  20  21
HETATM   21  C   UNL     1      -9.923  13.954  68.350  1.00  0.00    -0.233 C  
HETATM   22  O   UNL     1      -9.850  15.191  67.651  1.00  0.00    -0.218 OA 
HETATM   23  H   UNL     1     -10.079  15.909  68.228  1.00  0.00     0.000 HD 
BRANCH  21  24
HETATM   24  C   UNL     1     -11.341  13.800  68.913  1.00  0.00    -0.328 C  
BRANCH  24  25
HETATM   25  C   UNL     1     -11.891  12.369  68.907  1.00  0.00    -0.350 C  
BRANCH  25  26
HETATM   26  C   UNL     1     -11.596  11.612  70.201  1.00  0.00    -0.303 C  
BRANCH  26  27
HETATM   27  C   UNL     1     -12.448  10.350  70.321  1.00  0.00    -0.296 C  
HETATM   28  C   UNL     1     -13.091  10.259  71.695  1.00  0.00    -0.553 C  
ENDBRANCH  26  27
ENDBRANCH  25  26
ENDBRANCH  24  25
ENDBRANCH  21  24
ENDBRANCH  20  21
ENDBRANCH  16  19
ENDBRANCH   9  10
ENDBRANCH   2   9
TORSDOF 11
ENDMDL
MODEL      111
REMARK 921   NORMALIZED FREE ENERGY PREDICTED BY IDOCK:   -4.57 KCAL/MOL
REMARK 922        TOTAL FREE ENERGY PREDICTED BY IDOCK:   -9.90 KCAL/MOL
REMARK 923 INTER-LIGAND FREE ENERGY PREDICTED BY IDOCK:   -8.06 KCAL/MOL
REMARK 924 INTRA-LIGAND FREE ENERGY PREDICTED BY IDOCK:   -1.84 KCAL/MOL
REMARK 927      BINDING AFFINITY PREDICTED BY RF-SCORE:    0.00 PKD
ROOT
HETATM    1  C   UNL     1      -7.507  14.396  67.586  1.00  0.00    -0.191 C  
HETATM    2  C   UNL     1      -7.252  15.705  67.725  1.00  0.00    -0.175 C  
ENDROOT
BRANCH   1   3
HETATM    3  C   UNL     1      -8.413  13.564  68.451  1.00  0.00    -0.143 C  
BRANCH   3   4
HETATM    4  C   UNL     1      -8.568  12.143  67.905  1.00  0.00    -0.167 C  
BRANCH   4   5
HETATM    5  C   UNL     1     -10.016  11.656  67.964  1.00  0.00    -0.194 C  
HETATM    6  O   UNL     1     -11.391   9.767  68.400  1.00  0.00    -0.087 OA 
HETATM    7  C   UNL     1     -10.110  10.197  68.334  1.00  0.00    -0.164 C  
HETATM    8  O   UNL     1      -9.160   9.464  68.565  1.00  0.00    -0.131 OA 
ENDBRANCH   4   5
ENDBRANCH   3   4
ENDBRANCH   1   3
BRANCH   2   9
HETATM    9  C   UNL     1      -7.771  16.604  68.814  1.00  0.00    -0.233 C  
BRANCH   9  10
HETATM   10  C   UNL     1      -8.692  17.749  68.360  1.00  0.00    -0.292 C  
HETATM   11  H   UNL     1      -7.939  19.171  64.820  1.00  0.00     0.000 HD 
HETATM   12  C   UNL     1      -8.078  19.121  68.681  1.00  0.00    -0.370 C  
HETATM   13  O   UNL     1      -7.866  19.639  65.643  1.00  0.00    -0.408 OA 
HETATM   14  O   UNL     1      -6.707  19.187  68.291  1.00  0.00    -0.238 OA 
HETATM   15  C   UNL     1      -8.868  20.077  67.802  1.00  0.00    -0.379 C  
HETATM   16  C   UNL     1      -8.963  17.816  66.832  1.00  0.00    -0.265 C  
HETATM   17  H   UNL     1      -6.328  20.035  68.489  1.00  0.00     0.000 HD 
HETATM   18  C   UNL     1      -8.985  19.325  66.477  1.00  0.00    -0.346 C  
BRANCH  16  19
HETATM   19  C   UNL     1     -10.222  17.098  66.407  1.00  0.00    -0.331 C  
HETATM   20  C   UNL     1     -10.274  16.062  65.551  1.00  0.00    -0.389 C  
BRANCH  20  21
HETATM   21  C   UNL     1     -11.523  15.381  65.064  1.00  0.00    -0.263 C  
HETATM   22  O   UNL     1     -11.863  15.848  63.763  1.00  0.00    -1.221 OA 
HETATM   23  H   UNL     1     -12.652  15.419  63.455  1.00  0.00     0.000 HD 
BRANCH  21  24
HETATM   24  C   UNL     1     -11.353  13.859  65.000  1.00  0.00    -0.336 C  
BRANCH  24  25
HETATM   25  C   UNL     1     -12.042  13.176  63.813  1.00  0.00    -0.563 C  
BRANCH  25  26
HETATM   26  C   UNL     1     -11.701  11.691  63.701  1.00  0.00    -0.406 C  
BRANCH  26  27
HETATM   27  C   UNL     1     -10.194  11.454  63.773  1.00  0.00    -0.433 C  
HETATM   28  C   UNL     1      -9.883  10.168  64.521  1.00  0.00    -0.334 C  
ENDBRANCH  26  27
ENDBRANCH  25  26
ENDBRANCH  24  25
ENDBRANCH  21  24
ENDBRANCH  20  21
ENDBRANCH  16  19
ENDBRANCH   9  10
ENDBRANCH   2   9
TORSDOF 11
ENDMDL
MODEL      112
REMARK 921   NORMALIZED FREE ENERGY PREDICTED BY IDOCK:   -4.56 KCAL/MOL
REMARK 922        TOTAL FREE ENERGY PREDICTED BY IDOCK:   -9.89 KCAL/MOL
REMARK 923 INTER-LIGAND FREE ENERGY PREDICTED BY IDOCK:   -8.50 KCAL/MOL
REMARK 924 INTRA-LIGAND FREE ENERGY PREDICTED BY IDOCK:   -1.40 KCAL/MOL
REMARK 927      BINDING AFFINITY PREDICTED BY RF-SCORE:    0.00 PKD
ROOT
HETATM    1  C   UNL     1     -12.537  12.383  70.865  1.00  0.00    -0.337 C  
HETATM    2  C   UNL     1     -12.218  11.085  70.752  1.00  0.00    -0.480 C  
ENDROOT
BRANCH   1   3
HETATM    3  C   UNL     1     -13.481  12.988  71.866  1.00  0.00    -0.498 C  
BRANCH   3   4
HETATM    4  C   UNL     1     -13.467  14.516  71.804  1.00  0.00    -0.458 C  
BRANCH   4   5
HETATM    5  C   UNL     1     -13.409  15.151  73.194  1.00  0.00    -0.558 C  
HETATM    6  O   UNL     1     -12.348  16.835  74.493  1.00  0.00    -0.703 OA 
HETATM    7  C   UNL     1     -12.393  16.263  73.267  1.00  0.00    -0.516 C  
HETATM    8  O   UNL     1     -11.684  16.637  72.345  1.00  0.00    -0.480 OA 
ENDBRANCH   4   5
ENDBRANCH   3   4
ENDBRANCH   1   3
BRANCH   2   9
HETATM    9  C   UNL     1     -12.785   9.953  71.566  1.00  0.00    -0.515 C  
BRANCH   9  10
HETATM   10  C   UNL     1     -11.872   8.729  71.746  1.00  0.00    -0.414 C  
HETATM   11  H   UNL     1     -11.086   6.758  68.487  1.00  0.00     0.000 HD 
HETATM   12  C   UNL     1     -12.692   7.442  71.934  1.00  0.00    -0.278 C  
HETATM   13  O   UNL     1     -11.566   6.435  69.240  1.00  0.00    -0.354 OA 
HETATM   14  O   UNL     1     -13.741   7.343  70.973  1.00  0.00    -0.621 OA 
HETATM   15  C   UNL     1     -11.686   6.338  71.655  1.00  0.00    -0.342 C  
HETATM   16  C   UNL     1     -10.952   8.405  70.537  1.00  0.00    -0.258 C  
HETATM   17  H   UNL     1     -14.248   6.547  71.089  1.00  0.00     0.000 HD 
HETATM   18  C   UNL     1     -10.916   6.858  70.442  1.00  0.00    -0.274 C  
BRANCH  16  19
HETATM   19  C   UNL     1      -9.574   9.015  70.643  1.00  0.00    -0.289 C  
HETATM   20  C   UNL     1      -8.896   9.581  69.628  1.00  0.00    -0.196 C  
BRANCH  20  21
HETATM   21  C   UNL     1      -7.497  10.130  69.699  1.00  0.00    -0.147 C  
HETATM   22  O   UNL     1      -6.980   9.991  71.017  1.00  0.00    -0.339 OA 
HETATM   23  H   UNL     1      -6.097  10.337  71.062  1.00  0.00     0.000 HD 
BRANCH  21  24
HETATM   24  C   UNL     1      -6.554   9.406  68.731  1.00  0.00    -0.052 C  
BRANCH  24  25
HETATM   25  C   UNL     1      -7.138   9.124  67.342  1.00  0.00    -0.079 C  
BRANCH  25  26
HETATM   26  C   UNL     1      -7.041   7.652  66.943  1.00  0.00    -0.084 C  
BRANCH  26  27
HETATM   27  C   UNL     1      -8.364   6.922  67.164  1.00  0.00    -0.121 C  
HETATM   28  C   UNL     1      -8.182   5.743  68.106  1.00  0.00    -0.104 C  
ENDBRANCH  26  27
ENDBRANCH  25  26
ENDBRANCH  24  25
ENDBRANCH  21  24
ENDBRANCH  20  21
ENDBRANCH  16  19
ENDBRANCH   9  10
ENDBRANCH   2   9
TORSDOF 11
ENDMDL
MODEL      113
REMARK 921   NORMALIZED FREE ENERGY PREDICTED BY IDOCK:   -4.56 KCAL/MOL
REMARK 922        TOTAL FREE ENERGY PREDICTED BY IDOCK:   -9.88 KCAL/MOL
REMARK 923 INTER-LIGAND FREE ENERGY PREDICTED BY IDOCK:   -8.35 KCAL/MOL
REMARK 924 INTRA-LIGAND FREE ENERGY PREDICTED BY IDOCK:   -1.53 KCAL/MOL
REMARK 927      BINDING AFFINITY PREDICTED BY RF-SCORE:    0.00 PKD
ROOT
HETATM    1  C   UNL     1      -9.152  10.487  68.981  1.00  0.00    -0.188 C  
HETATM    2  C   UNL     1     -10.375  10.399  68.438  1.00  0.00    -0.198 C  
ENDROOT
BRANCH   1   3
HETATM    3  C   UNL     1      -7.915  11.028  68.318  1.00  0.00    -0.124 C  
BRANCH   3   4
HETATM    4  C   UNL     1      -6.899   9.921  68.030  1.00  0.00    -0.072 C  
BRANCH   4   5
HETATM    5  C   UNL     1      -7.520   8.752  67.264  1.00  0.00    -0.089 C  
HETATM    6  O   UNL     1      -7.966   7.900  65.090  1.00  0.00    -0.116 OA 
HETATM    7  C   UNL     1      -7.429   8.940  65.770  1.00  0.00    -0.089 C  
HETATM    8  O   UNL     1      -6.926   9.901  65.207  1.00  0.00    -0.108 OA 
ENDBRANCH   4   5
ENDBRANCH   3   4
ENDBRANCH   1   3
BRANCH   2   9
HETATM    9  C   UNL     1     -10.754  10.767  67.028  1.00  0.00    -0.320 C  
BRANCH   9  10
HETATM   10  C   UNL     1     -10.697  12.265  66.686  1.00  0.00    -0.276 C  
HETATM   11  H   UNL     1     -14.068  13.826  65.534  1.00  0.00     0.000 HD 
HETATM   12  C   UNL     1     -10.461  12.486  65.182  1.00  0.00    -0.293 C  
HETATM   13  O   UNL     1     -13.279  13.740  65.013  1.00  0.00    -0.733 OA 
HETATM   14  O   UNL     1     -11.315  11.663  64.390  1.00  0.00    -0.319 OA 
HETATM   15  C   UNL     1     -10.867  13.935  64.969  1.00  0.00    -0.389 C  
HETATM   16  C   UNL     1     -12.000  13.061  66.973  1.00  0.00    -0.409 C  
HETATM   17  H   UNL     1     -11.169  11.799  63.461  1.00  0.00     0.000 HD 
HETATM   18  C   UNL     1     -12.137  14.074  65.807  1.00  0.00    -0.427 C  
BRANCH  16  19
HETATM   19  C   UNL     1     -12.017  13.727  68.329  1.00  0.00    -0.392 C  
HETATM   20  C   UNL     1     -11.486  14.930  68.609  1.00  0.00    -0.326 C  
BRANCH  20  21
HETATM   21  C   UNL     1     -11.432  15.577  69.966  1.00  0.00    -0.331 C  
HETATM   22  O   UNL     1     -11.135  16.963  69.840  1.00  0.00    -0.407 OA 
HETATM   23  H   UNL     1     -11.101  17.371  70.697  1.00  0.00     0.000 HD 
BRANCH  21  24
HETATM   24  C   UNL     1     -12.762  15.434  70.716  1.00  0.00    -0.516 C  
BRANCH  24  25
HETATM   25  C   UNL     1     -12.682  15.661  72.230  1.00  0.00    -0.513 C  
BRANCH  25  26
HETATM   26  C   UNL     1     -13.055  14.419  73.038  1.00  0.00    -0.581 C  
BRANCH  26  27
HETATM   27  C   UNL     1     -13.873  13.432  72.207  1.00  0.00    -0.671 C  
HETATM   28  C   UNL     1     -13.148  12.104  72.074  1.00  0.00    -0.462 C  
ENDBRANCH  26  27
ENDBRANCH  25  26
ENDBRANCH  24  25
ENDBRANCH  21  24
ENDBRANCH  20  21
ENDBRANCH  16  19
ENDBRANCH   9  10
ENDBRANCH   2   9
TORSDOF 11
ENDMDL
MODEL      114
REMARK 921   NORMALIZED FREE ENERGY PREDICTED BY IDOCK:   -4.56 KCAL/MOL
REMARK 922        TOTAL FREE ENERGY PREDICTED BY IDOCK:   -9.88 KCAL/MOL
REMARK 923 INTER-LIGAND FREE ENERGY PREDICTED BY IDOCK:   -8.10 KCAL/MOL
REMARK 924 INTRA-LIGAND FREE ENERGY PREDICTED BY IDOCK:   -1.78 KCAL/MOL
REMARK 927      BINDING AFFINITY PREDICTED BY RF-SCORE:    0.00 PKD
ROOT
HETATM    1  C   UNL     1      -9.581   8.168  66.861  1.00  0.00    -0.269 C  
HETATM    2  C   UNL     1      -9.178   7.538  67.975  1.00  0.00    -0.137 C  
ENDROOT
BRANCH   1   3
HETATM    3  C   UNL     1     -10.178   9.545  66.778  1.00  0.00    -0.313 C  
BRANCH   3   4
HETATM    4  C   UNL     1      -9.845  10.225  65.449  1.00  0.00    -0.362 C  
BRANCH   4   5
HETATM    5  C   UNL     1     -10.923  11.223  65.025  1.00  0.00    -0.226 C  
HETATM    6  O   UNL     1     -11.569  12.743  63.315  1.00  0.00    -0.498 OA 
HETATM    7  C   UNL     1     -10.609  11.869  63.698  1.00  0.00    -0.446 C  
HETATM    8  O   UNL     1      -9.620  11.643  63.018  1.00  0.00    -0.392 OA 
ENDBRANCH   4   5
ENDBRANCH   3   4
ENDBRANCH   1   3
BRANCH   2   9
HETATM    9  C   UNL     1      -9.297   8.055  69.384  1.00  0.00    -0.155 C  
BRANCH   9  10
HETATM   10  C   UNL     1     -10.694   7.965  70.019  1.00  0.00    -0.244 C  
HETATM   11  H   UNL     1     -10.771   8.281  73.895  1.00  0.00     0.000 HD 
HETATM   12  C   UNL     1     -11.016   6.528  70.460  1.00  0.00    -0.294 C  
HETATM   13  O   UNL     1     -11.021   7.519  73.385  1.00  0.00    -0.380 OA 
HETATM   14  O   UNL     1      -9.931   5.942  71.176  1.00  0.00    -0.180 OA 
HETATM   15  C   UNL     1     -12.179   6.705  71.423  1.00  0.00    -0.378 C  
HETATM   16  C   UNL     1     -10.887   8.799  71.316  1.00  0.00    -0.347 C  
HETATM   17  H   UNL     1     -10.130   5.054  71.448  1.00  0.00     0.000 HD 
HETATM   18  C   UNL     1     -11.777   7.930  72.242  1.00  0.00    -0.355 C  
BRANCH  16  19
HETATM   19  C   UNL     1     -11.467  10.173  71.072  1.00  0.00    -0.436 C  
HETATM   20  C   UNL     1     -11.637  10.741  69.865  1.00  0.00    -0.410 C  
BRANCH  20  21
HETATM   21  C   UNL     1     -12.146  12.133  69.608  1.00  0.00    -0.218 C  
HETATM   22  O   UNL     1     -11.500  13.061  70.472  1.00  0.00    -0.460 OA 
HETATM   23  H   UNL     1     -11.822  13.940  70.311  1.00  0.00     0.000 HD 
BRANCH  21  24
HETATM   24  C   UNL     1     -11.899  12.569  68.160  1.00  0.00    -0.371 C  
BRANCH  24  25
HETATM   25  C   UNL     1     -11.046  13.833  67.998  1.00  0.00    -0.284 C  
BRANCH  25  26
HETATM   26  C   UNL     1      -9.733  13.574  67.260  1.00  0.00    -0.236 C  
BRANCH  26  27
HETATM   27  C   UNL     1      -9.281  14.800  66.470  1.00  0.00    -0.304 C  
HETATM   28  C   UNL     1     -10.195  15.046  65.281  1.00  0.00    -0.409 C  
ENDBRANCH  26  27
ENDBRANCH  25  26
ENDBRANCH  24  25
ENDBRANCH  21  24
ENDBRANCH  20  21
ENDBRANCH  16  19
ENDBRANCH   9  10
ENDBRANCH   2   9
TORSDOF 11
ENDMDL
MODEL      115
REMARK 921   NORMALIZED FREE ENERGY PREDICTED BY IDOCK:   -4.55 KCAL/MOL
REMARK 922        TOTAL FREE ENERGY PREDICTED BY IDOCK:   -9.88 KCAL/MOL
REMARK 923 INTER-LIGAND FREE ENERGY PREDICTED BY IDOCK:   -7.81 KCAL/MOL
REMARK 924 INTRA-LIGAND FREE ENERGY PREDICTED BY IDOCK:   -2.07 KCAL/MOL
REMARK 927      BINDING AFFINITY PREDICTED BY RF-SCORE:    0.00 PKD
ROOT
HETATM    1  C   UNL     1      -7.688  10.944  67.421  1.00  0.00    -0.108 C  
HETATM    2  C   UNL     1      -8.690  10.299  66.805  1.00  0.00    -0.132 C  
ENDROOT
BRANCH   1   3
HETATM    3  C   UNL     1      -7.787  12.241  68.174  1.00  0.00    -0.148 C  
BRANCH   3   4
HETATM    4  C   UNL     1      -6.682  13.217  67.766  1.00  0.00    -0.154 C  
BRANCH   4   5
HETATM    5  C   UNL     1      -7.159  14.670  67.782  1.00  0.00    -0.193 C  
HETATM    6  O   UNL     1      -7.420  16.591  69.158  1.00  0.00    -0.226 OA 
HETATM    7  C   UNL     1      -7.011  15.301  69.144  1.00  0.00    -0.148 C  
HETATM    8  O   UNL     1      -6.566  14.745  70.137  1.00  0.00    -0.172 OA 
ENDBRANCH   4   5
ENDBRANCH   3   4
ENDBRANCH   1   3
BRANCH   2   9
HETATM    9  C   UNL     1     -10.114  10.772  66.687  1.00  0.00    -0.265 C  
BRANCH   9  10
HETATM   10  C   UNL     1     -10.341  12.014  65.810  1.00  0.00    -0.289 C  
HETATM   11  H   UNL     1     -13.922  12.365  64.335  1.00  0.00     0.000 HD 
HETATM   12  C   UNL     1     -10.117  11.697  64.322  1.00  0.00    -0.287 C  
HETATM   13  O   UNL     1     -13.119  12.241  63.843  1.00  0.00    -0.772 OA 
HETATM   14  O   UNL     1     -10.775  10.492  63.936  1.00  0.00    -0.356 OA 
HETATM   15  C   UNL     1     -10.791  12.857  63.607  1.00  0.00    -0.270 C  
HETATM   16  C   UNL     1     -11.780  12.599  65.848  1.00  0.00    -0.470 C  
HETATM   17  H   UNL     1     -10.636  10.297  63.017  1.00  0.00     0.000 HD 
HETATM   18  C   UNL     1     -12.083  13.057  64.398  1.00  0.00    -0.411 C  
BRANCH  16  19
HETATM   19  C   UNL     1     -11.958  13.707  66.859  1.00  0.00    -0.454 C  
HETATM   20  C   UNL     1     -10.964  14.294  67.550  1.00  0.00    -0.297 C  
BRANCH  20  21
HETATM   21  C   UNL     1     -11.130  15.349  68.610  1.00  0.00    -0.289 C  
HETATM   22  O   UNL     1     -10.277  15.074  69.715  1.00  0.00    -0.382 OA 
HETATM   23  H   UNL     1     -10.382  15.740  70.384  1.00  0.00     0.000 HD 
BRANCH  21  24
HETATM   24  C   UNL     1     -10.795  16.746  68.076  1.00  0.00    -0.341 C  
BRANCH  24  25
HETATM   25  C   UNL     1     -10.139  16.773  66.691  1.00  0.00    -0.304 C  
BRANCH  25  26
HETATM   26  C   UNL     1     -10.525  18.004  65.873  1.00  0.00    -0.268 C  
BRANCH  26  27
HETATM   27  C   UNL     1     -10.769  19.219  66.766  1.00  0.00    -0.526 C  
HETATM   28  C   UNL     1      -9.528  20.092  66.844  1.00  0.00    -0.543 C  
ENDBRANCH  26  27
ENDBRANCH  25  26
ENDBRANCH  24  25
ENDBRANCH  21  24
ENDBRANCH  20  21
ENDBRANCH  16  19
ENDBRANCH   9  10
ENDBRANCH   2   9
TORSDOF 11
ENDMDL
MODEL      116
REMARK 921   NORMALIZED FREE ENERGY PREDICTED BY IDOCK:   -4.54 KCAL/MOL
REMARK 922        TOTAL FREE ENERGY PREDICTED BY IDOCK:   -9.86 KCAL/MOL
REMARK 923 INTER-LIGAND FREE ENERGY PREDICTED BY IDOCK:   -8.37 KCAL/MOL
REMARK 924 INTRA-LIGAND FREE ENERGY PREDICTED BY IDOCK:   -1.48 KCAL/MOL
REMARK 927      BINDING AFFINITY PREDICTED BY RF-SCORE:    0.00 PKD
ROOT
HETATM    1  C   UNL     1     -11.537  14.604  67.560  1.00  0.00    -0.396 C  
HETATM    2  C   UNL     1     -11.972  15.151  68.705  1.00  0.00    -0.270 C  
ENDROOT
BRANCH   1   3
HETATM    3  C   UNL     1     -10.128  14.179  67.250  1.00  0.00    -0.256 C  
BRANCH   3   4
HETATM    4  C   UNL     1     -10.074  13.240  66.043  1.00  0.00    -0.301 C  
BRANCH   4   5
HETATM    5  C   UNL     1     -11.233  13.478  65.074  1.00  0.00    -0.334 C  
HETATM    6  O   UNL     1     -12.730  12.407  63.570  1.00  0.00    -0.727 OA 
HETATM    7  C   UNL     1     -11.696  12.201  64.418  1.00  0.00    -0.355 C  
HETATM    8  O   UNL     1     -11.222  11.092  64.616  1.00  0.00    -0.167 OA 
ENDBRANCH   4   5
ENDBRANCH   3   4
ENDBRANCH   1   3
BRANCH   2   9
HETATM    9  C   UNL     1     -11.128  15.510  69.898  1.00  0.00    -0.318 C  
BRANCH   9  10
HETATM   10  C   UNL     1     -11.291  14.610  71.133  1.00  0.00    -0.095 C  
HETATM   11  H   UNL     1     -14.900  13.306  71.765  1.00  0.00     0.000 HD 
HETATM   12  C   UNL     1     -11.724  15.422  72.365  1.00  0.00    -0.466 C  
HETATM   13  O   UNL     1     -14.402  13.886  72.329  1.00  0.00    -0.576 OA 
HETATM   14  O   UNL     1     -12.794  16.314  72.057  1.00  0.00    -0.460 OA 
HETATM   15  C   UNL     1     -12.248  14.364  73.321  1.00  0.00    -0.093 C  
HETATM   16  C   UNL     1     -12.384  13.513  71.015  1.00  0.00    -0.422 C  
HETATM   17  H   UNL     1     -13.061  16.816  72.818  1.00  0.00     0.000 HD 
HETATM   18  C   UNL     1     -13.049  13.431  72.414  1.00  0.00    -0.366 C  
BRANCH  16  19
HETATM   19  C   UNL     1     -11.857  12.179  70.541  1.00  0.00    -0.185 C  
HETATM   20  C   UNL     1     -12.011  11.679  69.302  1.00  0.00    -0.382 C  
BRANCH  20  21
HETATM   21  C   UNL     1     -11.553  10.324  68.834  1.00  0.00    -0.065 C  
HETATM   22  O   UNL     1     -11.629  10.241  67.416  1.00  0.00    -0.454 OA 
HETATM   23  H   UNL     1     -11.340   9.386  67.120  1.00  0.00     0.000 HD 
BRANCH  21  24
HETATM   24  C   UNL     1     -10.108  10.036  69.258  1.00  0.00    -0.226 C  
BRANCH  24  25
HETATM   25  C   UNL     1      -9.959   9.115  70.474  1.00  0.00    -0.288 C  
BRANCH  25  26
HETATM   26  C   UNL     1     -11.100   9.266  71.479  1.00  0.00    -0.443 C  
BRANCH  26  27
HETATM   27  C   UNL     1     -10.979   8.260  72.622  1.00  0.00    -0.386 C  
HETATM   28  C   UNL     1      -9.525   8.060  73.017  1.00  0.00    -0.345 C  
ENDBRANCH  26  27
ENDBRANCH  25  26
ENDBRANCH  24  25
ENDBRANCH  21  24
ENDBRANCH  20  21
ENDBRANCH  16  19
ENDBRANCH   9  10
ENDBRANCH   2   9
TORSDOF 11
ENDMDL
MODEL      117
REMARK 921   NORMALIZED FREE ENERGY PREDICTED BY IDOCK:   -4.54 KCAL/MOL
REMARK 922        TOTAL FREE ENERGY PREDICTED BY IDOCK:   -9.85 KCAL/MOL
REMARK 923 INTER-LIGAND FREE ENERGY PREDICTED BY IDOCK:   -8.24 KCAL/MOL
REMARK 924 INTRA-LIGAND FREE ENERGY PREDICTED BY IDOCK:   -1.61 KCAL/MOL
REMARK 927      BINDING AFFINITY PREDICTED BY RF-SCORE:    0.00 PKD
ROOT
HETATM    1  C   UNL     1      -7.423  15.769  67.037  1.00  0.00    -0.242 C  
HETATM    2  C   UNL     1      -8.421  14.873  67.057  1.00  0.00    -0.260 C  
ENDROOT
BRANCH   1   3
HETATM    3  C   UNL     1      -7.495  17.198  67.501  1.00  0.00    -0.180 C  
BRANCH   3   4
HETATM    4  C   UNL     1      -7.749  18.157  66.337  1.00  0.00    -0.295 C  
BRANCH   4   5
HETATM    5  C   UNL     1      -8.741  19.261  66.704  1.00  0.00    -0.343 C  
HETATM    6  O   UNL     1     -11.028  19.902  66.599  1.00  0.00    -0.373 OA 
HETATM    7  C   UNL     1     -10.145  18.932  66.263  1.00  0.00    -0.414 C  
HETATM    8  O   UNL     1     -10.483  17.914  65.679  1.00  0.00    -0.610 OA 
ENDBRANCH   4   5
ENDBRANCH   3   4
ENDBRANCH   1   3
BRANCH   2   9
HETATM    9  C   UNL     1      -9.840  15.127  67.491  1.00  0.00    -0.220 C  
BRANCH   9  10
HETATM   10  C   UNL     1     -10.866  14.049  67.104  1.00  0.00    -0.288 C  
HETATM   11  H   UNL     1      -9.866  11.830  64.070  1.00  0.00     0.000 HD 
HETATM   12  C   UNL     1     -11.814  14.550  66.002  1.00  0.00    -0.334 C  
HETATM   13  O   UNL     1     -10.603  12.429  64.113  1.00  0.00    -0.327 OA 
HETATM   14  O   UNL     1     -11.101  15.189  64.945  1.00  0.00    -0.389 OA 
HETATM   15  C   UNL     1     -12.430  13.272  65.456  1.00  0.00    -0.531 C  
HETATM   16  C   UNL     1     -10.265  12.747  66.506  1.00  0.00    -0.261 C  
HETATM   17  H   UNL     1     -11.688  15.498  64.264  1.00  0.00     0.000 HD 
HETATM   18  C   UNL     1     -11.245  12.310  65.386  1.00  0.00    -0.328 C  
BRANCH  16  19
HETATM   19  C   UNL     1     -10.030  11.661  67.530  1.00  0.00    -0.202 C  
HETATM   20  C   UNL     1     -10.743  10.526  67.635  1.00  0.00    -0.324 C  
BRANCH  20  21
HETATM   21  C   UNL     1     -10.568   9.468  68.690  1.00  0.00    -0.210 C  
HETATM   22  O   UNL     1      -9.604   8.509  68.271  1.00  0.00    -0.141 OA 
HETATM   23  H   UNL     1      -9.493   7.841  68.937  1.00  0.00     0.000 HD 
BRANCH  21  24
HETATM   24  C   UNL     1     -10.105  10.068  70.023  1.00  0.00    -0.289 C  
BRANCH  24  25
HETATM   25  C   UNL     1     -10.688   9.400  71.274  1.00  0.00    -0.421 C  
BRANCH  25  26
HETATM   26  C   UNL     1     -12.180   9.672  71.453  1.00  0.00    -0.471 C  
BRANCH  26  27
HETATM   27  C   UNL     1     -12.990   8.377  71.467  1.00  0.00    -0.319 C  
HETATM   28  C   UNL     1     -14.246   8.531  72.308  1.00  0.00    -0.471 C  
ENDBRANCH  26  27
ENDBRANCH  25  26
ENDBRANCH  24  25
ENDBRANCH  21  24
ENDBRANCH  20  21
ENDBRANCH  16  19
ENDBRANCH   9  10
ENDBRANCH   2   9
TORSDOF 11
ENDMDL
MODEL      118
REMARK 921   NORMALIZED FREE ENERGY PREDICTED BY IDOCK:   -4.53 KCAL/MOL
REMARK 922        TOTAL FREE ENERGY PREDICTED BY IDOCK:   -9.84 KCAL/MOL
REMARK 923 INTER-LIGAND FREE ENERGY PREDICTED BY IDOCK:   -8.60 KCAL/MOL
REMARK 924 INTRA-LIGAND FREE ENERGY PREDICTED BY IDOCK:   -1.24 KCAL/MOL
REMARK 927      BINDING AFFINITY PREDICTED BY RF-SCORE:    0.00 PKD
ROOT
HETATM    1  C   UNL     1      -9.707   9.156  68.188  1.00  0.00    -0.174 C  
HETATM    2  C   UNL     1      -9.600  10.355  67.598  1.00  0.00    -0.168 C  
ENDROOT
BRANCH   1   3
HETATM    3  C   UNL     1     -10.612   8.030  67.770  1.00  0.00    -0.239 C  
BRANCH   3   4
HETATM    4  C   UNL     1      -9.953   7.139  66.715  1.00  0.00    -0.278 C  
BRANCH   4   5
HETATM    5  C   UNL     1      -9.387   5.853  67.318  1.00  0.00    -0.113 C  
HETATM    6  O   UNL     1      -9.482   3.479  67.217  1.00  0.00    -0.200 OA 
HETATM    7  C   UNL     1      -9.991   4.620  66.694  1.00  0.00    -0.236 C  
HETATM    8  O   UNL     1     -10.835   4.614  65.811  1.00  0.00    -0.293 OA 
ENDBRANCH   4   5
ENDBRANCH   3   4
ENDBRANCH   1   3
BRANCH   2   9
HETATM    9  C   UNL     1     -10.407  10.849  66.427  1.00  0.00    -0.306 C  
BRANCH   9  10
HETATM   10  C   UNL     1     -10.406  12.369  66.202  1.00  0.00    -0.271 C  
HETATM   11  H   UNL     1     -13.926  14.004  65.947  1.00  0.00     0.000 HD 
HETATM   12  C   UNL     1     -10.502  12.713  64.707  1.00  0.00    -0.320 C  
HETATM   13  O   UNL     1     -13.271  13.964  65.260  1.00  0.00    -0.774 OA 
HETATM   14  O   UNL     1     -11.520  11.954  64.057  1.00  0.00    -0.367 OA 
HETATM   15  C   UNL     1     -10.925  14.173  64.705  1.00  0.00    -0.409 C  
HETATM   16  C   UNL     1     -11.604  13.133  66.832  1.00  0.00    -0.417 C  
HETATM   17  H   UNL     1     -11.578  12.166  63.133  1.00  0.00     0.000 HD 
HETATM   18  C   UNL     1     -11.979  14.238  65.810  1.00  0.00    -0.393 C  
BRANCH  16  19
HETATM   19  C   UNL     1     -11.315  13.686  68.208  1.00  0.00    -0.322 C  
HETATM   20  C   UNL     1     -12.193  14.358  68.974  1.00  0.00    -0.233 C  
BRANCH  20  21
HETATM   21  C   UNL     1     -11.902  14.976  70.314  1.00  0.00    -0.309 C  
HETATM   22  O   UNL     1     -11.543  16.344  70.159  1.00  0.00    -0.399 OA 
HETATM   23  H   UNL     1     -11.360  16.734  71.005  1.00  0.00     0.000 HD 
BRANCH  21  24
HETATM   24  C   UNL     1     -13.114  14.897  71.250  1.00  0.00    -0.448 C  
BRANCH  24  25
HETATM   25  C   UNL     1     -12.961  13.934  72.433  1.00  0.00    -0.457 C  
BRANCH  25  26
HETATM   26  C   UNL     1     -13.532  12.546  72.147  1.00  0.00    -0.523 C  
BRANCH  26  27
HETATM   27  C   UNL     1     -12.543  11.682  71.365  1.00  0.00    -0.391 C  
HETATM   28  C   UNL     1     -12.824  10.204  71.583  1.00  0.00    -0.559 C  
ENDBRANCH  26  27
ENDBRANCH  25  26
ENDBRANCH  24  25
ENDBRANCH  21  24
ENDBRANCH  20  21
ENDBRANCH  16  19
ENDBRANCH   9  10
ENDBRANCH   2   9
TORSDOF 11
ENDMDL
MODEL      119
REMARK 921   NORMALIZED FREE ENERGY PREDICTED BY IDOCK:   -4.53 KCAL/MOL
REMARK 922        TOTAL FREE ENERGY PREDICTED BY IDOCK:   -9.83 KCAL/MOL
REMARK 923 INTER-LIGAND FREE ENERGY PREDICTED BY IDOCK:   -8.06 KCAL/MOL
REMARK 924 INTRA-LIGAND FREE ENERGY PREDICTED BY IDOCK:   -1.77 KCAL/MOL
REMARK 927      BINDING AFFINITY PREDICTED BY RF-SCORE:    0.00 PKD
ROOT
HETATM    1  C   UNL     1      -8.269  10.594  68.559  1.00  0.00    -0.128 C  
HETATM    2  C   UNL     1      -9.581  10.544  68.288  1.00  0.00    -0.164 C  
ENDROOT
BRANCH   1   3
HETATM    3  C   UNL     1      -7.149  10.634  67.556  1.00  0.00    -0.089 C  
BRANCH   3   4
HETATM    4  C   UNL     1      -6.454  11.996  67.539  1.00  0.00    -0.124 C  
BRANCH   4   5
HETATM    5  C   UNL     1      -7.299  13.084  68.205  1.00  0.00    -0.118 C  
HETATM    6  O   UNL     1      -7.452  15.422  68.604  1.00  0.00    -0.119 OA 
HETATM    7  C   UNL     1      -6.699  14.456  68.027  1.00  0.00    -0.147 C  
HETATM    8  O   UNL     1      -5.664  14.704  67.428  1.00  0.00    -0.341 OA 
ENDBRANCH   4   5
ENDBRANCH   3   4
ENDBRANCH   1   3
BRANCH   2   9
HETATM    9  C   UNL     1     -10.207  10.456  66.922  1.00  0.00    -0.281 C  
BRANCH   9  10
HETATM   10  C   UNL     1     -10.356  11.785  66.163  1.00  0.00    -0.266 C  
HETATM   11  H   UNL     1     -13.903  12.481  64.728  1.00  0.00     0.000 HD 
HETATM   12  C   UNL     1     -10.144  11.593  64.652  1.00  0.00    -0.262 C  
HETATM   13  O   UNL     1     -13.106  12.354  64.227  1.00  0.00    -0.756 OA 
HETATM   14  O   UNL     1     -10.871  10.469  64.158  1.00  0.00    -0.231 OA 
HETATM   15  C   UNL     1     -10.745  12.851  64.047  1.00  0.00    -0.429 C  
HETATM   16  C   UNL     1     -11.758  12.448  66.255  1.00  0.00    -0.457 C  
HETATM   17  H   UNL     1     -10.739  10.350  63.225  1.00  0.00     0.000 HD 
HETATM   18  C   UNL     1     -12.027  13.054  64.853  1.00  0.00    -0.396 C  
BRANCH  16  19
HETATM   19  C   UNL     1     -11.875  13.468  67.363  1.00  0.00    -0.423 C  
HETATM   20  C   UNL     1     -10.841  14.084  67.963  1.00  0.00    -0.257 C  
BRANCH  20  21
HETATM   21  C   UNL     1     -10.935  15.048  69.114  1.00  0.00    -0.261 C  
HETATM   22  O   UNL     1     -11.429  16.305  68.664  1.00  0.00    -0.367 OA 
HETATM   23  H   UNL     1     -11.489  16.914  69.390  1.00  0.00     0.000 HD 
BRANCH  21  24
HETATM   24  C   UNL     1     -11.868  14.529  70.214  1.00  0.00    -0.373 C  
BRANCH  24  25
HETATM   25  C   UNL     1     -13.158  15.335  70.407  1.00  0.00    -0.240 C  
BRANCH  25  26
HETATM   26  C   UNL     1     -13.866  15.018  71.723  1.00  0.00    -0.576 C  
BRANCH  26  27
HETATM   27  C   UNL     1     -12.877  14.587  72.805  1.00  0.00    -0.518 C  
HETATM   28  C   UNL     1     -12.783  15.634  73.902  1.00  0.00    -0.737 C  
ENDBRANCH  26  27
ENDBRANCH  25  26
ENDBRANCH  24  25
ENDBRANCH  21  24
ENDBRANCH  20  21
ENDBRANCH  16  19
ENDBRANCH   9  10
ENDBRANCH   2   9
TORSDOF 11
ENDMDL
MODEL      120
REMARK 921   NORMALIZED FREE ENERGY PREDICTED BY IDOCK:   -4.52 KCAL/MOL
REMARK 922        TOTAL FREE ENERGY PREDICTED BY IDOCK:   -9.82 KCAL/MOL
REMARK 923 INTER-LIGAND FREE ENERGY PREDICTED BY IDOCK:   -8.19 KCAL/MOL
REMARK 924 INTRA-LIGAND FREE ENERGY PREDICTED BY IDOCK:   -1.63 KCAL/MOL
REMARK 927      BINDING AFFINITY PREDICTED BY RF-SCORE:    0.00 PKD
ROOT
HETATM    1  C   UNL     1     -11.116  11.574  67.467  1.00  0.00    -0.329 C  
HETATM    2  C   UNL     1     -11.611  10.817  68.458  1.00  0.00    -0.325 C  
ENDROOT
BRANCH   1   3
HETATM    3  C   UNL     1     -10.868  13.056  67.511  1.00  0.00    -0.264 C  
BRANCH   3   4
HETATM    4  C   UNL     1     -12.036  13.843  66.914  1.00  0.00    -0.467 C  
BRANCH   4   5
HETATM    5  C   UNL     1     -12.488  13.273  65.568  1.00  0.00    -0.531 C  
HETATM    6  O   UNL     1     -12.613  13.721  63.237  1.00  0.00    -0.830 OA 
HETATM    7  C   UNL     1     -12.226  14.228  64.431  1.00  0.00    -0.447 C  
HETATM    8  O   UNL     1     -11.715  15.333  64.538  1.00  0.00    -0.402 OA 
ENDBRANCH   4   5
ENDBRANCH   3   4
ENDBRANCH   1   3
BRANCH   2   9
HETATM    9  C   UNL     1     -12.079  11.304  69.803  1.00  0.00    -0.394 C  
BRANCH   9  10
HETATM   10  C   UNL     1     -11.804  10.367  70.991  1.00  0.00    -0.458 C  
HETATM   11  H   UNL     1     -11.703   6.578  70.119  1.00  0.00     0.000 HD 
HETATM   12  C   UNL     1     -13.113   9.851  71.611  1.00  0.00    -0.437 C  
HETATM   13  O   UNL     1     -12.332   7.011  70.685  1.00  0.00    -0.319 OA 
HETATM   14  O   UNL     1     -14.024   9.396  70.612  1.00  0.00    -0.509 OA 
HETATM   15  C   UNL     1     -12.668   8.652  72.431  1.00  0.00    -0.423 C  
HETATM   16  C   UNL     1     -11.026   9.068  70.644  1.00  0.00    -0.308 C  
HETATM   17  H   UNL     1     -14.833   9.077  70.996  1.00  0.00     0.000 HD 
HETATM   18  C   UNL     1     -11.657   7.956  71.521  1.00  0.00    -0.270 C  
BRANCH  16  19
HETATM   19  C   UNL     1      -9.532   9.186  70.839  1.00  0.00    -0.343 C  
HETATM   20  C   UNL     1      -8.692   9.842  70.018  1.00  0.00    -0.237 C  
BRANCH  20  21
HETATM   21  C   UNL     1      -7.196   9.910  70.158  1.00  0.00    -0.155 C  
HETATM   22  O   UNL     1      -6.813   9.622  71.498  1.00  0.00    -0.318 OA 
HETATM   23  H   UNL     1      -5.868   9.665  71.587  1.00  0.00     0.000 HD 
BRANCH  21  24
HETATM   24  C   UNL     1      -6.493   8.913  69.230  1.00  0.00    -0.042 C  
BRANCH  24  25
HETATM   25  C   UNL     1      -7.017   8.885  67.790  1.00  0.00    -0.075 C  
BRANCH  25  26
HETATM   26  C   UNL     1      -7.754   7.591  67.450  1.00  0.00    -0.117 C  
BRANCH  26  27
HETATM   27  C   UNL     1      -7.182   6.400  68.216  1.00  0.00    -0.085 C  
HETATM   28  C   UNL     1      -8.288   5.616  68.905  1.00  0.00    -0.103 C  
ENDBRANCH  26  27
ENDBRANCH  25  26
ENDBRANCH  24  25
ENDBRANCH  21  24
ENDBRANCH  20  21
ENDBRANCH  16  19
ENDBRANCH   9  10
ENDBRANCH   2   9
TORSDOF 11
ENDMDL
MODEL      121
REMARK 921   NORMALIZED FREE ENERGY PREDICTED BY IDOCK:   -4.52 KCAL/MOL
REMARK 922        TOTAL FREE ENERGY PREDICTED BY IDOCK:   -9.82 KCAL/MOL
REMARK 923 INTER-LIGAND FREE ENERGY PREDICTED BY IDOCK:   -8.62 KCAL/MOL
REMARK 924 INTRA-LIGAND FREE ENERGY PREDICTED BY IDOCK:   -1.20 KCAL/MOL
REMARK 927      BINDING AFFINITY PREDICTED BY RF-SCORE:    0.00 PKD
ROOT
HETATM    1  C   UNL     1     -10.548  16.806  69.011  1.00  0.00    -0.343 C  
HETATM    2  C   UNL     1     -11.103  15.855  68.245  1.00  0.00    -0.345 C  
ENDROOT
BRANCH   1   3
HETATM    3  C   UNL     1      -9.321  17.613  68.686  1.00  0.00    -0.270 C  
BRANCH   3   4
HETATM    4  C   UNL     1      -9.650  19.098  68.519  1.00  0.00    -0.454 C  
BRANCH   4   5
HETATM    5  C   UNL     1     -10.746  19.334  67.480  1.00  0.00    -0.571 C  
HETATM    6  O   UNL     1     -11.150  19.742  65.173  1.00  0.00    -0.349 OA 
HETATM    7  C   UNL     1     -10.181  19.546  66.098  1.00  0.00    -0.496 C  
HETATM    8  O   UNL     1      -8.994  19.536  65.809  1.00  0.00    -0.381 OA 
ENDBRANCH   4   5
ENDBRANCH   3   4
ENDBRANCH   1   3
BRANCH   2   9
HETATM    9  C   UNL     1     -10.580  15.354  66.926  1.00  0.00    -0.309 C  
BRANCH   9  10
HETATM   10  C   UNL     1     -11.316  14.145  66.325  1.00  0.00    -0.340 C  
HETATM   11  H   UNL     1      -9.347  12.203  63.590  1.00  0.00     0.000 HD 
HETATM   12  C   UNL     1     -12.069  14.530  65.041  1.00  0.00    -0.389 C  
HETATM   13  O   UNL     1     -10.160  12.680  63.469  1.00  0.00    -0.392 OA 
HETATM   14  O   UNL     1     -11.252  15.304  64.165  1.00  0.00    -0.664 OA 
HETATM   15  C   UNL     1     -12.344  13.191  64.377  1.00  0.00    -0.426 C  
HETATM   16  C   UNL     1     -10.404  12.969  65.877  1.00  0.00    -0.296 C  
HETATM   17  H   UNL     1     -11.718  15.542  63.372  1.00  0.00     0.000 HD 
HETATM   18  C   UNL     1     -11.037  12.424  64.570  1.00  0.00    -0.316 C  
BRANCH  16  19
HETATM   19  C   UNL     1     -10.231  11.900  66.930  1.00  0.00    -0.233 C  
HETATM   20  C   UNL     1     -11.222  11.372  67.670  1.00  0.00    -0.346 C  
BRANCH  20  21
HETATM   21  C   UNL     1     -11.059  10.359  68.770  1.00  0.00    -0.250 C  
HETATM   22  O   UNL     1     -11.282   9.046  68.268  1.00  0.00    -0.459 OA 
HETATM   23  H   UNL     1     -11.179   8.406  68.962  1.00  0.00     0.000 HD 
BRANCH  21  24
HETATM   24  C   UNL     1      -9.654  10.409  69.382  1.00  0.00    -0.213 C  
BRANCH  24  25
HETATM   25  C   UNL     1      -9.115   9.064  69.883  1.00  0.00    -0.176 C  
BRANCH  25  26
HETATM   26  C   UNL     1      -9.355   8.844  71.376  1.00  0.00    -0.338 C  
BRANCH  26  27
HETATM   27  C   UNL     1      -8.530   7.676  71.912  1.00  0.00    -0.128 C  
HETATM   28  C   UNL     1      -8.814   6.406  71.126  1.00  0.00    -0.138 C  
ENDBRANCH  26  27
ENDBRANCH  25  26
ENDBRANCH  24  25
ENDBRANCH  21  24
ENDBRANCH  20  21
ENDBRANCH  16  19
ENDBRANCH   9  10
ENDBRANCH   2   9
TORSDOF 11
ENDMDL
MODEL      122
REMARK 921   NORMALIZED FREE ENERGY PREDICTED BY IDOCK:   -4.49 KCAL/MOL
REMARK 922        TOTAL FREE ENERGY PREDICTED BY IDOCK:   -9.78 KCAL/MOL
REMARK 923 INTER-LIGAND FREE ENERGY PREDICTED BY IDOCK:   -7.44 KCAL/MOL
REMARK 924 INTRA-LIGAND FREE ENERGY PREDICTED BY IDOCK:   -2.34 KCAL/MOL
REMARK 927      BINDING AFFINITY PREDICTED BY RF-SCORE:    0.00 PKD
ROOT
HETATM    1  C   UNL     1     -12.304  11.417  69.370  1.00  0.00    -0.184 C  
HETATM    2  C   UNL     1     -12.463  10.256  70.021  1.00  0.00    -0.112 C  
ENDROOT
BRANCH   1   3
HETATM    3  C   UNL     1     -11.592  12.639  69.881  1.00  0.00    -0.248 C  
BRANCH   3   4
HETATM    4  C   UNL     1     -12.286  13.927  69.432  1.00  0.00    -0.338 C  
BRANCH   4   5
HETATM    5  C   UNL     1     -12.138  15.050  70.458  1.00  0.00    -0.379 C  
HETATM    6  O   UNL     1     -13.170  16.088  72.331  1.00  0.00    -0.439 OA 
HETATM    7  C   UNL     1     -13.304  15.102  71.414  1.00  0.00    -0.467 C  
HETATM    8  O   UNL     1     -14.267  14.351  71.397  1.00  0.00    -0.370 OA 
ENDBRANCH   4   5
ENDBRANCH   3   4
ENDBRANCH   1   3
BRANCH   2   9
HETATM    9  C   UNL     1     -12.014   9.951  71.425  1.00  0.00    -0.489 C  
BRANCH   9  10
HETATM   10  C   UNL     1     -10.834   8.976  71.558  1.00  0.00    -0.416 C  
HETATM   11  H   UNL     1     -11.105   5.750  69.401  1.00  0.00     0.000 HD 
HETATM   12  C   UNL     1     -11.117   7.895  72.615  1.00  0.00    -0.385 C  
HETATM   13  O   UNL     1     -11.094   5.796  70.350  1.00  0.00    -0.298 OA 
HETATM   14  O   UNL     1     -12.419   7.334  72.457  1.00  0.00    -0.498 OA 
HETATM   15  C   UNL     1     -10.093   6.817  72.302  1.00  0.00    -0.191 C  
HETATM   16  C   UNL     1     -10.502   8.159  70.278  1.00  0.00    -0.219 C  
HETATM   17  H   UNL     1     -12.593   6.667  73.110  1.00  0.00     0.000 HD 
HETATM   18  C   UNL     1     -10.111   6.743  70.776  1.00  0.00    -0.191 C  
BRANCH  16  19
HETATM   19  C   UNL     1      -9.434   8.789  69.416  1.00  0.00    -0.161 C  
HETATM   20  C   UNL     1      -8.920  10.020  69.593  1.00  0.00    -0.221 C  
BRANCH  20  21
HETATM   21  C   UNL     1      -7.908  10.690  68.705  1.00  0.00    -0.121 C  
HETATM   22  O   UNL     1      -7.457   9.785  67.703  1.00  0.00    -0.090 OA 
HETATM   23  H   UNL     1      -6.818  10.208  67.141  1.00  0.00     0.000 HD 
BRANCH  21  24
HETATM   24  C   UNL     1      -8.491  11.926  68.012  1.00  0.00    -0.162 C  
BRANCH  24  25
HETATM   25  C   UNL     1      -9.436  11.631  66.841  1.00  0.00    -0.195 C  
BRANCH  25  26
HETATM   26  C   UNL     1     -10.252  12.849  66.413  1.00  0.00    -0.273 C  
BRANCH  26  27
HETATM   27  C   UNL     1     -11.678  12.463  66.026  1.00  0.00    -0.469 C  
HETATM   28  C   UNL     1     -12.527  13.699  65.777  1.00  0.00    -0.524 C  
ENDBRANCH  26  27
ENDBRANCH  25  26
ENDBRANCH  24  25
ENDBRANCH  21  24
ENDBRANCH  20  21
ENDBRANCH  16  19
ENDBRANCH   9  10
ENDBRANCH   2   9
TORSDOF 11
ENDMDL
MODEL      123
REMARK 921   NORMALIZED FREE ENERGY PREDICTED BY IDOCK:   -4.49 KCAL/MOL
REMARK 922        TOTAL FREE ENERGY PREDICTED BY IDOCK:   -9.77 KCAL/MOL
REMARK 923 INTER-LIGAND FREE ENERGY PREDICTED BY IDOCK:   -7.97 KCAL/MOL
REMARK 924 INTRA-LIGAND FREE ENERGY PREDICTED BY IDOCK:   -1.80 KCAL/MOL
REMARK 927      BINDING AFFINITY PREDICTED BY RF-SCORE:    0.00 PKD
ROOT
HETATM    1  C   UNL     1     -10.860  14.932  67.972  1.00  0.00    -0.263 C  
HETATM    2  C   UNL     1     -12.006  14.475  67.447  1.00  0.00    -0.367 C  
ENDROOT
BRANCH   1   3
HETATM    3  C   UNL     1      -9.682  15.477  67.213  1.00  0.00    -0.218 C  
BRANCH   3   4
HETATM    4  C   UNL     1      -9.925  16.915  66.751  1.00  0.00    -0.291 C  
BRANCH   4   5
HETATM    5  C   UNL     1     -10.510  17.788  67.862  1.00  0.00    -0.401 C  
HETATM    6  O   UNL     1     -10.382  19.925  68.895  1.00  0.00    -0.414 OA 
HETATM    7  C   UNL     1      -9.857  19.146  67.920  1.00  0.00    -0.341 C  
HETATM    8  O   UNL     1      -8.963  19.534  67.183  1.00  0.00    -0.287 OA 
ENDBRANCH   4   5
ENDBRANCH   3   4
ENDBRANCH   1   3
BRANCH   2   9
HETATM    9  C   UNL     1     -12.331  14.355  65.982  1.00  0.00    -0.337 C  
BRANCH   9  10
HETATM   10  C   UNL     1     -12.208  12.946  65.378  1.00  0.00    -0.528 C  
HETATM   11  H   UNL     1      -8.964  12.301  63.333  1.00  0.00     0.000 HD 
HETATM   12  C   UNL     1     -12.732  12.910  63.933  1.00  0.00    -0.132 C  
HETATM   13  O   UNL     1      -9.853  12.301  62.997  1.00  0.00    -0.314 OA 
HETATM   14  O   UNL     1     -12.228  14.000  63.164  1.00  0.00    -1.071 OA 
HETATM   15  C   UNL     1     -12.145  11.623  63.376  1.00  0.00    -0.319 C  
HETATM   16  C   UNL     1     -10.759  12.401  65.257  1.00  0.00    -0.322 C  
HETATM   17  H   UNL     1     -12.552  13.977  62.271  1.00  0.00     0.000 HD 
HETATM   18  C   UNL     1     -10.715  11.624  63.916  1.00  0.00    -0.398 C  
BRANCH  16  19
HETATM   19  C   UNL     1     -10.328  11.557  66.434  1.00  0.00    -0.277 C  
HETATM   20  C   UNL     1     -11.160  10.945  67.296  1.00  0.00    -0.350 C  
BRANCH  20  21
HETATM   21  C   UNL     1     -10.749  10.160  68.512  1.00  0.00    -0.230 C  
HETATM   22  O   UNL     1     -11.839  10.053  69.420  1.00  0.00    -0.474 OA 
HETATM   23  H   UNL     1     -11.580   9.557  70.188  1.00  0.00     0.000 HD 
BRANCH  21  24
HETATM   24  C   UNL     1     -10.286   8.745  68.144  1.00  0.00    -0.266 C  
BRANCH  24  25
HETATM   25  C   UNL     1      -8.915   8.345  68.699  1.00  0.00    -0.140 C  
BRANCH  25  26
HETATM   26  C   UNL     1      -8.075   9.545  69.135  1.00  0.00    -0.103 C  
BRANCH  26  27
HETATM   27  C   UNL     1      -6.661   9.480  68.562  1.00  0.00    -0.053 C  
HETATM   28  C   UNL     1      -6.695   9.358  67.047  1.00  0.00    -0.076 C  
ENDBRANCH  26  27
ENDBRANCH  25  26
ENDBRANCH  24  25
ENDBRANCH  21  24
ENDBRANCH  20  21
ENDBRANCH  16  19
ENDBRANCH   9  10
ENDBRANCH   2   9
TORSDOF 11
ENDMDL
MODEL      124
REMARK 921   NORMALIZED FREE ENERGY PREDICTED BY IDOCK:   -4.48 KCAL/MOL
REMARK 922        TOTAL FREE ENERGY PREDICTED BY IDOCK:   -9.76 KCAL/MOL
REMARK 923 INTER-LIGAND FREE ENERGY PREDICTED BY IDOCK:   -7.35 KCAL/MOL
REMARK 924 INTRA-LIGAND FREE ENERGY PREDICTED BY IDOCK:   -2.42 KCAL/MOL
REMARK 927      BINDING AFFINITY PREDICTED BY RF-SCORE:    0.00 PKD
ROOT
HETATM    1  C   UNL     1     -12.880  12.957  71.566  1.00  0.00    -0.380 C  
HETATM    2  C   UNL     1     -13.335  11.800  72.069  1.00  0.00    -0.417 C  
ENDROOT
BRANCH   1   3
HETATM    3  C   UNL     1     -12.231  13.155  70.224  1.00  0.00    -0.376 C  
BRANCH   3   4
HETATM    4  C   UNL     1     -12.035  14.639  69.905  1.00  0.00    -0.381 C  
BRANCH   4   5
HETATM    5  C   UNL     1     -10.559  15.007  69.752  1.00  0.00    -0.232 C  
HETATM    6  O   UNL     1      -9.003  16.177  68.389  1.00  0.00    -0.185 OA 
HETATM    7  C   UNL     1     -10.307  15.838  68.520  1.00  0.00    -0.229 C  
HETATM    8  O   UNL     1     -11.158  16.192  67.718  1.00  0.00    -0.323 OA 
ENDBRANCH   4   5
ENDBRANCH   3   4
ENDBRANCH   1   3
BRANCH   2   9
HETATM    9  C   UNL     1     -13.235  10.445  71.422  1.00  0.00    -0.459 C  
BRANCH   9  10
HETATM   10  C   UNL     1     -11.911   9.693  71.634  1.00  0.00    -0.457 C  
HETATM   11  H   UNL     1     -11.123   6.954  68.987  1.00  0.00     0.000 HD 
HETATM   12  C   UNL     1     -12.126   8.395  72.429  1.00  0.00    -0.378 C  
HETATM   13  O   UNL     1     -11.279   6.816  69.914  1.00  0.00    -0.296 OA 
HETATM   14  O   UNL     1     -13.232   7.648  71.927  1.00  0.00    -0.401 OA 
HETATM   15  C   UNL     1     -10.857   7.602  72.163  1.00  0.00    -0.293 C  
HETATM   16  C   UNL     1     -11.205   9.215  70.335  1.00  0.00    -0.279 C  
HETATM   17  H   UNL     1     -13.365   6.846  72.418  1.00  0.00     0.000 HD 
HETATM   18  C   UNL     1     -10.606   7.825  70.673  1.00  0.00    -0.222 C  
BRANCH  16  19
HETATM   19  C   UNL     1     -10.169  10.185  69.815  1.00  0.00    -0.286 C  
HETATM   20  C   UNL     1      -8.956   9.845  69.345  1.00  0.00    -0.204 C  
BRANCH  20  21
HETATM   21  C   UNL     1      -7.887  10.801  68.889  1.00  0.00    -0.136 C  
HETATM   22  O   UNL     1      -7.031  10.169  67.945  1.00  0.00    -0.081 OA 
HETATM   23  H   UNL     1      -6.356  10.772  67.657  1.00  0.00     0.000 HD 
BRANCH  21  24
HETATM   24  C   UNL     1      -8.487  12.052  68.235  1.00  0.00    -0.167 C  
BRANCH  24  25
HETATM   25  C   UNL     1      -8.794  11.920  66.739  1.00  0.00    -0.193 C  
BRANCH  25  26
HETATM   26  C   UNL     1      -9.919  12.845  66.279  1.00  0.00    -0.271 C  
BRANCH  26  27
HETATM   27  C   UNL     1     -11.240  12.511  66.969  1.00  0.00    -0.353 C  
HETATM   28  C   UNL     1     -12.392  13.274  66.336  1.00  0.00    -0.347 C  
ENDBRANCH  26  27
ENDBRANCH  25  26
ENDBRANCH  24  25
ENDBRANCH  21  24
ENDBRANCH  20  21
ENDBRANCH  16  19
ENDBRANCH   9  10
ENDBRANCH   2   9
TORSDOF 11
ENDMDL
MODEL      125
REMARK 921   NORMALIZED FREE ENERGY PREDICTED BY IDOCK:   -4.47 KCAL/MOL
REMARK 922        TOTAL FREE ENERGY PREDICTED BY IDOCK:   -9.73 KCAL/MOL
REMARK 923 INTER-LIGAND FREE ENERGY PREDICTED BY IDOCK:   -7.01 KCAL/MOL
REMARK 924 INTRA-LIGAND FREE ENERGY PREDICTED BY IDOCK:   -2.72 KCAL/MOL
REMARK 927      BINDING AFFINITY PREDICTED BY RF-SCORE:    0.00 PKD
ROOT
HETATM    1  C   UNL     1     -10.829   5.243  71.659  1.00  0.00    -0.181 C  
HETATM    2  C   UNL     1     -11.322   6.020  72.635  1.00  0.00    -0.320 C  
ENDROOT
BRANCH   1   3
HETATM    3  C   UNL     1     -10.117   5.708  70.419  1.00  0.00    -0.284 C  
BRANCH   3   4
HETATM    4  C   UNL     1      -8.620   5.902  70.666  1.00  0.00    -0.133 C  
BRANCH   4   5
HETATM    5  C   UNL     1      -8.102   7.213  70.074  1.00  0.00    -0.127 C  
HETATM    6  O   UNL     1      -6.576   8.143  68.507  1.00  0.00    -0.055 OA 
HETATM    7  C   UNL     1      -7.027   6.984  69.042  1.00  0.00    -0.078 C  
HETATM    8  O   UNL     1      -6.598   5.893  68.697  1.00  0.00    -0.053 OA 
ENDBRANCH   4   5
ENDBRANCH   3   4
ENDBRANCH   1   3
BRANCH   2   9
HETATM    9  C   UNL     1     -11.320   7.524  72.664  1.00  0.00    -0.395 C  
BRANCH   9  10
HETATM   10  C   UNL     1     -12.164   8.220  71.584  1.00  0.00    -0.350 C  
HETATM   11  H   UNL     1     -12.510  12.073  71.982  1.00  0.00     0.000 HD 
HETATM   12  C   UNL     1     -13.627   8.375  72.030  1.00  0.00    -0.357 C  
HETATM   13  O   UNL     1     -13.212  11.435  72.032  1.00  0.00    -0.503 OA 
HETATM   14  O   UNL     1     -13.720   8.879  73.361  1.00  0.00    -1.094 OA 
HETATM   15  C   UNL     1     -14.177   9.429  71.084  1.00  0.00     0.129 C  
HETATM   16  C   UNL     1     -11.731   9.671  71.236  1.00  0.00    -0.458 C  
HETATM   17  H   UNL     1     -14.624   8.974  73.637  1.00  0.00     0.000 HD 
HETATM   18  C   UNL     1     -13.048  10.456  71.003  1.00  0.00    -0.362 C  
BRANCH  16  19
HETATM   19  C   UNL     1     -10.786   9.757  70.061  1.00  0.00    -0.326 C  
HETATM   20  C   UNL     1     -11.014  10.449  68.931  1.00  0.00    -0.289 C  
BRANCH  20  21
HETATM   21  C   UNL     1     -10.116  10.489  67.724  1.00  0.00    -0.175 C  
HETATM   22  O   UNL     1      -8.759  10.308  68.113  1.00  0.00    -0.121 OA 
HETATM   23  H   UNL     1      -8.193  10.333  67.352  1.00  0.00     0.000 HD 
BRANCH  21  24
HETATM   24  C   UNL     1     -10.478   9.398  66.711  1.00  0.00    -0.265 C  
BRANCH  24  25
HETATM   25  C   UNL     1      -9.877   8.017  67.000  1.00  0.00    -0.295 C  
BRANCH  25  26
HETATM   26  C   UNL     1     -10.938   6.938  67.211  1.00  0.00    -0.406 C  
BRANCH  26  27
HETATM   27  C   UNL     1     -10.423   5.557  66.810  1.00  0.00    -0.355 C  
HETATM   28  C   UNL     1      -9.054   5.658  66.158  1.00  0.00    -0.158 C  
ENDBRANCH  26  27
ENDBRANCH  25  26
ENDBRANCH  24  25
ENDBRANCH  21  24
ENDBRANCH  20  21
ENDBRANCH  16  19
ENDBRANCH   9  10
ENDBRANCH   2   9
TORSDOF 11
ENDMDL
MODEL      126
REMARK 921   NORMALIZED FREE ENERGY PREDICTED BY IDOCK:   -4.44 KCAL/MOL
REMARK 922        TOTAL FREE ENERGY PREDICTED BY IDOCK:   -9.69 KCAL/MOL
REMARK 923 INTER-LIGAND FREE ENERGY PREDICTED BY IDOCK:   -7.80 KCAL/MOL
REMARK 924 INTRA-LIGAND FREE ENERGY PREDICTED BY IDOCK:   -1.89 KCAL/MOL
REMARK 927      BINDING AFFINITY PREDICTED BY RF-SCORE:    0.00 PKD
ROOT
HETATM    1  C   UNL     1     -12.587   8.309  72.202  1.00  0.00    -0.379 C  
HETATM    2  C   UNL     1     -11.753   7.311  71.871  1.00  0.00    -0.323 C  
ENDROOT
BRANCH   1   3
HETATM    3  C   UNL     1     -13.483   9.072  71.267  1.00  0.00    -0.250 C  
BRANCH   3   4
HETATM    4  C   UNL     1     -13.020  10.520  71.097  1.00  0.00    -0.506 C  
BRANCH   4   5
HETATM    5  C   UNL     1     -13.558  11.432  72.199  1.00  0.00    -0.084 C  
HETATM    6  O   UNL     1     -13.660  13.686  72.950  1.00  0.00    -0.665 OA 
HETATM    7  C   UNL     1     -13.173  12.874  71.982  1.00  0.00    -0.448 C  
HETATM    8  O   UNL     1     -12.511  13.296  71.046  1.00  0.00    -0.366 OA 
ENDBRANCH   4   5
ENDBRANCH   3   4
ENDBRANCH   1   3
BRANCH   2   9
HETATM    9  C   UNL     1     -11.495   6.787  70.484  1.00  0.00    -0.413 C  
BRANCH   9  10
HETATM   10  C   UNL     1     -10.233   7.321  69.787  1.00  0.00    -0.214 C  
HETATM   11  H   UNL     1     -10.454   7.536  65.910  1.00  0.00     0.000 HD 
HETATM   12  C   UNL     1      -9.313   6.174  69.340  1.00  0.00    -0.139 C  
HETATM   13  O   UNL     1      -9.867   6.983  66.412  1.00  0.00    -0.140 OA 
HETATM   14  O   UNL     1     -10.042   5.142  68.678  1.00  0.00    -0.172 OA 
HETATM   15  C   UNL     1      -8.393   6.832  68.325  1.00  0.00    -0.118 C  
HETATM   16  C   UNL     1     -10.487   8.118  68.478  1.00  0.00    -0.199 C  
HETATM   17  H   UNL     1      -9.473   4.433  68.403  1.00  0.00     0.000 HD 
HETATM   18  C   UNL     1      -9.336   7.721  67.517  1.00  0.00    -0.139 C  
BRANCH  16  19
HETATM   19  C   UNL     1     -10.583   9.612  68.686  1.00  0.00    -0.246 C  
HETATM   20  C   UNL     1     -10.962  10.502  67.752  1.00  0.00    -0.372 C  
BRANCH  20  21
HETATM   21  C   UNL     1     -10.996  11.997  67.920  1.00  0.00    -0.220 C  
HETATM   22  O   UNL     1     -10.561  12.355  69.227  1.00  0.00    -0.431 OA 
HETATM   23  H   UNL     1     -10.582  13.299  69.333  1.00  0.00     0.000 HD 
BRANCH  21  24
HETATM   24  C   UNL     1     -10.095  12.704  66.900  1.00  0.00    -0.234 C  
BRANCH  24  25
HETATM   25  C   UNL     1     -10.816  13.679  65.963  1.00  0.00    -0.275 C  
BRANCH  25  26
HETATM   26  C   UNL     1     -12.246  13.248  65.641  1.00  0.00    -0.514 C  
BRANCH  26  27
HETATM   27  C   UNL     1     -12.423  12.956  64.152  1.00  0.00    -0.413 C  
HETATM   28  C   UNL     1     -11.193  12.270  63.583  1.00  0.00    -0.539 C  
ENDBRANCH  26  27
ENDBRANCH  25  26
ENDBRANCH  24  25
ENDBRANCH  21  24
ENDBRANCH  20  21
ENDBRANCH  16  19
ENDBRANCH   9  10
ENDBRANCH   2   9
TORSDOF 11
ENDMDL
MODEL      127
REMARK 921   NORMALIZED FREE ENERGY PREDICTED BY IDOCK:   -4.43 KCAL/MOL
REMARK 922        TOTAL FREE ENERGY PREDICTED BY IDOCK:   -9.67 KCAL/MOL
REMARK 923 INTER-LIGAND FREE ENERGY PREDICTED BY IDOCK:   -8.16 KCAL/MOL
REMARK 924 INTRA-LIGAND FREE ENERGY PREDICTED BY IDOCK:   -1.51 KCAL/MOL
REMARK 927      BINDING AFFINITY PREDICTED BY RF-SCORE:    0.00 PKD
ROOT
HETATM    1  C   UNL     1     -10.340  11.358  65.525  1.00  0.00    -0.317 C  
HETATM    2  C   UNL     1     -10.346  10.129  66.064  1.00  0.00    -0.234 C  
ENDROOT
BRANCH   1   3
HETATM    3  C   UNL     1     -10.227  12.660  66.268  1.00  0.00    -0.264 C  
BRANCH   3   4
HETATM    4  C   UNL     1     -11.462  13.538  66.060  1.00  0.00    -0.345 C  
BRANCH   4   5
HETATM    5  C   UNL     1     -11.097  14.947  65.590  1.00  0.00    -0.348 C  
HETATM    6  O   UNL     1     -11.551  16.601  63.945  1.00  0.00    -1.204 OA 
HETATM    7  C   UNL     1     -11.864  15.350  64.355  1.00  0.00    -0.256 C  
HETATM    8  O   UNL     1     -12.685  14.657  63.775  1.00  0.00    -0.778 OA 
ENDBRANCH   4   5
ENDBRANCH   3   4
ENDBRANCH   1   3
BRANCH   2   9
HETATM    9  C   UNL     1     -10.302   9.799  67.531  1.00  0.00    -0.291 C  
BRANCH   9  10
HETATM   10  C   UNL     1     -10.170   8.308  67.882  1.00  0.00    -0.276 C  
HETATM   11  H   UNL     1      -7.046   7.380  70.005  1.00  0.00     0.000 HD 
HETATM   12  C   UNL     1      -9.286   7.570  66.863  1.00  0.00    -0.157 C  
HETATM   13  O   UNL     1      -7.232   7.092  69.119  1.00  0.00    -0.081 OA 
HETATM   14  O   UNL     1      -8.085   8.289  66.590  1.00  0.00    -0.099 OA 
HETATM   15  C   UNL     1      -8.916   6.283  67.581  1.00  0.00    -0.115 C  
HETATM   16  C   UNL     1      -9.488   8.006  69.245  1.00  0.00    -0.155 C  
HETATM   17  H   UNL     1      -7.539   7.833  65.960  1.00  0.00     0.000 HD 
HETATM   18  C   UNL     1      -8.616   6.746  69.006  1.00  0.00    -0.131 C  
BRANCH  16  19
HETATM   19  C   UNL     1     -10.464   7.831  70.385  1.00  0.00    -0.221 C  
HETATM   20  C   UNL     1     -11.695   7.299  70.278  1.00  0.00    -0.164 C  
BRANCH  20  21
HETATM   21  C   UNL     1     -12.705   7.182  71.388  1.00  0.00    -0.391 C  
HETATM   22  O   UNL     1     -12.341   6.131  72.275  1.00  0.00    -0.496 OA 
HETATM   23  H   UNL     1     -12.978   6.056  72.976  1.00  0.00     0.000 HD 
BRANCH  21  24
HETATM   24  C   UNL     1     -12.814   8.480  72.195  1.00  0.00    -0.413 C  
BRANCH  24  25
HETATM   25  C   UNL     1     -13.392   9.675  71.429  1.00  0.00    -0.444 C  
BRANCH  25  26
HETATM   26  C   UNL     1     -12.368  10.786  71.197  1.00  0.00    -0.498 C  
BRANCH  26  27
HETATM   27  C   UNL     1     -12.472  11.360  69.786  1.00  0.00    -0.161 C  
HETATM   28  C   UNL     1     -11.560  12.564  69.621  1.00  0.00    -0.323 C  
ENDBRANCH  26  27
ENDBRANCH  25  26
ENDBRANCH  24  25
ENDBRANCH  21  24
ENDBRANCH  20  21
ENDBRANCH  16  19
ENDBRANCH   9  10
ENDBRANCH   2   9
TORSDOF 11
ENDMDL
MODEL      128
REMARK 921   NORMALIZED FREE ENERGY PREDICTED BY IDOCK:   -4.42 KCAL/MOL
REMARK 922        TOTAL FREE ENERGY PREDICTED BY IDOCK:   -9.66 KCAL/MOL
REMARK 923 INTER-LIGAND FREE ENERGY PREDICTED BY IDOCK:   -7.72 KCAL/MOL
REMARK 924 INTRA-LIGAND FREE ENERGY PREDICTED BY IDOCK:   -1.93 KCAL/MOL
REMARK 927      BINDING AFFINITY PREDICTED BY RF-SCORE:    0.00 PKD
ROOT
HETATM    1  C   UNL     1     -11.916  13.345  68.926  1.00  0.00    -0.362 C  
HETATM    2  C   UNL     1     -11.833  13.281  67.588  1.00  0.00    -0.400 C  
ENDROOT
BRANCH   1   3
HETATM    3  C   UNL     1     -12.012  14.593  69.758  1.00  0.00    -0.378 C  
BRANCH   3   4
HETATM    4  C   UNL     1     -12.374  14.277  71.210  1.00  0.00    -0.439 C  
BRANCH   4   5
HETATM    5  C   UNL     1     -13.152  15.414  71.873  1.00  0.00    -0.515 C  
HETATM    6  O   UNL     1     -13.513  16.553  73.928  1.00  0.00    -0.513 OA 
HETATM    7  C   UNL     1     -12.835  15.539  73.342  1.00  0.00    -0.540 C  
HETATM    8  O   UNL     1     -12.054  14.831  73.960  1.00  0.00    -0.452 OA 
ENDBRANCH   4   5
ENDBRANCH   3   4
ENDBRANCH   1   3
BRANCH   2   9
HETATM    9  C   UNL     1     -11.758  14.450  66.643  1.00  0.00    -0.410 C  
BRANCH   9  10
HETATM   10  C   UNL     1     -10.349  14.847  66.174  1.00  0.00    -0.312 C  
HETATM   11  H   UNL     1      -7.796  15.556  69.021  1.00  0.00     0.000 HD 
HETATM   12  C   UNL     1     -10.192  16.374  66.103  1.00  0.00    -0.348 C  
HETATM   13  O   UNL     1      -8.118  16.182  68.383  1.00  0.00    -0.158 OA 
HETATM   14  O   UNL     1     -10.696  17.010  67.276  1.00  0.00    -0.299 OA 
HETATM   15  C   UNL     1      -8.686  16.575  66.064  1.00  0.00    -0.255 C  
HETATM   16  C   UNL     1      -9.189  14.402  67.108  1.00  0.00    -0.230 C  
HETATM   17  H   UNL     1     -10.600  17.954  67.232  1.00  0.00     0.000 HD 
HETATM   18  C   UNL     1      -8.168  15.570  67.091  1.00  0.00    -0.215 C  
BRANCH  16  19
HETATM   19  C   UNL     1      -8.570  13.080  66.719  1.00  0.00    -0.061 C  
HETATM   20  C   UNL     1      -7.659  12.407  67.445  1.00  0.00    -0.160 C  
BRANCH  20  21
HETATM   21  C   UNL     1      -6.981  11.126  67.040  1.00  0.00    -0.123 C  
HETATM   22  O   UNL     1      -6.998  10.199  68.119  1.00  0.00    -0.073 OA 
HETATM   23  H   UNL     1      -6.569   9.390  67.864  1.00  0.00     0.000 HD 
BRANCH  21  24
HETATM   24  C   UNL     1      -7.668  10.477  65.834  1.00  0.00    -0.148 C  
BRANCH  24  25
HETATM   25  C   UNL     1      -8.806   9.509  66.177  1.00  0.00    -0.177 C  
BRANCH  25  26
HETATM   26  C   UNL     1     -10.149   9.936  65.587  1.00  0.00    -0.307 C  
BRANCH  26  27
HETATM   27  C   UNL     1      -9.972  10.663  64.255  1.00  0.00    -0.413 C  
HETATM   28  C   UNL     1     -10.979  11.792  64.115  1.00  0.00    -0.437 C  
ENDBRANCH  26  27
ENDBRANCH  25  26
ENDBRANCH  24  25
ENDBRANCH  21  24
ENDBRANCH  20  21
ENDBRANCH  16  19
ENDBRANCH   9  10
ENDBRANCH   2   9
TORSDOF 11
ENDMDL
MODEL      129
REMARK 921   NORMALIZED FREE ENERGY PREDICTED BY IDOCK:   -4.41 KCAL/MOL
REMARK 922        TOTAL FREE ENERGY PREDICTED BY IDOCK:   -9.64 KCAL/MOL
REMARK 923 INTER-LIGAND FREE ENERGY PREDICTED BY IDOCK:   -8.04 KCAL/MOL
REMARK 924 INTRA-LIGAND FREE ENERGY PREDICTED BY IDOCK:   -1.60 KCAL/MOL
REMARK 927      BINDING AFFINITY PREDICTED BY RF-SCORE:    0.00 PKD
ROOT
HETATM    1  C   UNL     1      -9.330   9.164  65.728  1.00  0.00    -0.309 C  
HETATM    2  C   UNL     1      -9.523  10.100  64.788  1.00  0.00    -0.355 C  
ENDROOT
BRANCH   1   3
HETATM    3  C   UNL     1     -10.344   8.672  66.724  1.00  0.00    -0.336 C  
BRANCH   3   4
HETATM    4  C   UNL     1     -10.049   9.190  68.133  1.00  0.00    -0.225 C  
BRANCH   4   5
HETATM    5  C   UNL     1     -10.996  10.318  68.543  1.00  0.00    -0.294 C  
HETATM    6  O   UNL     1     -11.978  11.419  70.406  1.00  0.00    -0.340 OA 
HETATM    7  C   UNL     1     -11.151  10.413  70.040  1.00  0.00    -0.314 C  
HETATM    8  O   UNL     1     -10.599   9.689  70.856  1.00  0.00    -0.304 OA 
ENDBRANCH   4   5
ENDBRANCH   3   4
ENDBRANCH   1   3
BRANCH   2   9
HETATM    9  C   UNL     1     -10.780  10.900  64.572  1.00  0.00    -0.258 C  
BRANCH   9  10
HETATM   10  C   UNL     1     -10.641  12.424  64.717  1.00  0.00    -0.331 C  
HETATM   11  H   UNL     1     -12.213  13.927  67.942  1.00  0.00     0.000 HD 
HETATM   12  C   UNL     1     -11.879  13.154  64.171  1.00  0.00    -0.429 C  
HETATM   13  O   UNL     1     -12.485  14.099  67.048  1.00  0.00    -0.325 OA 
HETATM   14  O   UNL     1     -13.088  12.557  64.636  1.00  0.00    -0.845 OA 
HETATM   15  C   UNL     1     -11.770  14.542  64.779  1.00  0.00    -0.425 C  
HETATM   16  C   UNL     1     -10.524  12.943  66.177  1.00  0.00    -0.283 C  
HETATM   17  H   UNL     1     -13.854  13.008  64.299  1.00  0.00     0.000 HD 
HETATM   18  C   UNL     1     -11.333  14.266  66.217  1.00  0.00    -0.346 C  
BRANCH  16  19
HETATM   19  C   UNL     1      -9.099  13.117  66.647  1.00  0.00    -0.180 C  
HETATM   20  C   UNL     1      -8.649  14.138  67.398  1.00  0.00    -0.219 C  
BRANCH  20  21
HETATM   21  C   UNL     1      -7.221  14.364  67.816  1.00  0.00    -0.175 C  
HETATM   22  O   UNL     1      -6.366  13.425  67.173  1.00  0.00    -0.458 OA 
HETATM   23  H   UNL     1      -5.464  13.567  67.437  1.00  0.00     0.000 HD 
BRANCH  21  24
HETATM   24  C   UNL     1      -6.742  15.776  67.460  1.00  0.00    -0.220 C  
BRANCH  24  25
HETATM   25  C   UNL     1      -6.803  16.791  68.606  1.00  0.00    -0.175 C  
BRANCH  25  26
HETATM   26  C   UNL     1      -7.445  18.115  68.196  1.00  0.00    -0.262 C  
BRANCH  26  27
HETATM   27  C   UNL     1      -6.486  19.289  68.389  1.00  0.00    -0.271 C  
HETATM   28  C   UNL     1      -6.459  19.733  69.842  1.00  0.00    -0.362 C  
ENDBRANCH  26  27
ENDBRANCH  25  26
ENDBRANCH  24  25
ENDBRANCH  21  24
ENDBRANCH  20  21
ENDBRANCH  16  19
ENDBRANCH   9  10
ENDBRANCH   2   9
TORSDOF 11
ENDMDL
MODEL      130
REMARK 921   NORMALIZED FREE ENERGY PREDICTED BY IDOCK:   -4.41 KCAL/MOL
REMARK 922        TOTAL FREE ENERGY PREDICTED BY IDOCK:   -9.64 KCAL/MOL
REMARK 923 INTER-LIGAND FREE ENERGY PREDICTED BY IDOCK:   -8.12 KCAL/MOL
REMARK 924 INTRA-LIGAND FREE ENERGY PREDICTED BY IDOCK:   -1.52 KCAL/MOL
REMARK 927      BINDING AFFINITY PREDICTED BY RF-SCORE:    0.00 PKD
ROOT
HETATM    1  C   UNL     1     -10.816  10.898  68.110  1.00  0.00    -0.283 C  
HETATM    2  C   UNL     1     -10.015  11.806  67.531  1.00  0.00    -0.204 C  
ENDROOT
BRANCH   1   3
HETATM    3  C   UNL     1     -11.356  10.946  69.512  1.00  0.00    -0.351 C  
BRANCH   3   4
HETATM    4  C   UNL     1     -10.768   9.834  70.382  1.00  0.00    -0.368 C  
BRANCH   4   5
HETATM    5  C   UNL     1      -9.262   9.671  70.171  1.00  0.00    -0.287 C  
HETATM    6  O   UNL     1      -7.284   8.727  71.092  1.00  0.00    -0.075 OA 
HETATM    7  C   UNL     1      -8.615   8.884  71.283  1.00  0.00    -0.198 C  
HETATM    8  O   UNL     1      -9.196   8.419  72.252  1.00  0.00    -0.213 OA 
ENDBRANCH   4   5
ENDBRANCH   3   4
ENDBRANCH   1   3
BRANCH   2   9
HETATM    9  C   UNL     1      -9.441  13.034  68.185  1.00  0.00    -0.218 C  
BRANCH   9  10
HETATM   10  C   UNL     1     -10.371  14.255  68.258  1.00  0.00    -0.242 C  
HETATM   11  H   UNL     1      -8.766  17.623  67.157  1.00  0.00     0.000 HD 
HETATM   12  C   UNL     1     -10.214  14.999  69.595  1.00  0.00    -0.157 C  
HETATM   13  O   UNL     1      -9.084  17.406  68.026  1.00  0.00    -0.247 OA 
HETATM   14  O   UNL     1      -8.842  15.197  69.928  1.00  0.00    -0.433 OA 
HETATM   15  C   UNL     1     -10.838  16.357  69.321  1.00  0.00    -0.327 C  
HETATM   16  C   UNL     1     -10.105  15.356  67.194  1.00  0.00    -0.245 C  
HETATM   17  H   UNL     1      -8.745  15.656  70.755  1.00  0.00     0.000 HD 
HETATM   18  C   UNL     1     -10.327  16.706  67.924  1.00  0.00    -0.310 C  
BRANCH  16  19
HETATM   19  C   UNL     1     -10.956  15.218  65.953  1.00  0.00    -0.325 C  
HETATM   20  C   UNL     1     -11.647  14.117  65.605  1.00  0.00    -0.339 C  
BRANCH  20  21
HETATM   21  C   UNL     1     -12.442  13.938  64.340  1.00  0.00    -0.279 C  
HETATM   22  O   UNL     1     -12.513  15.166  63.625  1.00  0.00    -0.985 OA 
HETATM   23  H   UNL     1     -13.014  15.054  62.827  1.00  0.00     0.000 HD 
BRANCH  21  24
HETATM   24  C   UNL     1     -11.817  12.881  63.423  1.00  0.00    -0.576 C  
BRANCH  24  25
HETATM   25  C   UNL     1     -10.451  12.353  63.876  1.00  0.00    -0.469 C  
BRANCH  25  26
HETATM   26  C   UNL     1     -10.461  10.854  64.175  1.00  0.00    -0.397 C  
BRANCH  26  27
HETATM   27  C   UNL     1      -9.535  10.087  63.235  1.00  0.00    -0.230 C  
HETATM   28  C   UNL     1      -8.676  11.040  62.421  1.00  0.00    -0.356 C  
ENDBRANCH  26  27
ENDBRANCH  25  26
ENDBRANCH  24  25
ENDBRANCH  21  24
ENDBRANCH  20  21
ENDBRANCH  16  19
ENDBRANCH   9  10
ENDBRANCH   2   9
TORSDOF 11
ENDMDL
MODEL      131
REMARK 921   NORMALIZED FREE ENERGY PREDICTED BY IDOCK:   -4.41 KCAL/MOL
REMARK 922        TOTAL FREE ENERGY PREDICTED BY IDOCK:   -9.64 KCAL/MOL
REMARK 923 INTER-LIGAND FREE ENERGY PREDICTED BY IDOCK:   -7.28 KCAL/MOL
REMARK 924 INTRA-LIGAND FREE ENERGY PREDICTED BY IDOCK:   -2.35 KCAL/MOL
REMARK 927      BINDING AFFINITY PREDICTED BY RF-SCORE:    0.00 PKD
ROOT
HETATM    1  C   UNL     1     -10.804  12.742  69.422  1.00  0.00     0.053 C  
HETATM    2  C   UNL     1     -10.621  12.738  68.093  1.00  0.00    -0.242 C  
ENDROOT
BRANCH   1   3
HETATM    3  C   UNL     1     -12.088  12.452  70.149  1.00  0.00    -0.366 C  
BRANCH   3   4
HETATM    4  C   UNL     1     -12.428  10.961  70.122  1.00  0.00    -0.356 C  
BRANCH   4   5
HETATM    5  C   UNL     1     -11.690  10.180  71.209  1.00  0.00    -0.426 C  
HETATM    6  O   UNL     1     -11.866   8.349  72.714  1.00  0.00    -0.371 OA 
HETATM    7  C   UNL     1     -12.522   9.050  71.760  1.00  0.00    -0.368 C  
HETATM    8  O   UNL     1     -13.655   8.765  71.402  1.00  0.00    -0.327 OA 
ENDBRANCH   4   5
ENDBRANCH   3   4
ENDBRANCH   1   3
BRANCH   2   9
HETATM    9  C   UNL     1     -11.677  12.503  67.048  1.00  0.00    -0.437 C  
BRANCH   9  10
HETATM   10  C   UNL     1     -11.350  11.440  65.987  1.00  0.00    -0.097 C  
HETATM   11  H   UNL     1      -7.675  10.165  66.004  1.00  0.00     0.000 HD 
HETATM   12  C   UNL     1     -10.773  12.080  64.713  1.00  0.00    -0.306 C  
HETATM   13  O   UNL     1      -8.104  10.643  65.303  1.00  0.00    -0.153 OA 
HETATM   14  O   UNL     1      -9.761  13.037  65.018  1.00  0.00    -0.509 OA 
HETATM   15  C   UNL     1     -10.120  10.911  63.993  1.00  0.00    -0.419 C  
HETATM   16  C   UNL     1     -10.268  10.403  66.398  1.00  0.00    -0.292 C  
HETATM   17  H   UNL     1      -9.405  13.433  64.231  1.00  0.00     0.000 HD 
HETATM   18  C   UNL     1      -9.431  10.142  65.119  1.00  0.00    -0.260 C  
BRANCH  16  19
HETATM   19  C   UNL     1     -10.837   9.136  66.992  1.00  0.00    -0.056 C  
HETATM   20  C   UNL     1     -10.353   7.897  66.785  1.00  0.00    -0.357 C  
BRANCH  20  21
HETATM   21  C   UNL     1     -10.947   6.619  67.311  1.00  0.00    -0.385 C  
HETATM   22  O   UNL     1     -11.002   5.641  66.279  1.00  0.00    -0.682 OA 
HETATM   23  H   UNL     1     -11.377   4.834  66.611  1.00  0.00     0.000 HD 
BRANCH  21  24
HETATM   24  C   UNL     1     -10.129   6.049  68.475  1.00  0.00    -0.197 C  
BRANCH  24  25
HETATM   25  C   UNL     1     -10.522   6.568  69.862  1.00  0.00    -0.258 C  
BRANCH  25  26
HETATM   26  C   UNL     1      -9.317   6.827  70.765  1.00  0.00    -0.161 C  
BRANCH  26  27
HETATM   27  C   UNL     1      -8.220   7.596  70.032  1.00  0.00    -0.125 C  
HETATM   28  C   UNL     1      -8.459   9.094  70.114  1.00  0.00    -0.186 C  
ENDBRANCH  26  27
ENDBRANCH  25  26
ENDBRANCH  24  25
ENDBRANCH  21  24
ENDBRANCH  20  21
ENDBRANCH  16  19
ENDBRANCH   9  10
ENDBRANCH   2   9
TORSDOF 11
ENDMDL
MODEL      132
REMARK 921   NORMALIZED FREE ENERGY PREDICTED BY IDOCK:   -4.40 KCAL/MOL
REMARK 922        TOTAL FREE ENERGY PREDICTED BY IDOCK:   -9.63 KCAL/MOL
REMARK 923 INTER-LIGAND FREE ENERGY PREDICTED BY IDOCK:   -7.59 KCAL/MOL
REMARK 924 INTRA-LIGAND FREE ENERGY PREDICTED BY IDOCK:   -2.03 KCAL/MOL
REMARK 927      BINDING AFFINITY PREDICTED BY RF-SCORE:    0.00 PKD
ROOT
HETATM    1  C   UNL     1     -12.051  14.099  66.550  1.00  0.00    -0.481 C  
HETATM    2  C   UNL     1     -11.149  15.025  66.907  1.00  0.00    -0.331 C  
ENDROOT
BRANCH   1   3
HETATM    3  C   UNL     1     -12.653  13.915  65.184  1.00  0.00    -0.466 C  
BRANCH   3   4
HETATM    4  C   UNL     1     -12.384  12.514  64.633  1.00  0.00    -0.547 C  
BRANCH   4   5
HETATM    5  C   UNL     1     -11.375  12.528  63.484  1.00  0.00    -0.556 C  
HETATM    6  O   UNL     1      -9.432  11.466  62.620  1.00  0.00    -0.344 OA 
HETATM    7  C   UNL     1     -10.319  11.463  63.643  1.00  0.00    -0.410 C  
HETATM    8  O   UNL     1     -10.250  10.668  64.567  1.00  0.00    -0.336 OA 
ENDBRANCH   4   5
ENDBRANCH   3   4
ENDBRANCH   1   3
BRANCH   2   9
HETATM    9  C   UNL     1     -10.595  16.115  66.029  1.00  0.00    -0.303 C  
BRANCH   9  10
HETATM   10  C   UNL     1      -9.437  16.934  66.623  1.00  0.00    -0.282 C  
HETATM   11  H   UNL     1     -10.169  18.567  70.076  1.00  0.00     0.000 HD 
HETATM   12  C   UNL     1      -9.564  18.423  66.263  1.00  0.00    -0.261 C  
HETATM   13  O   UNL     1      -9.993  19.024  69.262  1.00  0.00    -0.334 OA 
HETATM   14  O   UNL     1     -10.888  18.906  66.479  1.00  0.00    -0.328 OA 
HETATM   15  C   UNL     1      -8.640  19.108  67.257  1.00  0.00    -0.306 C  
HETATM   16  C   UNL     1      -9.356  16.938  68.175  1.00  0.00    -0.240 C  
HETATM   17  H   UNL     1     -10.966  19.826  66.256  1.00  0.00     0.000 HD 
HETATM   18  C   UNL     1      -8.924  18.375  68.567  1.00  0.00    -0.315 C  
BRANCH  16  19
HETATM   19  C   UNL     1      -8.435  15.879  68.736  1.00  0.00    -0.204 C  
HETATM   20  C   UNL     1      -7.516  15.197  68.030  1.00  0.00    -0.128 C  
BRANCH  20  21
HETATM   21  C   UNL     1      -6.641  14.092  68.557  1.00  0.00    -0.096 C  
HETATM   22  O   UNL     1      -6.911  13.864  69.935  1.00  0.00    -0.337 OA 
HETATM   23  H   UNL     1      -6.358  13.167  70.268  1.00  0.00     0.000 HD 
BRANCH  21  24
HETATM   24  C   UNL     1      -6.865  12.780  67.797  1.00  0.00    -0.135 C  
BRANCH  24  25
HETATM   25  C   UNL     1      -7.859  11.813  68.450  1.00  0.00    -0.141 C  
BRANCH  25  26
HETATM   26  C   UNL     1      -9.255  11.886  67.833  1.00  0.00    -0.187 C  
BRANCH  26  27
HETATM   27  C   UNL     1     -10.097  10.666  68.200  1.00  0.00    -0.179 C  
HETATM   28  C   UNL     1     -11.580  10.976  68.086  1.00  0.00    -0.345 C  
ENDBRANCH  26  27
ENDBRANCH  25  26
ENDBRANCH  24  25
ENDBRANCH  21  24
ENDBRANCH  20  21
ENDBRANCH  16  19
ENDBRANCH   9  10
ENDBRANCH   2   9
TORSDOF 11
ENDMDL
MODEL      133
REMARK 921   NORMALIZED FREE ENERGY PREDICTED BY IDOCK:   -4.39 KCAL/MOL
REMARK 922        TOTAL FREE ENERGY PREDICTED BY IDOCK:   -9.62 KCAL/MOL
REMARK 923 INTER-LIGAND FREE ENERGY PREDICTED BY IDOCK:   -8.07 KCAL/MOL
REMARK 924 INTRA-LIGAND FREE ENERGY PREDICTED BY IDOCK:   -1.55 KCAL/MOL
REMARK 927      BINDING AFFINITY PREDICTED BY RF-SCORE:    0.00 PKD
ROOT
HETATM    1  C   UNL     1     -12.322   9.790  71.341  1.00  0.00    -0.480 C  
HETATM    2  C   UNL     1     -11.497  10.513  70.568  1.00  0.00    -0.433 C  
ENDROOT
BRANCH   1   3
HETATM    3  C   UNL     1     -11.965   8.553  72.118  1.00  0.00    -0.451 C  
BRANCH   3   4
HETATM    4  C   UNL     1     -12.596   7.301  71.509  1.00  0.00    -0.415 C  
BRANCH   4   5
HETATM    5  C   UNL     1     -11.759   6.731  70.363  1.00  0.00    -0.418 C  
HETATM    6  O   UNL     1     -10.100   5.120  69.812  1.00  0.00    -0.223 OA 
HETATM    7  C   UNL     1     -10.833   5.635  70.827  1.00  0.00    -0.224 C  
HETATM    8  O   UNL     1     -10.739   5.226  71.974  1.00  0.00    -0.222 OA 
ENDBRANCH   4   5
ENDBRANCH   3   4
ENDBRANCH   1   3
BRANCH   2   9
HETATM    9  C   UNL     1     -10.055  10.203  70.269  1.00  0.00    -0.131 C  
BRANCH   9  10
HETATM   10  C   UNL     1      -9.656  10.221  68.785  1.00  0.00    -0.175 C  
HETATM   11  H   UNL     1     -11.586   7.712  66.525  1.00  0.00     0.000 HD 
HETATM   12  C   UNL     1      -8.585   9.160  68.480  1.00  0.00    -0.129 C  
HETATM   13  O   UNL     1     -10.655   7.702  66.711  1.00  0.00    -0.325 OA 
HETATM   14  O   UNL     1      -8.916   7.898  69.056  1.00  0.00    -0.144 OA 
HETATM   15  C   UNL     1      -8.643   9.022  66.968  1.00  0.00    -0.120 C  
HETATM   16  C   UNL     1     -10.799   9.884  67.787  1.00  0.00    -0.321 C  
HETATM   17  H   UNL     1      -8.254   7.243  68.868  1.00  0.00     0.000 HD 
HETATM   18  C   UNL     1     -10.141   9.037  66.668  1.00  0.00    -0.285 C  
BRANCH  16  19
HETATM   19  C   UNL     1     -11.515  11.102  67.252  1.00  0.00    -0.218 C  
HETATM   20  C   UNL     1     -11.199  11.751  66.117  1.00  0.00    -0.363 C  
BRANCH  20  21
HETATM   21  C   UNL     1     -11.856  13.004  65.605  1.00  0.00    -0.399 C  
HETATM   22  O   UNL     1     -13.100  12.692  64.988  1.00  0.00    -0.808 OA 
HETATM   23  H   UNL     1     -13.514  13.484  64.665  1.00  0.00     0.000 HD 
BRANCH  21  24
HETATM   24  C   UNL     1     -12.114  14.010  66.733  1.00  0.00    -0.480 C  
BRANCH  24  25
HETATM   25  C   UNL     1     -10.858  14.648  67.335  1.00  0.00    -0.298 C  
BRANCH  25  26
HETATM   26  C   UNL     1     -11.138  15.988  68.015  1.00  0.00    -0.334 C  
BRANCH  26  27
HETATM   27  C   UNL     1      -9.881  16.852  68.094  1.00  0.00    -0.264 C  
HETATM   28  C   UNL     1     -10.241  18.325  68.196  1.00  0.00    -0.406 C  
ENDBRANCH  26  27
ENDBRANCH  25  26
ENDBRANCH  24  25
ENDBRANCH  21  24
ENDBRANCH  20  21
ENDBRANCH  16  19
ENDBRANCH   9  10
ENDBRANCH   2   9
TORSDOF 11
ENDMDL
MODEL      134
REMARK 921   NORMALIZED FREE ENERGY PREDICTED BY IDOCK:   -4.39 KCAL/MOL
REMARK 922        TOTAL FREE ENERGY PREDICTED BY IDOCK:   -9.61 KCAL/MOL
REMARK 923 INTER-LIGAND FREE ENERGY PREDICTED BY IDOCK:   -8.50 KCAL/MOL
REMARK 924 INTRA-LIGAND FREE ENERGY PREDICTED BY IDOCK:   -1.12 KCAL/MOL
REMARK 927      BINDING AFFINITY PREDICTED BY RF-SCORE:    0.00 PKD
ROOT
HETATM    1  C   UNL     1     -11.425  14.977  67.639  1.00  0.00    -0.344 C  
HETATM    2  C   UNL     1     -11.664  15.598  68.804  1.00  0.00    -0.382 C  
ENDROOT
BRANCH   1   3
HETATM    3  C   UNL     1     -10.205  14.172  67.287  1.00  0.00    -0.256 C  
BRANCH   3   4
HETATM    4  C   UNL     1     -10.032  14.040  65.773  1.00  0.00    -0.319 C  
BRANCH   4   5
HETATM    5  C   UNL     1     -11.286  14.467  65.010  1.00  0.00    -0.377 C  
HETATM    6  O   UNL     1     -12.647  13.976  63.124  1.00  0.00    -0.733 OA 
HETATM    7  C   UNL     1     -11.530  13.608  63.794  1.00  0.00    -0.069 C  
HETATM    8  O   UNL     1     -10.829  12.674  63.435  1.00  0.00    -0.410 OA 
ENDBRANCH   4   5
ENDBRANCH   3   4
ENDBRANCH   1   3
BRANCH   2   9
HETATM    9  C   UNL     1     -10.731  15.670  69.983  1.00  0.00    -0.345 C  
BRANCH   9  10
HETATM   10  C   UNL     1     -11.201  14.951  71.258  1.00  0.00    -0.183 C  
HETATM   11  H   UNL     1     -15.032  15.091  71.918  1.00  0.00     0.000 HD 
HETATM   12  C   UNL     1     -11.296  15.923  72.446  1.00  0.00    -0.016 C  
HETATM   13  O   UNL     1     -14.351  15.475  72.459  1.00  0.00    -0.523 OA 
HETATM   14  O   UNL     1     -11.968  17.129  72.086  1.00  0.00    -0.098 OA 
HETATM   15  C   UNL     1     -12.163  15.177  73.447  1.00  0.00    -0.565 C  
HETATM   16  C   UNL     1     -12.622  14.327  71.182  1.00  0.00    -0.432 C  
HETATM   17  H   UNL     1     -12.026  17.730  72.820  1.00  0.00     0.000 HD 
HETATM   18  C   UNL     1     -13.257  14.561  72.577  1.00  0.00    -0.448 C  
BRANCH  16  19
HETATM   19  C   UNL     1     -12.624  12.871  70.777  1.00  0.00    -0.314 C  
HETATM   20  C   UNL     1     -12.656  11.830  71.628  1.00  0.00    -0.249 C  
BRANCH  20  21
HETATM   21  C   UNL     1     -12.588  10.376  71.247  1.00  0.00    -0.419 C  
HETATM   22  O   UNL     1     -11.252   9.898  71.363  1.00  0.00    -0.348 OA 
HETATM   23  H   UNL     1     -11.209   8.981  71.122  1.00  0.00     0.000 HD 
BRANCH  21  24
HETATM   24  C   UNL     1     -13.488   9.513  72.137  1.00  0.00    -0.535 C  
BRANCH  24  25
HETATM   25  C   UNL     1     -14.151   8.323  71.433  1.00  0.00    -0.382 C  
BRANCH  25  26
HETATM   26  C   UNL     1     -13.679   6.974  71.972  1.00  0.00    -0.157 C  
BRANCH  26  27
HETATM   27  C   UNL     1     -12.208   6.724  71.649  1.00  0.00    -0.410 C  
HETATM   28  C   UNL     1     -11.688   5.506  72.396  1.00  0.00    -0.182 C  
ENDBRANCH  26  27
ENDBRANCH  25  26
ENDBRANCH  24  25
ENDBRANCH  21  24
ENDBRANCH  20  21
ENDBRANCH  16  19
ENDBRANCH   9  10
ENDBRANCH   2   9
TORSDOF 11
ENDMDL
MODEL      135
REMARK 921   NORMALIZED FREE ENERGY PREDICTED BY IDOCK:   -4.38 KCAL/MOL
REMARK 922        TOTAL FREE ENERGY PREDICTED BY IDOCK:   -9.60 KCAL/MOL
REMARK 923 INTER-LIGAND FREE ENERGY PREDICTED BY IDOCK:   -8.09 KCAL/MOL
REMARK 924 INTRA-LIGAND FREE ENERGY PREDICTED BY IDOCK:   -1.50 KCAL/MOL
REMARK 927      BINDING AFFINITY PREDICTED BY RF-SCORE:    0.00 PKD
ROOT
HETATM    1  C   UNL     1      -8.206  10.759  67.662  1.00  0.00    -0.115 C  
HETATM    2  C   UNL     1      -8.362  10.889  66.336  1.00  0.00    -0.162 C  
ENDROOT
BRANCH   1   3
HETATM    3  C   UNL     1      -9.274  10.402  68.658  1.00  0.00    -0.164 C  
BRANCH   3   4
HETATM    4  C   UNL     1      -8.957   9.091  69.380  1.00  0.00    -0.145 C  
BRANCH   4   5
HETATM    5  C   UNL     1      -7.870   8.286  68.666  1.00  0.00    -0.120 C  
HETATM    6  O   UNL     1      -7.413   6.230  67.565  1.00  0.00    -0.085 OA 
HETATM    7  C   UNL     1      -8.370   6.939  68.208  1.00  0.00    -0.123 C  
HETATM    8  O   UNL     1      -9.502   6.511  68.372  1.00  0.00    -0.123 OA 
ENDBRANCH   4   5
ENDBRANCH   3   4
ENDBRANCH   1   3
BRANCH   2   9
HETATM    9  C   UNL     1      -9.653  10.764  65.574  1.00  0.00    -0.269 C  
BRANCH   9  10
HETATM   10  C   UNL     1     -10.417  12.074  65.322  1.00  0.00    -0.323 C  
HETATM   11  H   UNL     1     -14.266  11.692  64.916  1.00  0.00     0.000 HD 
HETATM   12  C   UNL     1     -10.616  12.325  63.818  1.00  0.00    -0.451 C  
HETATM   13  O   UNL     1     -13.655  11.993  64.253  1.00  0.00    -0.527 OA 
HETATM   14  O   UNL     1     -11.080  11.155  63.147  1.00  0.00    -0.811 OA 
HETATM   15  C   UNL     1     -11.722  13.367  63.776  1.00  0.00    -0.426 C  
HETATM   16  C   UNL     1     -11.860  12.121  65.896  1.00  0.00    -0.342 C  
HETATM   17  H   UNL     1     -11.202  11.311  62.218  1.00  0.00     0.000 HD 
HETATM   18  C   UNL     1     -12.704  12.884  64.842  1.00  0.00    -0.403 C  
BRANCH  16  19
HETATM   19  C   UNL     1     -11.946  12.741  67.271  1.00  0.00    -0.345 C  
HETATM   20  C   UNL     1     -12.110  12.061  68.420  1.00  0.00    -0.090 C  
BRANCH  20  21
HETATM   21  C   UNL     1     -12.268  12.665  69.788  1.00  0.00    -0.143 C  
HETATM   22  O   UNL     1     -11.823  11.751  70.784  1.00  0.00    -0.442 OA 
HETATM   23  H   UNL     1     -11.923  12.132  71.649  1.00  0.00     0.000 HD 
BRANCH  21  24
HETATM   24  C   UNL     1     -11.464  13.963  69.931  1.00  0.00    -0.252 C  
BRANCH  24  25
HETATM   25  C   UNL     1     -11.846  14.835  71.133  1.00  0.00    -0.387 C  
BRANCH  25  26
HETATM   26  C   UNL     1     -13.287  15.339  71.069  1.00  0.00    -0.537 C  
BRANCH  26  27
HETATM   27  C   UNL     1     -13.981  15.229  72.425  1.00  0.00    -0.642 C  
HETATM   28  C   UNL     1     -13.097  15.778  73.533  1.00  0.00    -0.665 C  
ENDBRANCH  26  27
ENDBRANCH  25  26
ENDBRANCH  24  25
ENDBRANCH  21  24
ENDBRANCH  20  21
ENDBRANCH  16  19
ENDBRANCH   9  10
ENDBRANCH   2   9
TORSDOF 11
ENDMDL
MODEL      136
REMARK 921   NORMALIZED FREE ENERGY PREDICTED BY IDOCK:   -4.37 KCAL/MOL
REMARK 922        TOTAL FREE ENERGY PREDICTED BY IDOCK:   -9.58 KCAL/MOL
REMARK 923 INTER-LIGAND FREE ENERGY PREDICTED BY IDOCK:   -7.87 KCAL/MOL
REMARK 924 INTRA-LIGAND FREE ENERGY PREDICTED BY IDOCK:   -1.71 KCAL/MOL
REMARK 927      BINDING AFFINITY PREDICTED BY RF-SCORE:    0.00 PKD
ROOT
HETATM    1  C   UNL     1     -10.988  11.279  67.754  1.00  0.00    -0.305 C  
HETATM    2  C   UNL     1     -11.213  10.629  68.905  1.00  0.00    -0.333 C  
ENDROOT
BRANCH   1   3
HETATM    3  C   UNL     1     -11.292  12.723  67.467  1.00  0.00    -0.361 C  
BRANCH   3   4
HETATM    4  C   UNL     1     -12.013  12.894  66.129  1.00  0.00    -0.491 C  
BRANCH   4   5
HETATM    5  C   UNL     1     -12.002  14.346  65.648  1.00  0.00    -0.356 C  
HETATM    6  O   UNL     1     -12.377  15.749  63.767  1.00  0.00    -0.698 OA 
HETATM    7  C   UNL     1     -12.374  14.463  64.192  1.00  0.00    -0.307 C  
HETATM    8  O   UNL     1     -12.655  13.530  63.455  1.00  0.00    -0.738 OA 
ENDBRANCH   4   5
ENDBRANCH   3   4
ENDBRANCH   1   3
BRANCH   2   9
HETATM    9  C   UNL     1     -11.875  11.193  70.133  1.00  0.00    -0.449 C  
BRANCH   9  10
HETATM   10  C   UNL     1     -11.871  10.288  71.376  1.00  0.00    -0.371 C  
HETATM   11  H   UNL     1     -11.821   6.470  70.640  1.00  0.00     0.000 HD 
HETATM   12  C   UNL     1     -13.297   9.860  71.760  1.00  0.00    -0.404 C  
HETATM   13  O   UNL     1     -12.517   6.953  71.069  1.00  0.00    -0.382 OA 
HETATM   14  O   UNL     1     -14.035   9.413  70.624  1.00  0.00    -0.509 OA 
HETATM   15  C   UNL     1     -13.075   8.671  72.679  1.00  0.00    -0.265 C  
HETATM   16  C   UNL     1     -11.115   8.941  71.213  1.00  0.00    -0.367 C  
HETATM   17  H   UNL     1     -14.917   9.149  70.861  1.00  0.00     0.000 HD 
HETATM   18  C   UNL     1     -11.955   7.893  71.989  1.00  0.00    -0.319 C  
BRANCH  16  19
HETATM   19  C   UNL     1      -9.677   8.993  71.674  1.00  0.00    -0.347 C  
HETATM   20  C   UNL     1      -8.606   8.732  70.905  1.00  0.00    -0.229 C  
BRANCH  20  21
HETATM   21  C   UNL     1      -7.173   8.710  71.364  1.00  0.00    -0.091 C  
HETATM   22  O   UNL     1      -6.535   7.514  70.931  1.00  0.00    -0.038 OA 
HETATM   23  H   UNL     1      -5.631   7.501  71.221  1.00  0.00     0.000 HD 
BRANCH  21  24
HETATM   24  C   UNL     1      -6.384   9.905  70.817  1.00  0.00    -0.086 C  
BRANCH  24  25
HETATM   25  C   UNL     1      -7.092  10.703  69.716  1.00  0.00    -0.140 C  
BRANCH  25  26
HETATM   26  C   UNL     1      -6.514  10.444  68.326  1.00  0.00    -0.059 C  
BRANCH  26  27
HETATM   27  C   UNL     1      -7.368  11.083  67.234  1.00  0.00    -0.106 C  
HETATM   28  C   UNL     1      -7.831  10.042  66.228  1.00  0.00    -0.111 C  
ENDBRANCH  26  27
ENDBRANCH  25  26
ENDBRANCH  24  25
ENDBRANCH  21  24
ENDBRANCH  20  21
ENDBRANCH  16  19
ENDBRANCH   9  10
ENDBRANCH   2   9
TORSDOF 11
ENDMDL
MODEL      137
REMARK 921   NORMALIZED FREE ENERGY PREDICTED BY IDOCK:   -4.37 KCAL/MOL
REMARK 922        TOTAL FREE ENERGY PREDICTED BY IDOCK:   -9.58 KCAL/MOL
REMARK 923 INTER-LIGAND FREE ENERGY PREDICTED BY IDOCK:   -7.27 KCAL/MOL
REMARK 924 INTRA-LIGAND FREE ENERGY PREDICTED BY IDOCK:   -2.31 KCAL/MOL
REMARK 927      BINDING AFFINITY PREDICTED BY RF-SCORE:    0.00 PKD
ROOT
HETATM    1  C   UNL     1     -11.053  12.308  67.469  1.00  0.00    -0.326 C  
HETATM    2  C   UNL     1     -11.686  12.303  68.652  1.00  0.00    -0.377 C  
ENDROOT
BRANCH   1   3
HETATM    3  C   UNL     1     -10.978  11.169  66.490  1.00  0.00    -0.270 C  
BRANCH   3   4
HETATM    4  C   UNL     1     -10.396  11.616  65.148  1.00  0.00    -0.326 C  
BRANCH   4   5
HETATM    5  C   UNL     1     -10.921  12.986  64.717  1.00  0.00    -0.349 C  
HETATM    6  O   UNL     1     -12.506  14.085  63.328  1.00  0.00    -0.795 OA 
HETATM    7  C   UNL     1     -12.030  12.874  63.702  1.00  0.00    -0.541 C  
HETATM    8  O   UNL     1     -12.479  11.829  63.255  1.00  0.00    -0.543 OA 
ENDBRANCH   4   5
ENDBRANCH   3   4
ENDBRANCH   1   3
BRANCH   2   9
HETATM    9  C   UNL     1     -12.402  11.135  69.276  1.00  0.00    -0.170 C  
BRANCH   9  10
HETATM   10  C   UNL     1     -11.596  10.321  70.301  1.00  0.00    -0.396 C  
HETATM   11  H   UNL     1     -11.354   6.510  69.562  1.00  0.00     0.000 HD 
HETATM   12  C   UNL     1     -12.511   9.717  71.379  1.00  0.00    -0.387 C  
HETATM   13  O   UNL     1     -11.779   6.914  70.310  1.00  0.00    -0.330 OA 
HETATM   14  O   UNL     1     -13.661   9.098  70.806  1.00  0.00    -0.554 OA 
HETATM   15  C   UNL     1     -11.651   8.633  72.008  1.00  0.00    -0.440 C  
HETATM   16  C   UNL     1     -10.845   9.088  69.726  1.00  0.00    -0.215 C  
HETATM   17  H   UNL     1     -14.227   8.725  71.473  1.00  0.00     0.000 HD 
HETATM   18  C   UNL     1     -10.968   7.982  70.806  1.00  0.00    -0.248 C  
BRANCH  16  19
HETATM   19  C   UNL     1      -9.411   9.375  69.346  1.00  0.00    -0.177 C  
HETATM   20  C   UNL     1      -8.614   8.548  68.645  1.00  0.00    -0.135 C  
BRANCH  20  21
HETATM   21  C   UNL     1      -7.165   8.787  68.318  1.00  0.00    -0.082 C  
HETATM   22  O   UNL     1      -6.938   8.604  66.925  1.00  0.00    -0.075 OA 
HETATM   23  H   UNL     1      -6.024   8.754  66.718  1.00  0.00     0.000 HD 
BRANCH  21  24
HETATM   24  C   UNL     1      -6.724  10.205  68.697  1.00  0.00    -0.057 C  
BRANCH  24  25
HETATM   25  C   UNL     1      -5.646  10.814  67.793  1.00  0.00    -0.043 C  
BRANCH  25  26
HETATM   26  C   UNL     1      -6.167  11.966  66.936  1.00  0.00    -0.115 C  
BRANCH  26  27
HETATM   27  C   UNL     1      -7.528  12.459  67.425  1.00  0.00    -0.157 C  
HETATM   28  C   UNL     1      -7.596  13.977  67.403  1.00  0.00    -0.167 C  
ENDBRANCH  26  27
ENDBRANCH  25  26
ENDBRANCH  24  25
ENDBRANCH  21  24
ENDBRANCH  20  21
ENDBRANCH  16  19
ENDBRANCH   9  10
ENDBRANCH   2   9
TORSDOF 11
ENDMDL
MODEL      138
REMARK 921   NORMALIZED FREE ENERGY PREDICTED BY IDOCK:   -4.34 KCAL/MOL
REMARK 922        TOTAL FREE ENERGY PREDICTED BY IDOCK:   -9.53 KCAL/MOL
REMARK 923 INTER-LIGAND FREE ENERGY PREDICTED BY IDOCK:   -7.27 KCAL/MOL
REMARK 924 INTRA-LIGAND FREE ENERGY PREDICTED BY IDOCK:   -2.27 KCAL/MOL
REMARK 927      BINDING AFFINITY PREDICTED BY RF-SCORE:    0.00 PKD
ROOT
HETATM    1  C   UNL     1     -11.691  12.237  66.411  1.00  0.00    -0.431 C  
HETATM    2  C   UNL     1     -12.043  13.093  67.381  1.00  0.00    -0.316 C  
ENDROOT
BRANCH   1   3
HETATM    3  C   UNL     1     -10.357  11.560  66.257  1.00  0.00    -0.280 C  
BRANCH   3   4
HETATM    4  C   UNL     1     -10.362  10.155  66.862  1.00  0.00    -0.298 C  
BRANCH   4   5
HETATM    5  C   UNL     1      -9.349  10.012  67.998  1.00  0.00    -0.139 C  
HETATM    6  O   UNL     1      -9.123   9.770  70.352  1.00  0.00    -0.229 OA 
HETATM    7  C   UNL     1     -10.017   9.910  69.346  1.00  0.00    -0.212 C  
HETATM    8  O   UNL     1     -11.223   9.936  69.541  1.00  0.00    -0.229 OA 
ENDBRANCH   4   5
ENDBRANCH   3   4
ENDBRANCH   1   3
BRANCH   2   9
HETATM    9  C   UNL     1     -11.158  13.604  68.485  1.00  0.00    -0.301 C  
BRANCH   9  10
HETATM   10  C   UNL     1     -11.664  14.848  69.234  1.00  0.00    -0.344 C  
HETATM   11  H   UNL     1     -10.298  15.271  72.850  1.00  0.00     0.000 HD 
HETATM   12  C   UNL     1     -12.897  14.521  70.092  1.00  0.00    -0.119 C  
HETATM   13  O   UNL     1     -11.203  15.128  72.602  1.00  0.00    -0.294 OA 
HETATM   14  O   UNL     1     -12.707  13.329  70.852  1.00  0.00    -0.318 OA 
HETATM   15  C   UNL     1     -12.978  15.693  71.057  1.00  0.00    -0.518 C  
HETATM   16  C   UNL     1     -10.663  15.464  70.250  1.00  0.00    -0.320 C  
HETATM   17  H   UNL     1     -13.469  13.127  71.382  1.00  0.00     0.000 HD 
HETATM   18  C   UNL     1     -11.521  15.923  71.457  1.00  0.00    -0.410 C  
BRANCH  16  19
HETATM   19  C   UNL     1      -9.823  16.580  69.674  1.00  0.00     0.016 C  
HETATM   20  C   UNL     1     -10.302  17.735  69.179  1.00  0.00    -0.157 C  
BRANCH  20  21
HETATM   21  C   UNL     1      -9.487  18.825  68.538  1.00  0.00    -0.358 C  
HETATM   22  O   UNL     1      -8.098  18.549  68.678  1.00  0.00    -0.321 OA 
HETATM   23  H   UNL     1      -7.583  19.238  68.274  1.00  0.00     0.000 HD 
BRANCH  21  24
HETATM   24  C   UNL     1      -9.803  18.967  67.045  1.00  0.00    -0.379 C  
BRANCH  24  25
HETATM   25  C   UNL     1     -10.500  17.758  66.410  1.00  0.00    -0.297 C  
BRANCH  25  26
HETATM   26  C   UNL     1      -9.520  16.672  65.967  1.00  0.00    -0.286 C  
BRANCH  26  27
HETATM   27  C   UNL     1     -10.246  15.480  65.348  1.00  0.00    -0.409 C  
HETATM   28  C   UNL     1     -11.394  15.941  64.465  1.00  0.00    -0.316 C  
ENDBRANCH  26  27
ENDBRANCH  25  26
ENDBRANCH  24  25
ENDBRANCH  21  24
ENDBRANCH  20  21
ENDBRANCH  16  19
ENDBRANCH   9  10
ENDBRANCH   2   9
TORSDOF 11
ENDMDL
MODEL      139
REMARK 921   NORMALIZED FREE ENERGY PREDICTED BY IDOCK:   -4.33 KCAL/MOL
REMARK 922        TOTAL FREE ENERGY PREDICTED BY IDOCK:   -9.51 KCAL/MOL
REMARK 923 INTER-LIGAND FREE ENERGY PREDICTED BY IDOCK:   -7.58 KCAL/MOL
REMARK 924 INTRA-LIGAND FREE ENERGY PREDICTED BY IDOCK:   -1.94 KCAL/MOL
REMARK 927      BINDING AFFINITY PREDICTED BY RF-SCORE:    0.00 PKD
ROOT
HETATM    1  C   UNL     1     -11.645  14.179  67.528  1.00  0.00    -0.396 C  
HETATM    2  C   UNL     1     -11.960  14.491  68.794  1.00  0.00    -0.315 C  
ENDROOT
BRANCH   1   3
HETATM    3  C   UNL     1     -10.267  13.906  66.991  1.00  0.00    -0.254 C  
BRANCH   3   4
HETATM    4  C   UNL     1     -10.084  12.432  66.625  1.00  0.00    -0.234 C  
BRANCH   4   5
HETATM    5  C   UNL     1      -9.635  11.592  67.821  1.00  0.00    -0.177 C  
HETATM    6  O   UNL     1     -10.391  10.115  69.523  1.00  0.00    -0.210 OA 
HETATM    7  C   UNL     1     -10.788  10.870  68.472  1.00  0.00    -0.220 C  
HETATM    8  O   UNL     1     -11.954  10.929  68.113  1.00  0.00    -0.581 OA 
ENDBRANCH   4   5
ENDBRANCH   3   4
ENDBRANCH   1   3
BRANCH   2   9
HETATM    9  C   UNL     1     -10.994  14.694  69.930  1.00  0.00    -0.194 C  
BRANCH   9  10
HETATM   10  C   UNL     1     -11.487  14.258  71.320  1.00  0.00     0.251 C  
HETATM   11  H   UNL     1     -15.112  15.355  72.205  1.00  0.00     0.000 HD 
HETATM   12  C   UNL     1     -11.252  15.359  72.367  1.00  0.00    -0.112 C  
HETATM   13  O   UNL     1     -14.316  15.632  72.642  1.00  0.00    -0.487 OA 
HETATM   14  O   UNL     1     -11.673  16.636  71.891  1.00  0.00    -0.633 OA 
HETATM   15  C   UNL     1     -12.163  14.956  73.515  1.00  0.00    -0.490 C  
HETATM   16  C   UNL     1     -13.011  13.974  71.423  1.00  0.00    -0.427 C  
HETATM   17  H   UNL     1     -11.527  17.316  72.538  1.00  0.00     0.000 HD 
HETATM   18  C   UNL     1     -13.444  14.511  72.812  1.00  0.00    -0.478 C  
BRANCH  16  19
HETATM   19  C   UNL     1     -13.372  12.520  71.222  1.00  0.00     0.067 C  
HETATM   20  C   UNL     1     -13.023  11.514  72.043  1.00  0.00    -0.373 C  
BRANCH  20  21
HETATM   21  C   UNL     1     -13.313  10.054  71.823  1.00  0.00    -0.393 C  
HETATM   22  O   UNL     1     -13.336   9.762  70.430  1.00  0.00    -0.569 OA 
HETATM   23  H   UNL     1     -13.519   8.840  70.291  1.00  0.00     0.000 HD 
BRANCH  21  24
HETATM   24  C   UNL     1     -12.260   9.160  72.487  1.00  0.00    -0.152 C  
BRANCH  24  25
HETATM   25  C   UNL     1     -12.358   7.670  72.137  1.00  0.00    -0.276 C  
BRANCH  25  26
HETATM   26  C   UNL     1     -10.992   7.003  71.990  1.00  0.00    -0.264 C  
BRANCH  26  27
HETATM   27  C   UNL     1     -10.429   6.570  73.342  1.00  0.00    -0.295 C  
HETATM   28  C   UNL     1     -10.838   5.143  73.668  1.00  0.00    -0.363 C  
ENDBRANCH  26  27
ENDBRANCH  25  26
ENDBRANCH  24  25
ENDBRANCH  21  24
ENDBRANCH  20  21
ENDBRANCH  16  19
ENDBRANCH   9  10
ENDBRANCH   2   9
TORSDOF 11
ENDMDL
MODEL      140
REMARK 921   NORMALIZED FREE ENERGY PREDICTED BY IDOCK:   -4.32 KCAL/MOL
REMARK 922        TOTAL FREE ENERGY PREDICTED BY IDOCK:   -9.50 KCAL/MOL
REMARK 923 INTER-LIGAND FREE ENERGY PREDICTED BY IDOCK:   -7.45 KCAL/MOL
REMARK 924 INTRA-LIGAND FREE ENERGY PREDICTED BY IDOCK:   -2.05 KCAL/MOL
REMARK 927      BINDING AFFINITY PREDICTED BY RF-SCORE:    0.00 PKD
ROOT
HETATM    1  C   UNL     1     -12.533  14.267  69.588  1.00  0.00    -0.215 C  
HETATM    2  C   UNL     1     -12.101  15.499  69.898  1.00  0.00    -0.378 C  
ENDROOT
BRANCH   1   3
HETATM    3  C   UNL     1     -11.683  13.043  69.391  1.00  0.00    -0.386 C  
BRANCH   3   4
HETATM    4  C   UNL     1     -11.581  12.657  67.915  1.00  0.00    -0.401 C  
BRANCH   4   5
HETATM    5  C   UNL     1     -11.940  13.820  66.988  1.00  0.00    -0.452 C  
HETATM    6  O   UNL     1     -12.650  14.374  64.788  1.00  0.00    -0.598 OA 
HETATM    7  C   UNL     1     -12.320  13.347  65.607  1.00  0.00    -0.470 C  
HETATM    8  O   UNL     1     -12.347  12.183  65.239  1.00  0.00    -0.513 OA 
ENDBRANCH   4   5
ENDBRANCH   3   4
ENDBRANCH   1   3
BRANCH   2   9
HETATM    9  C   UNL     1     -10.666  15.927  70.053  1.00  0.00    -0.343 C  
BRANCH   9  10
HETATM   10  C   UNL     1      -9.841  15.998  68.758  1.00  0.00    -0.223 C  
HETATM   11  H   UNL     1      -6.642  18.201  68.955  1.00  0.00     0.000 HD 
HETATM   12  C   UNL     1     -10.231  17.222  67.912  1.00  0.00    -0.332 C  
HETATM   13  O   UNL     1      -7.402  18.357  68.407  1.00  0.00    -0.257 OA 
HETATM   14  O   UNL     1     -10.311  18.405  68.705  1.00  0.00    -0.408 OA 
HETATM   15  C   UNL     1      -9.065  17.374  66.950  1.00  0.00    -0.258 C  
HETATM   16  C   UNL     1      -8.309  16.163  68.956  1.00  0.00    -0.247 C  
HETATM   17  H   UNL     1     -10.552  19.161  68.183  1.00  0.00     0.000 HD 
HETATM   18  C   UNL     1      -7.842  17.124  67.832  1.00  0.00    -0.193 C  
BRANCH  16  19
HETATM   19  C   UNL     1      -7.553  14.855  68.956  1.00  0.00    -0.151 C  
HETATM   20  C   UNL     1      -8.102  13.642  68.762  1.00  0.00     0.001 C  
BRANCH  20  21
HETATM   21  C   UNL     1      -7.377  12.325  68.828  1.00  0.00    -0.083 C  
HETATM   22  O   UNL     1      -6.912  12.084  70.151  1.00  0.00    -0.356 OA 
HETATM   23  H   UNL     1      -6.454  11.253  70.192  1.00  0.00     0.000 HD 
BRANCH  21  24
HETATM   24  C   UNL     1      -8.282  11.159  68.414  1.00  0.00    -0.144 C  
BRANCH  24  25
HETATM   25  C   UNL     1      -8.408  10.035  69.449  1.00  0.00    -0.169 C  
BRANCH  25  26
HETATM   26  C   UNL     1      -9.662   9.185  69.255  1.00  0.00    -0.164 C  
BRANCH  26  27
HETATM   27  C   UNL     1     -10.303   8.814  70.592  1.00  0.00    -0.253 C  
HETATM   28  C   UNL     1     -11.397   9.802  70.961  1.00  0.00    -0.460 C  
ENDBRANCH  26  27
ENDBRANCH  25  26
ENDBRANCH  24  25
ENDBRANCH  21  24
ENDBRANCH  20  21
ENDBRANCH  16  19
ENDBRANCH   9  10
ENDBRANCH   2   9
TORSDOF 11
ENDMDL
MODEL      141
REMARK 921   NORMALIZED FREE ENERGY PREDICTED BY IDOCK:   -4.31 KCAL/MOL
REMARK 922        TOTAL FREE ENERGY PREDICTED BY IDOCK:   -9.48 KCAL/MOL
REMARK 923 INTER-LIGAND FREE ENERGY PREDICTED BY IDOCK:   -7.64 KCAL/MOL
REMARK 924 INTRA-LIGAND FREE ENERGY PREDICTED BY IDOCK:   -1.84 KCAL/MOL
REMARK 927      BINDING AFFINITY PREDICTED BY RF-SCORE:    0.00 PKD
ROOT
HETATM    1  C   UNL     1     -11.224  11.739  67.914  1.00  0.00    -0.331 C  
HETATM    2  C   UNL     1     -11.859  10.977  68.818  1.00  0.00    -0.352 C  
ENDROOT
BRANCH   1   3
HETATM    3  C   UNL     1     -10.743  13.149  68.113  1.00  0.00    -0.258 C  
BRANCH   3   4
HETATM    4  C   UNL     1     -11.797  14.171  67.685  1.00  0.00    -0.427 C  
BRANCH   4   5
HETATM    5  C   UNL     1     -11.692  14.522  66.200  1.00  0.00    -0.355 C  
HETATM    6  O   UNL     1     -10.787  16.086  64.655  1.00  0.00    -0.608 OA 
HETATM    7  C   UNL     1     -10.892  15.780  65.970  1.00  0.00    -0.255 C  
HETATM    8  O   UNL     1     -10.377  16.461  66.843  1.00  0.00    -0.293 OA 
ENDBRANCH   4   5
ENDBRANCH   3   4
ENDBRANCH   1   3
BRANCH   2   9
HETATM    9  C   UNL     1     -12.277  11.396  70.201  1.00  0.00    -0.401 C  
BRANCH   9  10
HETATM   10  C   UNL     1     -12.059  10.359  71.314  1.00  0.00    -0.461 C  
HETATM   11  H   UNL     1     -11.846   6.666  70.112  1.00  0.00     0.000 HD 
HETATM   12  C   UNL     1     -13.394   9.775  71.805  1.00  0.00    -0.413 C  
HETATM   13  O   UNL     1     -12.514   7.038  70.676  1.00  0.00    -0.295 OA 
HETATM   14  O   UNL     1     -14.236   9.402  70.716  1.00  0.00    -0.413 OA 
HETATM   15  C   UNL     1     -12.979   8.510  72.539  1.00  0.00    -0.300 C  
HETATM   16  C   UNL     1     -11.240   9.104  70.900  1.00  0.00    -0.359 C  
HETATM   17  H   UNL     1     -15.062   9.042  71.020  1.00  0.00     0.000 HD 
HETATM   18  C   UNL     1     -11.905   7.910  71.633  1.00  0.00    -0.288 C  
BRANCH  16  19
HETATM   19  C   UNL     1      -9.763   9.219  71.194  1.00  0.00    -0.327 C  
HETATM   20  C   UNL     1      -8.797   9.366  70.270  1.00  0.00    -0.269 C  
BRANCH  20  21
HETATM   21  C   UNL     1      -7.318   9.412  70.540  1.00  0.00    -0.133 C  
HETATM   22  O   UNL     1      -6.867  10.761  70.583  1.00  0.00    -0.471 OA 
HETATM   23  H   UNL     1      -5.933  10.790  70.754  1.00  0.00     0.000 HD 
BRANCH  21  24
HETATM   24  C   UNL     1      -6.963   8.741  71.871  1.00  0.00    -0.064 C  
BRANCH  24  25
HETATM   25  C   UNL     1      -6.714   7.230  71.792  1.00  0.00    -0.051 C  
BRANCH  25  26
HETATM   26  C   UNL     1      -7.548   6.436  72.796  1.00  0.00    -0.102 C  
BRANCH  26  27
HETATM   27  C   UNL     1      -7.984   7.303  73.975  1.00  0.00    -0.148 C  
HETATM   28  C   UNL     1      -9.439   7.045  74.330  1.00  0.00    -0.267 C  
ENDBRANCH  26  27
ENDBRANCH  25  26
ENDBRANCH  24  25
ENDBRANCH  21  24
ENDBRANCH  20  21
ENDBRANCH  16  19
ENDBRANCH   9  10
ENDBRANCH   2   9
TORSDOF 11
ENDMDL
MODEL      142
REMARK 921   NORMALIZED FREE ENERGY PREDICTED BY IDOCK:   -4.29 KCAL/MOL
REMARK 922        TOTAL FREE ENERGY PREDICTED BY IDOCK:   -9.45 KCAL/MOL
REMARK 923 INTER-LIGAND FREE ENERGY PREDICTED BY IDOCK:   -7.68 KCAL/MOL
REMARK 924 INTRA-LIGAND FREE ENERGY PREDICTED BY IDOCK:   -1.77 KCAL/MOL
REMARK 927      BINDING AFFINITY PREDICTED BY RF-SCORE:    0.00 PKD
ROOT
HETATM    1  C   UNL     1     -12.040  14.947  71.964  1.00  0.00    -0.436 C  
HETATM    2  C   UNL     1     -11.450  15.638  70.977  1.00  0.00    -0.439 C  
ENDROOT
BRANCH   1   3
HETATM    3  C   UNL     1     -13.451  14.427  71.973  1.00  0.00    -0.490 C  
BRANCH   3   4
HETATM    4  C   UNL     1     -13.493  12.911  72.178  1.00  0.00    -0.619 C  
BRANCH   4   5
HETATM    5  C   UNL     1     -12.723  12.160  71.091  1.00  0.00    -0.351 C  
HETATM    6  O   UNL     1     -12.135   9.996  70.301  1.00  0.00    -0.234 OA 
HETATM    7  C   UNL     1     -12.804  10.665  71.270  1.00  0.00    -0.434 C  
HETATM    8  O   UNL     1     -13.404  10.090  72.166  1.00  0.00    -0.444 OA 
ENDBRANCH   4   5
ENDBRANCH   3   4
ENDBRANCH   1   3
BRANCH   2   9
HETATM    9  C   UNL     1     -12.097  16.091  69.696  1.00  0.00    -0.114 C  
BRANCH   9  10
HETATM   10  C   UNL     1     -11.212  16.037  68.440  1.00  0.00    -0.364 C  
HETATM   11  H   UNL     1      -7.382  16.011  69.116  1.00  0.00     0.000 HD 
HETATM   12  C   UNL     1     -10.789  17.446  67.992  1.00  0.00    -0.281 C  
HETATM   13  O   UNL     1      -7.871  16.690  68.667  1.00  0.00    -0.209 OA 
HETATM   14  O   UNL     1     -10.323  18.228  69.090  1.00  0.00    -0.464 OA 
HETATM   15  C   UNL     1      -9.614  17.185  67.063  1.00  0.00    -0.262 C  
HETATM   16  C   UNL     1      -9.862  15.286  68.612  1.00  0.00    -0.211 C  
HETATM   17  H   UNL     1     -10.062  19.099  68.813  1.00  0.00     0.000 HD 
HETATM   18  C   UNL     1      -8.827  16.093  67.786  1.00  0.00    -0.183 C  
BRANCH  16  19
HETATM   19  C   UNL     1      -9.922  13.831  68.209  1.00  0.00    -0.243 C  
HETATM   20  C   UNL     1     -10.954  13.242  67.579  1.00  0.00    -0.281 C  
BRANCH  20  21
HETATM   21  C   UNL     1     -11.060  11.782  67.233  1.00  0.00    -0.287 C  
HETATM   22  O   UNL     1     -11.752  11.616  66.001  1.00  0.00    -0.382 OA 
HETATM   23  H   UNL     1     -11.819  10.694  65.783  1.00  0.00     0.000 HD 
BRANCH  21  24
HETATM   24  C   UNL     1      -9.680  11.128  67.104  1.00  0.00    -0.199 C  
BRANCH  24  25
HETATM   25  C   UNL     1      -9.277  10.223  68.274  1.00  0.00    -0.139 C  
BRANCH  25  26
HETATM   26  C   UNL     1      -9.541   8.743  68.000  1.00  0.00    -0.160 C  
BRANCH  26  27
HETATM   27  C   UNL     1      -9.683   8.465  66.505  1.00  0.00    -0.330 C  
HETATM   28  C   UNL     1      -9.502   6.985  66.210  1.00  0.00    -0.127 C  
ENDBRANCH  26  27
ENDBRANCH  25  26
ENDBRANCH  24  25
ENDBRANCH  21  24
ENDBRANCH  20  21
ENDBRANCH  16  19
ENDBRANCH   9  10
ENDBRANCH   2   9
TORSDOF 11
ENDMDL
MODEL      143
REMARK 921   NORMALIZED FREE ENERGY PREDICTED BY IDOCK:   -4.29 KCAL/MOL
REMARK 922        TOTAL FREE ENERGY PREDICTED BY IDOCK:   -9.45 KCAL/MOL
REMARK 923 INTER-LIGAND FREE ENERGY PREDICTED BY IDOCK:   -7.92 KCAL/MOL
REMARK 924 INTRA-LIGAND FREE ENERGY PREDICTED BY IDOCK:   -1.53 KCAL/MOL
REMARK 927      BINDING AFFINITY PREDICTED BY RF-SCORE:    0.00 PKD
ROOT
HETATM    1  C   UNL     1      -8.799  14.846  67.777  1.00  0.00    -0.173 C  
HETATM    2  C   UNL     1      -7.969  13.813  67.570  1.00  0.00    -0.190 C  
ENDROOT
BRANCH   1   3
HETATM    3  C   UNL     1     -10.162  14.787  68.410  1.00  0.00    -0.224 C  
BRANCH   3   4
HETATM    4  C   UNL     1     -11.016  15.996  68.027  1.00  0.00    -0.341 C  
BRANCH   4   5
HETATM    5  C   UNL     1     -10.562  16.630  66.712  1.00  0.00    -0.214 C  
HETATM    6  O   UNL     1     -10.106  18.699  65.634  1.00  0.00    -0.495 OA 
HETATM    7  C   UNL     1     -10.519  18.136  66.793  1.00  0.00    -0.348 C  
HETATM    8  O   UNL     1     -10.807  18.800  67.777  1.00  0.00    -0.389 OA 
ENDBRANCH   4   5
ENDBRANCH   3   4
ENDBRANCH   1   3
BRANCH   2   9
HETATM    9  C   UNL     1      -8.254  12.367  67.872  1.00  0.00    -0.163 C  
BRANCH   9  10
HETATM   10  C   UNL     1      -9.345  11.702  67.017  1.00  0.00    -0.186 C  
HETATM   11  H   UNL     1      -9.733   7.865  67.523  1.00  0.00     0.000 HD 
HETATM   12  C   UNL     1      -8.766  11.137  65.710  1.00  0.00    -0.150 C  
HETATM   13  O   UNL     1      -9.463   8.305  66.726  1.00  0.00    -0.168 OA 
HETATM   14  O   UNL     1      -7.571  10.394  65.943  1.00  0.00    -0.135 OA 
HETATM   15  C   UNL     1      -9.840  10.173  65.234  1.00  0.00    -0.388 C  
HETATM   16  C   UNL     1     -10.043  10.476  67.669  1.00  0.00    -0.211 C  
HETATM   17  H   UNL     1      -7.213  10.045  65.135  1.00  0.00     0.000 HD 
HETATM   18  C   UNL     1     -10.274   9.465  66.517  1.00  0.00    -0.238 C  
BRANCH  16  19
HETATM   19  C   UNL     1     -11.316  10.823  68.405  1.00  0.00    -0.367 C  
HETATM   20  C   UNL     1     -11.595  10.483  69.676  1.00  0.00    -0.342 C  
BRANCH  20  21
HETATM   21  C   UNL     1     -12.884  10.759  70.400  1.00  0.00    -0.213 C  
HETATM   22  O   UNL     1     -13.595   9.546  70.619  1.00  0.00    -0.588 OA 
HETATM   23  H   UNL     1     -14.409   9.719  71.077  1.00  0.00     0.000 HD 
BRANCH  21  24
HETATM   24  C   UNL     1     -12.640  11.427  71.758  1.00  0.00    -0.241 C  
BRANCH  24  25
HETATM   25  C   UNL     1     -13.350  12.771  71.958  1.00  0.00    -0.565 C  
BRANCH  25  26
HETATM   26  C   UNL     1     -12.702  13.910  71.173  1.00  0.00    -0.441 C  
BRANCH  26  27
HETATM   27  C   UNL     1     -13.471  15.218  71.343  1.00  0.00    -0.588 C  
HETATM   28  C   UNL     1     -13.095  15.904  72.646  1.00  0.00    -0.557 C  
ENDBRANCH  26  27
ENDBRANCH  25  26
ENDBRANCH  24  25
ENDBRANCH  21  24
ENDBRANCH  20  21
ENDBRANCH  16  19
ENDBRANCH   9  10
ENDBRANCH   2   9
TORSDOF 11
ENDMDL
MODEL      144
REMARK 921   NORMALIZED FREE ENERGY PREDICTED BY IDOCK:   -4.28 KCAL/MOL
REMARK 922        TOTAL FREE ENERGY PREDICTED BY IDOCK:   -9.42 KCAL/MOL
REMARK 923 INTER-LIGAND FREE ENERGY PREDICTED BY IDOCK:   -7.66 KCAL/MOL
REMARK 924 INTRA-LIGAND FREE ENERGY PREDICTED BY IDOCK:   -1.76 KCAL/MOL
REMARK 927      BINDING AFFINITY PREDICTED BY RF-SCORE:    0.00 PKD
ROOT
HETATM    1  C   UNL     1     -12.620  12.049  71.166  1.00  0.00    -0.372 C  
HETATM    2  C   UNL     1     -12.158  10.833  70.841  1.00  0.00    -0.475 C  
ENDROOT
BRANCH   1   3
HETATM    3  C   UNL     1     -13.698  12.359  72.169  1.00  0.00    -0.271 C  
BRANCH   3   4
HETATM    4  C   UNL     1     -14.039  13.850  72.189  1.00  0.00    -0.630 C  
BRANCH   4   5
HETATM    5  C   UNL     1     -12.876  14.715  71.704  1.00  0.00    -0.403 C  
HETATM    6  O   UNL     1     -11.687  16.735  72.102  1.00  0.00    -0.346 OA 
HETATM    7  C   UNL     1     -12.725  15.973  72.521  1.00  0.00    -0.428 C  
HETATM    8  O   UNL     1     -13.431  16.293  73.465  1.00  0.00    -0.654 OA 
ENDBRANCH   4   5
ENDBRANCH   3   4
ENDBRANCH   1   3
BRANCH   2   9
HETATM    9  C   UNL     1     -12.664   9.517  71.367  1.00  0.00    -0.445 C  
BRANCH   9  10
HETATM   10  C   UNL     1     -11.635   8.376  71.429  1.00  0.00    -0.332 C  
HETATM   11  H   UNL     1     -10.811   6.706  68.015  1.00  0.00     0.000 HD 
HETATM   12  C   UNL     1     -12.324   7.008  71.557  1.00  0.00    -0.379 C  
HETATM   13  O   UNL     1     -11.225   6.290  68.761  1.00  0.00    -0.363 OA 
HETATM   14  O   UNL     1     -13.399   6.872  70.630  1.00  0.00    -0.375 OA 
HETATM   15  C   UNL     1     -11.233   6.024  71.166  1.00  0.00    -0.328 C  
HETATM   16  C   UNL     1     -10.741   8.220  70.168  1.00  0.00    -0.239 C  
HETATM   17  H   UNL     1     -13.825   6.026  70.710  1.00  0.00     0.000 HD 
HETATM   18  C   UNL     1     -10.566   6.693  69.965  1.00  0.00    -0.224 C  
BRANCH  16  19
HETATM   19  C   UNL     1      -9.422   8.950  70.265  1.00  0.00    -0.212 C  
HETATM   20  C   UNL     1      -8.246   8.493  69.799  1.00  0.00    -0.121 C  
BRANCH  20  21
HETATM   21  C   UNL     1      -6.913   9.173  69.949  1.00  0.00    -0.054 C  
HETATM   22  O   UNL     1      -7.079  10.459  70.535  1.00  0.00    -0.394 OA 
HETATM   23  H   UNL     1      -6.237  10.889  70.630  1.00  0.00     0.000 HD 
BRANCH  21  24
HETATM   24  C   UNL     1      -5.957   8.360  70.830  1.00  0.00    -0.033 C  
BRANCH  24  25
HETATM   25  C   UNL     1      -6.284   8.374  72.328  1.00  0.00    -0.068 C  
BRANCH  25  26
HETATM   26  C   UNL     1      -6.586   6.983  72.884  1.00  0.00    -0.064 C  
BRANCH  26  27
HETATM   27  C   UNL     1      -8.082   6.786  73.123  1.00  0.00    -0.114 C  
HETATM   28  C   UNL     1      -8.716   8.055  73.667  1.00  0.00    -0.332 C  
ENDBRANCH  26  27
ENDBRANCH  25  26
ENDBRANCH  24  25
ENDBRANCH  21  24
ENDBRANCH  20  21
ENDBRANCH  16  19
ENDBRANCH   9  10
ENDBRANCH   2   9
TORSDOF 11
ENDMDL
MODEL      145
REMARK 921   NORMALIZED FREE ENERGY PREDICTED BY IDOCK:   -4.27 KCAL/MOL
REMARK 922        TOTAL FREE ENERGY PREDICTED BY IDOCK:   -9.41 KCAL/MOL
REMARK 923 INTER-LIGAND FREE ENERGY PREDICTED BY IDOCK:   -7.69 KCAL/MOL
REMARK 924 INTRA-LIGAND FREE ENERGY PREDICTED BY IDOCK:   -1.72 KCAL/MOL
REMARK 927      BINDING AFFINITY PREDICTED BY RF-SCORE:    0.00 PKD
ROOT
HETATM    1  C   UNL     1     -10.189   5.882  71.354  1.00  0.00    -0.261 C  
HETATM    2  C   UNL     1     -10.830   6.398  72.413  1.00  0.00    -0.267 C  
ENDROOT
BRANCH   1   3
HETATM    3  C   UNL     1      -9.616   6.648  70.194  1.00  0.00    -0.168 C  
BRANCH   3   4
HETATM    4  C   UNL     1      -8.195   7.133  70.484  1.00  0.00    -0.125 C  
BRANCH   4   5
HETATM    5  C   UNL     1      -7.690   8.110  69.422  1.00  0.00    -0.103 C  
HETATM    6  O   UNL     1      -6.766  10.274  69.086  1.00  0.00    -0.052 OA 
HETATM    7  C   UNL     1      -7.225   9.412  70.023  1.00  0.00    -0.092 C  
HETATM    8  O   UNL     1      -7.238   9.686  71.214  1.00  0.00    -0.329 OA 
ENDBRANCH   4   5
ENDBRANCH   3   4
ENDBRANCH   1   3
BRANCH   2   9
HETATM    9  C   UNL     1     -11.165   7.849  72.633  1.00  0.00    -0.459 C  
BRANCH   9  10
HETATM   10  C   UNL     1     -12.044   8.508  71.557  1.00  0.00    -0.351 C  
HETATM   11  H   UNL     1     -12.666  12.317  72.036  1.00  0.00     0.000 HD 
HETATM   12  C   UNL     1     -13.519   8.549  71.988  1.00  0.00    -0.381 C  
HETATM   13  O   UNL     1     -13.322  11.630  72.063  1.00  0.00    -0.481 OA 
HETATM   14  O   UNL     1     -13.662   9.014  73.328  1.00  0.00    -1.072 OA 
HETATM   15  C   UNL     1     -14.131   9.583  71.058  1.00  0.00     0.164 C  
HETATM   16  C   UNL     1     -11.710   9.993  71.247  1.00  0.00    -0.452 C  
HETATM   17  H   UNL     1     -14.574   9.040  73.595  1.00  0.00     0.000 HD 
HETATM   18  C   UNL     1     -13.077  10.688  71.014  1.00  0.00    -0.286 C  
BRANCH  16  19
HETATM   19  C   UNL     1     -10.760  10.173  70.087  1.00  0.00    -0.355 C  
HETATM   20  C   UNL     1     -10.916  11.058  69.086  1.00  0.00    -0.289 C  
BRANCH  20  21
HETATM   21  C   UNL     1     -10.017  11.202  67.888  1.00  0.00    -0.173 C  
HETATM   22  O   UNL     1     -10.088  10.036  67.076  1.00  0.00    -0.197 OA 
HETATM   23  H   UNL     1      -9.521  10.126  66.320  1.00  0.00     0.000 HD 
BRANCH  21  24
HETATM   24  C   UNL     1     -10.406  12.412  67.030  1.00  0.00    -0.235 C  
BRANCH  24  25
HETATM   25  C   UNL     1     -11.906  12.552  66.746  1.00  0.00    -0.416 C  
BRANCH  25  26
HETATM   26  C   UNL     1     -12.241  13.792  65.918  1.00  0.00    -0.501 C  
BRANCH  26  27
HETATM   27  C   UNL     1     -11.098  14.166  64.977  1.00  0.00    -0.372 C  
HETATM   28  C   UNL     1     -10.904  15.672  64.930  1.00  0.00    -0.438 C  
ENDBRANCH  26  27
ENDBRANCH  25  26
ENDBRANCH  24  25
ENDBRANCH  21  24
ENDBRANCH  20  21
ENDBRANCH  16  19
ENDBRANCH   9  10
ENDBRANCH   2   9
TORSDOF 11
ENDMDL
MODEL      146
REMARK 921   NORMALIZED FREE ENERGY PREDICTED BY IDOCK:   -4.25 KCAL/MOL
REMARK 922        TOTAL FREE ENERGY PREDICTED BY IDOCK:   -9.38 KCAL/MOL
REMARK 923 INTER-LIGAND FREE ENERGY PREDICTED BY IDOCK:   -8.01 KCAL/MOL
REMARK 924 INTRA-LIGAND FREE ENERGY PREDICTED BY IDOCK:   -1.37 KCAL/MOL
REMARK 927      BINDING AFFINITY PREDICTED BY RF-SCORE:    0.00 PKD
ROOT
HETATM    1  C   UNL     1      -8.541  11.302  68.006  1.00  0.00    -0.140 C  
HETATM    2  C   UNL     1      -8.984  10.285  68.760  1.00  0.00    -0.155 C  
ENDROOT
BRANCH   1   3
HETATM    3  C   UNL     1      -9.387  12.317  67.288  1.00  0.00    -0.185 C  
BRANCH   3   4
HETATM    4  C   UNL     1      -9.896  11.783  65.949  1.00  0.00    -0.265 C  
BRANCH   4   5
HETATM    5  C   UNL     1     -11.417  11.879  65.829  1.00  0.00    -0.326 C  
HETATM    6  O   UNL     1     -13.201  12.328  64.323  1.00  0.00    -0.785 OA 
HETATM    7  C   UNL     1     -11.854  12.255  64.435  1.00  0.00    -0.388 C  
HETATM    8  O   UNL     1     -11.106  12.465  63.491  1.00  0.00    -0.435 OA 
ENDBRANCH   4   5
ENDBRANCH   3   4
ENDBRANCH   1   3
BRANCH   2   9
HETATM    9  C   UNL     1     -10.422   9.910  68.997  1.00  0.00    -0.227 C  
BRANCH   9  10
HETATM   10  C   UNL     1     -10.976  10.213  70.398  1.00  0.00    -0.386 C  
HETATM   11  H   UNL     1     -13.837   7.864  71.590  1.00  0.00     0.000 HD 
HETATM   12  C   UNL     1     -12.207  11.131  70.327  1.00  0.00    -0.352 C  
HETATM   13  O   UNL     1     -13.904   8.798  71.429  1.00  0.00    -0.348 OA 
HETATM   14  O   UNL     1     -13.134  10.691  69.336  1.00  0.00    -0.475 OA 
HETATM   15  C   UNL     1     -12.855  10.963  71.691  1.00  0.00    -0.554 C  
HETATM   16  C   UNL     1     -11.485   8.978  71.192  1.00  0.00    -0.376 C  
HETATM   17  H   UNL     1     -13.895  11.258  69.291  1.00  0.00     0.000 HD 
HETATM   18  C   UNL     1     -12.748   9.460  71.951  1.00  0.00    -0.401 C  
BRANCH  16  19
HETATM   19  C   UNL     1     -10.447   8.378  72.111  1.00  0.00    -0.396 C  
HETATM   20  C   UNL     1      -9.117   8.416  71.910  1.00  0.00    -0.288 C  
BRANCH  20  21
HETATM   21  C   UNL     1      -8.075   7.765  72.776  1.00  0.00    -0.124 C  
HETATM   22  O   UNL     1      -7.174   8.743  73.284  1.00  0.00    -0.350 OA 
HETATM   23  H   UNL     1      -6.516   8.332  73.831  1.00  0.00     0.000 HD 
BRANCH  21  24
HETATM   24  C   UNL     1      -8.704   7.026  73.963  1.00  0.00    -0.200 C  
BRANCH  24  25
HETATM   25  C   UNL     1      -8.938   5.527  73.746  1.00  0.00    -0.124 C  
BRANCH  25  26
HETATM   26  C   UNL     1     -10.405   5.126  73.894  1.00  0.00    -0.289 C  
BRANCH  26  27
HETATM   27  C   UNL     1     -10.702   3.809  73.180  1.00  0.00    -0.267 C  
HETATM   28  C   UNL     1      -9.450   3.255  72.520  1.00  0.00    -0.174 C  
ENDBRANCH  26  27
ENDBRANCH  25  26
ENDBRANCH  24  25
ENDBRANCH  21  24
ENDBRANCH  20  21
ENDBRANCH  16  19
ENDBRANCH   9  10
ENDBRANCH   2   9
TORSDOF 11
ENDMDL
MODEL      147
REMARK 921   NORMALIZED FREE ENERGY PREDICTED BY IDOCK:   -4.24 KCAL/MOL
REMARK 922        TOTAL FREE ENERGY PREDICTED BY IDOCK:   -9.36 KCAL/MOL
REMARK 923 INTER-LIGAND FREE ENERGY PREDICTED BY IDOCK:   -7.91 KCAL/MOL
REMARK 924 INTRA-LIGAND FREE ENERGY PREDICTED BY IDOCK:   -1.45 KCAL/MOL
REMARK 927      BINDING AFFINITY PREDICTED BY RF-SCORE:    0.00 PKD
ROOT
HETATM    1  C   UNL     1      -9.844  14.223  67.581  1.00  0.00    -0.224 C  
HETATM    2  C   UNL     1      -8.644  13.650  67.402  1.00  0.00    -0.212 C  
ENDROOT
BRANCH   1   3
HETATM    3  C   UNL     1     -11.012  13.639  68.327  1.00  0.00    -0.275 C  
BRANCH   3   4
HETATM    4  C   UNL     1     -12.204  13.387  67.402  1.00  0.00    -0.262 C  
BRANCH   4   5
HETATM    5  C   UNL     1     -12.168  14.276  66.158  1.00  0.00    -0.430 C  
HETATM    6  O   UNL     1     -12.588  14.323  63.819  1.00  0.00    -0.821 OA 
HETATM    7  C   UNL     1     -12.606  13.536  64.920  1.00  0.00    -0.342 C  
HETATM    8  O   UNL     1     -12.955  12.365  64.881  1.00  0.00    -0.762 OA 
ENDBRANCH   4   5
ENDBRANCH   3   4
ENDBRANCH   1   3
BRANCH   2   9
HETATM    9  C   UNL     1      -8.236  12.275  67.858  1.00  0.00    -0.161 C  
BRANCH   9  10
HETATM   10  C   UNL     1      -9.265  11.156  67.628  1.00  0.00    -0.151 C  
HETATM   11  H   UNL     1      -7.970   7.553  68.315  1.00  0.00     0.000 HD 
HETATM   12  C   UNL     1      -9.149  10.571  66.211  1.00  0.00    -0.164 C  
HETATM   13  O   UNL     1      -8.253   7.901  67.478  1.00  0.00    -0.121 OA 
HETATM   14  O   UNL     1      -7.792  10.298  65.865  1.00  0.00    -0.127 OA 
HETATM   15  C   UNL     1      -9.890   9.248  66.311  1.00  0.00    -0.361 C  
HETATM   16  C   UNL     1      -9.112   9.915  68.550  1.00  0.00    -0.125 C  
HETATM   17  H   UNL     1      -7.721   9.937  64.989  1.00  0.00     0.000 HD 
HETATM   18  C   UNL     1      -9.434   8.688  67.657  1.00  0.00    -0.141 C  
BRANCH  16  19
HETATM   19  C   UNL     1      -9.969   9.972  69.793  1.00  0.00    -0.276 C  
HETATM   20  C   UNL     1     -11.267   9.627  69.857  1.00  0.00    -0.244 C  
BRANCH  20  21
HETATM   21  C   UNL     1     -12.153   9.744  71.067  1.00  0.00    -0.346 C  
HETATM   22  O   UNL     1     -13.479  10.080  70.676  1.00  0.00    -0.582 OA 
HETATM   23  H   UNL     1     -14.038  10.154  71.440  1.00  0.00     0.000 HD 
BRANCH  21  24
HETATM   24  C   UNL     1     -12.201   8.435  71.863  1.00  0.00    -0.395 C  
BRANCH  24  25
HETATM   25  C   UNL     1     -12.304   7.162  71.016  1.00  0.00    -0.376 C  
BRANCH  25  26
HETATM   26  C   UNL     1     -11.195   6.155  71.317  1.00  0.00    -0.348 C  
BRANCH  26  27
HETATM   27  C   UNL     1     -10.764   6.215  72.781  1.00  0.00    -0.268 C  
HETATM   28  C   UNL     1     -10.989   4.878  73.468  1.00  0.00    -0.397 C  
ENDBRANCH  26  27
ENDBRANCH  25  26
ENDBRANCH  24  25
ENDBRANCH  21  24
ENDBRANCH  20  21
ENDBRANCH  16  19
ENDBRANCH   9  10
ENDBRANCH   2   9
TORSDOF 11
ENDMDL
MODEL      148
REMARK 921   NORMALIZED FREE ENERGY PREDICTED BY IDOCK:   -4.22 KCAL/MOL
REMARK 922        TOTAL FREE ENERGY PREDICTED BY IDOCK:   -9.32 KCAL/MOL
REMARK 923 INTER-LIGAND FREE ENERGY PREDICTED BY IDOCK:   -7.71 KCAL/MOL
REMARK 924 INTRA-LIGAND FREE ENERGY PREDICTED BY IDOCK:   -1.61 KCAL/MOL
REMARK 927      BINDING AFFINITY PREDICTED BY RF-SCORE:    0.00 PKD
ROOT
HETATM    1  C   UNL     1      -9.228  14.577  66.518  1.00  0.00    -0.282 C  
HETATM    2  C   UNL     1      -8.319  13.963  67.290  1.00  0.00    -0.199 C  
ENDROOT
BRANCH   1   3
HETATM    3  C   UNL     1     -10.670  14.185  66.350  1.00  0.00    -0.288 C  
BRANCH   3   4
HETATM    4  C   UNL     1     -11.212  14.600  64.981  1.00  0.00    -0.388 C  
BRANCH   4   5
HETATM    5  C   UNL     1     -12.422  13.764  64.561  1.00  0.00    -0.329 C  
HETATM    6  O   UNL     1     -13.104  11.879  63.283  1.00  0.00    -0.674 OA 
HETATM    7  C   UNL     1     -12.036  12.628  63.646  1.00  0.00    -0.547 C  
HETATM    8  O   UNL     1     -10.902  12.378  63.267  1.00  0.00    -0.432 OA 
ENDBRANCH   4   5
ENDBRANCH   3   4
ENDBRANCH   1   3
BRANCH   2   9
HETATM    9  C   UNL     1      -8.536  12.715  68.102  1.00  0.00    -0.188 C  
BRANCH   9  10
HETATM   10  C   UNL     1      -9.714  11.827  67.670  1.00  0.00    -0.186 C  
HETATM   11  H   UNL     1     -10.497   8.849  70.047  1.00  0.00     0.000 HD 
HETATM   12  C   UNL     1      -9.232  10.617  66.853  1.00  0.00    -0.155 C  
HETATM   13  O   UNL     1     -10.202   8.790  69.145  1.00  0.00    -0.197 OA 
HETATM   14  O   UNL     1      -8.118   9.975  67.470  1.00  0.00    -0.109 OA 
HETATM   15  C   UNL     1     -10.415   9.664  66.899  1.00  0.00    -0.282 C  
HETATM   16  C   UNL     1     -10.522  11.185  68.832  1.00  0.00    -0.233 C  
HETATM   17  H   UNL     1      -7.820   9.228  66.964  1.00  0.00     0.000 HD 
HETATM   18  C   UNL     1     -10.889   9.759  68.349  1.00  0.00    -0.201 C  
BRANCH  16  19
HETATM   19  C   UNL     1     -11.732  11.990  69.246  1.00  0.00    -0.389 C  
HETATM   20  C   UNL     1     -11.706  13.079  70.035  1.00  0.00    -0.285 C  
BRANCH  20  21
HETATM   21  C   UNL     1     -12.905  13.851  70.514  1.00  0.00    -0.184 C  
HETATM   22  O   UNL     1     -13.225  13.484  71.851  1.00  0.00    -0.375 OA 
HETATM   23  H   UNL     1     -13.983  13.970  72.154  1.00  0.00     0.000 HD 
BRANCH  21  24
HETATM   24  C   UNL     1     -12.660  15.363  70.474  1.00  0.00    -0.471 C  
BRANCH  24  25
HETATM   25  C   UNL     1     -12.016  15.883  69.184  1.00  0.00    -0.268 C  
BRANCH  25  26
HETATM   26  C   UNL     1     -10.779  16.743  69.441  1.00  0.00    -0.300 C  
BRANCH  26  27
HETATM   27  C   UNL     1     -10.314  17.453  68.171  1.00  0.00    -0.366 C  
HETATM   28  C   UNL     1      -9.371  18.597  68.503  1.00  0.00    -0.379 C  
ENDBRANCH  26  27
ENDBRANCH  25  26
ENDBRANCH  24  25
ENDBRANCH  21  24
ENDBRANCH  20  21
ENDBRANCH  16  19
ENDBRANCH   9  10
ENDBRANCH   2   9
TORSDOF 11
ENDMDL
MODEL      149
REMARK 921   NORMALIZED FREE ENERGY PREDICTED BY IDOCK:   -4.22 KCAL/MOL
REMARK 922        TOTAL FREE ENERGY PREDICTED BY IDOCK:   -9.32 KCAL/MOL
REMARK 923 INTER-LIGAND FREE ENERGY PREDICTED BY IDOCK:   -7.96 KCAL/MOL
REMARK 924 INTRA-LIGAND FREE ENERGY PREDICTED BY IDOCK:   -1.36 KCAL/MOL
REMARK 927      BINDING AFFINITY PREDICTED BY RF-SCORE:    0.00 PKD
ROOT
HETATM    1  C   UNL     1     -10.032  12.013  64.221  1.00  0.00    -0.266 C  
HETATM    2  C   UNL     1      -9.329  11.116  64.927  1.00  0.00    -0.219 C  
ENDROOT
BRANCH   1   3
HETATM    3  C   UNL     1     -11.002  11.717  63.111  1.00  0.00    -0.275 C  
BRANCH   3   4
HETATM    4  C   UNL     1     -12.435  12.084  63.500  1.00  0.00    -0.654 C  
BRANCH   4   5
HETATM    5  C   UNL     1     -12.532  12.587  64.941  1.00  0.00    -0.524 C  
HETATM    6  O   UNL     1     -12.628  14.541  66.291  1.00  0.00    -0.274 OA 
HETATM    7  C   UNL     1     -12.530  14.093  65.017  1.00  0.00    -0.419 C  
HETATM    8  O   UNL     1     -12.460  14.850  64.061  1.00  0.00    -0.807 OA 
ENDBRANCH   4   5
ENDBRANCH   3   4
ENDBRANCH   1   3
BRANCH   2   9
HETATM    9  C   UNL     1      -9.318   9.626  64.716  1.00  0.00    -0.286 C  
BRANCH   9  10
HETATM   10  C   UNL     1      -9.114   8.769  65.976  1.00  0.00    -0.265 C  
HETATM   11  H   UNL     1      -6.957  10.414  68.763  1.00  0.00     0.000 HD 
HETATM   12  C   UNL     1      -7.806   7.964  65.899  1.00  0.00    -0.101 C  
HETATM   13  O   UNL     1      -6.741   9.631  68.270  1.00  0.00    -0.060 OA 
HETATM   14  O   UNL     1      -6.713   8.775  65.473  1.00  0.00    -0.069 OA 
HETATM   15  C   UNL     1      -7.558   7.552  67.341  1.00  0.00    -0.109 C  
HETATM   16  C   UNL     1      -8.977   9.564  67.304  1.00  0.00    -0.143 C  
HETATM   17  H   UNL     1      -5.906   8.277  65.425  1.00  0.00     0.000 HD 
HETATM   18  C   UNL     1      -7.905   8.811  68.134  1.00  0.00    -0.102 C  
BRANCH  16  19
HETATM   19  C   UNL     1     -10.281   9.729  68.049  1.00  0.00    -0.229 C  
HETATM   20  C   UNL     1     -10.802  10.902  68.451  1.00  0.00    -0.266 C  
BRANCH  20  21
HETATM   21  C   UNL     1     -12.061  11.079  69.254  1.00  0.00    -0.292 C  
HETATM   22  O   UNL     1     -12.305   9.925  70.050  1.00  0.00    -0.485 OA 
HETATM   23  H   UNL     1     -13.100  10.037  70.557  1.00  0.00     0.000 HD 
BRANCH  21  24
HETATM   24  C   UNL     1     -11.976  12.297  70.182  1.00  0.00    -0.377 C  
BRANCH  24  25
HETATM   25  C   UNL     1     -11.578  13.609  69.497  1.00  0.00    -0.361 C  
BRANCH  25  26
HETATM   26  C   UNL     1     -12.192  14.839  70.165  1.00  0.00    -0.391 C  
BRANCH  26  27
HETATM   27  C   UNL     1     -12.226  14.695  71.685  1.00  0.00    -0.411 C  
HETATM   28  C   UNL     1     -13.426  15.420  72.272  1.00  0.00    -0.573 C  
ENDBRANCH  26  27
ENDBRANCH  25  26
ENDBRANCH  24  25
ENDBRANCH  21  24
ENDBRANCH  20  21
ENDBRANCH  16  19
ENDBRANCH   9  10
ENDBRANCH   2   9
TORSDOF 11
ENDMDL
MODEL      150
REMARK 921   NORMALIZED FREE ENERGY PREDICTED BY IDOCK:   -4.20 KCAL/MOL
REMARK 922        TOTAL FREE ENERGY PREDICTED BY IDOCK:   -9.30 KCAL/MOL
REMARK 923 INTER-LIGAND FREE ENERGY PREDICTED BY IDOCK:   -7.13 KCAL/MOL
REMARK 924 INTRA-LIGAND FREE ENERGY PREDICTED BY IDOCK:   -2.17 KCAL/MOL
REMARK 927      BINDING AFFINITY PREDICTED BY RF-SCORE:    0.00 PKD
ROOT
HETATM    1  C   UNL     1     -10.644  15.974  67.419  1.00  0.00    -0.316 C  
HETATM    2  C   UNL     1      -9.638  15.568  68.209  1.00  0.00    -0.201 C  
ENDROOT
BRANCH   1   3
HETATM    3  C   UNL     1     -10.530  16.436  65.993  1.00  0.00    -0.333 C  
BRANCH   3   4
HETATM    4  C   UNL     1     -10.554  15.260  65.015  1.00  0.00    -0.444 C  
BRANCH   4   5
HETATM    5  C   UNL     1     -11.436  14.114  65.511  1.00  0.00    -0.324 C  
HETATM    6  O   UNL     1     -13.188  12.631  64.891  1.00  0.00    -0.819 OA 
HETATM    7  C   UNL     1     -12.415  13.655  64.459  1.00  0.00    -0.287 C  
HETATM    8  O   UNL     1     -12.517  14.122  63.335  1.00  0.00    -0.797 OA 
ENDBRANCH   4   5
ENDBRANCH   3   4
ENDBRANCH   1   3
BRANCH   2   9
HETATM    9  C   UNL     1      -8.176  15.547  67.852  1.00  0.00    -0.149 C  
BRANCH   9  10
HETATM   10  C   UNL     1      -7.587  14.170  67.507  1.00  0.00    -0.200 C  
HETATM   11  H   UNL     1      -7.001  11.815  70.546  1.00  0.00     0.000 HD 
HETATM   12  C   UNL     1      -6.055  14.170  67.633  1.00  0.00    -0.058 C  
HETATM   13  O   UNL     1      -6.333  12.175  69.975  1.00  0.00    -0.128 OA 
HETATM   14  O   UNL     1      -5.627  14.781  68.849  1.00  0.00    -0.085 OA 
HETATM   15  C   UNL     1      -5.704  12.692  67.696  1.00  0.00    -0.136 C  
HETATM   16  C   UNL     1      -8.031  13.007  68.437  1.00  0.00    -0.135 C  
HETATM   17  H   UNL     1      -4.680  14.781  68.927  1.00  0.00     0.000 HD 
HETATM   18  C   UNL     1      -6.777  12.112  68.616  1.00  0.00    -0.081 C  
BRANCH  16  19
HETATM   19  C   UNL     1      -9.225  12.239  67.920  1.00  0.00    -0.190 C  
HETATM   20  C   UNL     1      -9.910  11.311  68.612  1.00  0.00    -0.208 C  
BRANCH  20  21
HETATM   21  C   UNL     1     -11.056  10.488  68.089  1.00  0.00    -0.287 C  
HETATM   22  O   UNL     1     -11.814  11.241  67.150  1.00  0.00    -0.524 OA 
HETATM   23  H   UNL     1     -12.538  10.722  66.820  1.00  0.00     0.000 HD 
BRANCH  21  24
HETATM   24  C   UNL     1     -10.568   9.208  67.401  1.00  0.00    -0.315 C  
BRANCH  24  25
HETATM   25  C   UNL     1      -9.307   9.371  66.545  1.00  0.00    -0.222 C  
BRANCH  25  26
HETATM   26  C   UNL     1      -9.614   9.537  65.057  1.00  0.00    -0.218 C  
BRANCH  26  27
HETATM   27  C   UNL     1      -9.442  10.986  64.606  1.00  0.00    -0.270 C  
HETATM   28  C   UNL     1      -9.868  11.157  63.158  1.00  0.00    -0.403 C  
ENDBRANCH  26  27
ENDBRANCH  25  26
ENDBRANCH  24  25
ENDBRANCH  21  24
ENDBRANCH  20  21
ENDBRANCH  16  19
ENDBRANCH   9  10
ENDBRANCH   2   9
TORSDOF 11
ENDMDL
MODEL      151
REMARK 921   NORMALIZED FREE ENERGY PREDICTED BY IDOCK:   -4.18 KCAL/MOL
REMARK 922        TOTAL FREE ENERGY PREDICTED BY IDOCK:   -9.26 KCAL/MOL
REMARK 923 INTER-LIGAND FREE ENERGY PREDICTED BY IDOCK:   -7.90 KCAL/MOL
REMARK 924 INTRA-LIGAND FREE ENERGY PREDICTED BY IDOCK:   -1.36 KCAL/MOL
REMARK 927      BINDING AFFINITY PREDICTED BY RF-SCORE:    0.00 PKD
ROOT
HETATM    1  C   UNL     1      -9.072   9.396  67.262  1.00  0.00    -0.150 C  
HETATM    2  C   UNL     1      -8.738   9.934  66.080  1.00  0.00    -0.152 C  
ENDROOT
BRANCH   1   3
HETATM    3  C   UNL     1     -10.443   8.948  67.686  1.00  0.00    -0.320 C  
BRANCH   3   4
HETATM    4  C   UNL     1     -10.676   7.469  67.375  1.00  0.00    -0.331 C  
BRANCH   4   5
HETATM    5  C   UNL     1      -9.425   6.794  66.812  1.00  0.00    -0.199 C  
HETATM    6  O   UNL     1      -8.602   4.797  65.818  1.00  0.00    -0.119 OA 
HETATM    7  C   UNL     1      -9.705   5.393  66.329  1.00  0.00    -0.162 C  
HETATM    8  O   UNL     1     -10.791   4.834  66.369  1.00  0.00    -0.174 OA 
ENDBRANCH   4   5
ENDBRANCH   3   4
ENDBRANCH   1   3
BRANCH   2   9
HETATM    9  C   UNL     1      -9.677  10.258  64.950  1.00  0.00    -0.385 C  
BRANCH   9  10
HETATM   10  C   UNL     1     -10.247  11.686  64.937  1.00  0.00    -0.315 C  
HETATM   11  H   UNL     1     -14.122  11.922  65.172  1.00  0.00     0.000 HD 
HETATM   12  C   UNL     1     -10.638  12.119  63.514  1.00  0.00    -0.458 C  
HETATM   13  O   UNL     1     -13.583  12.196  64.439  1.00  0.00    -0.513 OA 
HETATM   14  O   UNL     1     -11.386  11.107  62.843  1.00  0.00    -0.798 OA 
HETATM   15  C   UNL     1     -11.551  13.311  63.745  1.00  0.00    -0.427 C  
HETATM   16  C   UNL     1     -11.554  11.886  65.753  1.00  0.00    -0.281 C  
HETATM   17  H   UNL     1     -11.627  11.375  61.964  1.00  0.00     0.000 HD 
HETATM   18  C   UNL     1     -12.418  12.870  64.923  1.00  0.00    -0.478 C  
BRANCH  16  19
HETATM   19  C   UNL     1     -11.319  12.365  67.166  1.00  0.00    -0.390 C  
HETATM   20  C   UNL     1     -10.800  13.558  67.505  1.00  0.00    -0.276 C  
BRANCH  20  21
HETATM   21  C   UNL     1     -10.495  14.024  68.902  1.00  0.00    -0.200 C  
HETATM   22  O   UNL     1      -9.219  13.545  69.313  1.00  0.00    -0.171 OA 
HETATM   23  H   UNL     1      -9.027  13.838  70.196  1.00  0.00     0.000 HD 
BRANCH  21  24
HETATM   24  C   UNL     1     -10.492  15.553  69.003  1.00  0.00    -0.231 C  
BRANCH  24  25
HETATM   25  C   UNL     1      -9.331  16.250  68.285  1.00  0.00    -0.204 C  
BRANCH  25  26
HETATM   26  C   UNL     1      -9.799  17.264  67.242  1.00  0.00    -0.267 C  
BRANCH  26  27
HETATM   27  C   UNL     1     -10.625  18.382  67.876  1.00  0.00    -0.379 C  
HETATM   28  C   UNL     1     -10.818  19.533  66.903  1.00  0.00    -0.523 C  
ENDBRANCH  26  27
ENDBRANCH  25  26
ENDBRANCH  24  25
ENDBRANCH  21  24
ENDBRANCH  20  21
ENDBRANCH  16  19
ENDBRANCH   9  10
ENDBRANCH   2   9
TORSDOF 11
ENDMDL
MODEL      152
REMARK 921   NORMALIZED FREE ENERGY PREDICTED BY IDOCK:   -4.15 KCAL/MOL
REMARK 922        TOTAL FREE ENERGY PREDICTED BY IDOCK:   -9.22 KCAL/MOL
REMARK 923 INTER-LIGAND FREE ENERGY PREDICTED BY IDOCK:   -7.50 KCAL/MOL
REMARK 924 INTRA-LIGAND FREE ENERGY PREDICTED BY IDOCK:   -1.72 KCAL/MOL
REMARK 927      BINDING AFFINITY PREDICTED BY RF-SCORE:    0.00 PKD
ROOT
HETATM    1  C   UNL     1      -8.291   9.854  69.085  1.00  0.00    -0.145 C  
HETATM    2  C   UNL     1      -8.051  10.294  67.841  1.00  0.00    -0.102 C  
ENDROOT
BRANCH   1   3
HETATM    3  C   UNL     1      -9.408   8.943  69.512  1.00  0.00    -0.155 C  
BRANCH   3   4
HETATM    4  C   UNL     1     -10.683   9.724  69.832  1.00  0.00    -0.303 C  
BRANCH   4   5
HETATM    5  C   UNL     1     -11.533   9.032  70.898  1.00  0.00    -0.347 C  
HETATM    6  O   UNL     1     -13.359   9.329  72.392  1.00  0.00    -0.445 OA 
HETATM    7  C   UNL     1     -12.596   9.944  71.457  1.00  0.00    -0.416 C  
HETATM    8  O   UNL     1     -12.783  11.104  71.120  1.00  0.00    -0.380 OA 
ENDBRANCH   4   5
ENDBRANCH   3   4
ENDBRANCH   1   3
BRANCH   2   9
HETATM    9  C   UNL     1      -8.886  10.016  66.620  1.00  0.00    -0.145 C  
BRANCH   9  10
HETATM   10  C   UNL     1      -8.235  10.351  65.268  1.00  0.00    -0.162 C  
HETATM   11  H   UNL     1      -9.198   7.982  62.338  1.00  0.00     0.000 HD 
HETATM   12  C   UNL     1      -6.942   9.548  65.056  1.00  0.00    -0.101 C  
HETATM   13  O   UNL     1      -8.332   8.093  62.713  1.00  0.00    -0.160 OA 
HETATM   14  O   UNL     1      -7.121   8.169  65.375  1.00  0.00    -0.062 OA 
HETATM   15  C   UNL     1      -6.695   9.661  63.560  1.00  0.00    -0.110 C  
HETATM   16  C   UNL     1      -9.090  10.007  64.017  1.00  0.00    -0.296 C  
HETATM   17  H   UNL     1      -6.321   7.673  65.244  1.00  0.00     0.000 HD 
HETATM   18  C   UNL     1      -8.088   9.481  62.957  1.00  0.00    -0.146 C  
BRANCH  16  19
HETATM   19  C   UNL     1      -9.919  11.164  63.512  1.00  0.00    -0.425 C  
HETATM   20  C   UNL     1     -11.068  11.596  64.064  1.00  0.00    -0.458 C  
BRANCH  20  21
HETATM   21  C   UNL     1     -11.941  12.700  63.534  1.00  0.00    -0.548 C  
HETATM   22  O   UNL     1     -13.272  12.231  63.352  1.00  0.00    -0.660 OA 
HETATM   23  H   UNL     1     -13.824  12.928  63.017  1.00  0.00     0.000 HD 
BRANCH  21  24
HETATM   24  C   UNL     1     -11.979  13.900  64.487  1.00  0.00    -0.464 C  
BRANCH  24  25
HETATM   25  C   UNL     1     -10.607  14.463  64.879  1.00  0.00    -0.456 C  
BRANCH  25  26
HETATM   26  C   UNL     1     -10.179  14.060  66.289  1.00  0.00    -0.300 C  
BRANCH  26  27
HETATM   27  C   UNL     1     -11.360  14.058  67.257  1.00  0.00    -0.350 C  
HETATM   28  C   UNL     1     -11.448  12.738  68.004  1.00  0.00    -0.364 C  
ENDBRANCH  26  27
ENDBRANCH  25  26
ENDBRANCH  24  25
ENDBRANCH  21  24
ENDBRANCH  20  21
ENDBRANCH  16  19
ENDBRANCH   9  10
ENDBRANCH   2   9
TORSDOF 11
ENDMDL
MODEL      153
REMARK 921   NORMALIZED FREE ENERGY PREDICTED BY IDOCK:   -4.13 KCAL/MOL
REMARK 922        TOTAL FREE ENERGY PREDICTED BY IDOCK:   -9.18 KCAL/MOL
REMARK 923 INTER-LIGAND FREE ENERGY PREDICTED BY IDOCK:   -7.24 KCAL/MOL
REMARK 924 INTRA-LIGAND FREE ENERGY PREDICTED BY IDOCK:   -1.94 KCAL/MOL
REMARK 927      BINDING AFFINITY PREDICTED BY RF-SCORE:    0.00 PKD
ROOT
HETATM    1  C   UNL     1      -9.620  11.392  68.818  1.00  0.00    -0.139 C  
HETATM    2  C   UNL     1      -8.857  12.203  68.071  1.00  0.00    -0.181 C  
ENDROOT
BRANCH   1   3
HETATM    3  C   UNL     1     -10.959  10.823  68.439  1.00  0.00    -0.299 C  
BRANCH   3   4
HETATM    4  C   UNL     1     -12.032  11.166  69.474  1.00  0.00    -0.425 C  
BRANCH   4   5
HETATM    5  C   UNL     1     -12.045  12.655  69.820  1.00  0.00    -0.301 C  
HETATM    6  O   UNL     1     -12.697  14.239  71.469  1.00  0.00    -0.315 OA 
HETATM    7  C   UNL     1     -12.696  12.922  71.154  1.00  0.00    -0.276 C  
HETATM    8  O   UNL     1     -13.166  12.072  71.895  1.00  0.00    -0.480 OA 
ENDBRANCH   4   5
ENDBRANCH   3   4
ENDBRANCH   1   3
BRANCH   2   9
HETATM    9  C   UNL     1      -9.210  12.764  66.720  1.00  0.00    -0.225 C  
BRANCH   9  10
HETATM   10  C   UNL     1      -9.421  14.286  66.657  1.00  0.00    -0.302 C  
HETATM   11  H   UNL     1     -11.617  15.768  69.504  1.00  0.00     0.000 HD 
HETATM   12  C   UNL     1     -10.723  14.640  65.919  1.00  0.00    -0.309 C  
HETATM   13  O   UNL     1     -11.823  15.764  68.576  1.00  0.00    -0.363 OA 
HETATM   14  O   UNL     1     -11.816  13.843  66.370  1.00  0.00    -0.369 OA 
HETATM   15  C   UNL     1     -10.983  16.080  66.329  1.00  0.00    -0.071 C  
HETATM   16  C   UNL     1      -9.576  14.991  68.033  1.00  0.00    -0.208 C  
HETATM   17  H   UNL     1     -12.620  14.062  65.914  1.00  0.00     0.000 HD 
HETATM   18  C   UNL     1     -10.652  16.088  67.821  1.00  0.00    -0.309 C  
BRANCH  16  19
HETATM   19  C   UNL     1      -8.281  15.543  68.581  1.00  0.00    -0.162 C  
HETATM   20  C   UNL     1      -7.763  16.748  68.282  1.00  0.00    -0.187 C  
BRANCH  20  21
HETATM   21  C   UNL     1      -6.443  17.284  68.763  1.00  0.00    -0.194 C  
HETATM   22  O   UNL     1      -5.401  16.902  67.872  1.00  0.00    -0.111 OA 
HETATM   23  H   UNL     1      -4.568  17.241  68.176  1.00  0.00     0.000 HD 
BRANCH  21  24
HETATM   24  C   UNL     1      -6.455  18.814  68.865  1.00  0.00    -0.282 C  
BRANCH  24  25
HETATM   25  C   UNL     1      -7.834  19.465  68.709  1.00  0.00    -0.392 C  
BRANCH  25  26
HETATM   26  C   UNL     1      -7.927  20.378  67.488  1.00  0.00    -0.329 C  
BRANCH  26  27
HETATM   27  C   UNL     1      -8.805  19.768  66.396  1.00  0.00    -0.428 C  
HETATM   28  C   UNL     1     -10.266  19.766  66.813  1.00  0.00    -0.582 C  
ENDBRANCH  26  27
ENDBRANCH  25  26
ENDBRANCH  24  25
ENDBRANCH  21  24
ENDBRANCH  20  21
ENDBRANCH  16  19
ENDBRANCH   9  10
ENDBRANCH   2   9
TORSDOF 11
ENDMDL
MODEL      154
REMARK 921   NORMALIZED FREE ENERGY PREDICTED BY IDOCK:   -4.12 KCAL/MOL
REMARK 922        TOTAL FREE ENERGY PREDICTED BY IDOCK:   -9.17 KCAL/MOL
REMARK 923 INTER-LIGAND FREE ENERGY PREDICTED BY IDOCK:   -7.51 KCAL/MOL
REMARK 924 INTRA-LIGAND FREE ENERGY PREDICTED BY IDOCK:   -1.66 KCAL/MOL
REMARK 927      BINDING AFFINITY PREDICTED BY RF-SCORE:    0.00 PKD
ROOT
HETATM    1  C   UNL     1     -13.224   9.828  71.029  1.00  0.00    -0.341 C  
HETATM    2  C   UNL     1     -12.645   8.627  71.184  1.00  0.00    -0.176 C  
ENDROOT
BRANCH   1   3
HETATM    3  C   UNL     1     -13.177  10.975  72.000  1.00  0.00    -0.447 C  
BRANCH   3   4
HETATM    4  C   UNL     1     -12.782  12.282  71.311  1.00  0.00    -0.351 C  
BRANCH   4   5
HETATM    5  C   UNL     1     -13.425  13.501  71.973  1.00  0.00    -0.584 C  
HETATM    6  O   UNL     1     -13.195  15.841  72.324  1.00  0.00    -0.445 OA 
HETATM    7  C   UNL     1     -12.621  14.758  71.751  1.00  0.00    -0.334 C  
HETATM    8  O   UNL     1     -11.576  14.827  71.122  1.00  0.00    -0.315 OA 
ENDBRANCH   4   5
ENDBRANCH   3   4
ENDBRANCH   1   3
BRANCH   2   9
HETATM    9  C   UNL     1     -11.879   8.155  72.390  1.00  0.00    -0.448 C  
BRANCH   9  10
HETATM   10  C   UNL     1     -10.392   8.543  72.436  1.00  0.00    -0.372 C  
HETATM   11  H   UNL     1      -8.071   6.471  70.101  1.00  0.00     0.000 HD 
HETATM   12  C   UNL     1      -9.616   7.667  73.434  1.00  0.00    -0.288 C  
HETATM   13  O   UNL     1      -8.043   6.493  71.051  1.00  0.00    -0.116 OA 
HETATM   14  O   UNL     1      -9.930   6.285  73.276  1.00  0.00    -0.165 OA 
HETATM   15  C   UNL     1      -8.165   7.874  73.034  1.00  0.00    -0.208 C  
HETATM   16  C   UNL     1      -9.616   8.354  71.103  1.00  0.00    -0.226 C  
HETATM   17  H   UNL     1      -9.451   5.744  73.893  1.00  0.00     0.000 HD 
HETATM   18  C   UNL     1      -8.210   7.838  71.507  1.00  0.00    -0.105 C  
BRANCH  16  19
HETATM   19  C   UNL     1      -9.557   9.602  70.253  1.00  0.00    -0.307 C  
HETATM   20  C   UNL     1      -8.592   9.887  69.360  1.00  0.00    -0.180 C  
BRANCH  20  21
HETATM   21  C   UNL     1      -8.481  11.154  68.557  1.00  0.00    -0.156 C  
HETATM   22  O   UNL     1      -7.423  11.047  67.612  1.00  0.00    -0.092 OA 
HETATM   23  H   UNL     1      -7.352  11.847  67.105  1.00  0.00     0.000 HD 
BRANCH  21  24
HETATM   24  C   UNL     1      -9.777  11.461  67.799  1.00  0.00    -0.184 C  
BRANCH  24  25
HETATM   25  C   UNL     1     -10.484  12.756  68.216  1.00  0.00    -0.250 C  
BRANCH  25  26
HETATM   26  C   UNL     1     -11.910  12.855  67.678  1.00  0.00    -0.400 C  
BRANCH  26  27
HETATM   27  C   UNL     1     -11.950  12.700  66.159  1.00  0.00    -0.458 C  
HETATM   28  C   UNL     1     -12.606  13.906  65.507  1.00  0.00    -0.560 C  
ENDBRANCH  26  27
ENDBRANCH  25  26
ENDBRANCH  24  25
ENDBRANCH  21  24
ENDBRANCH  20  21
ENDBRANCH  16  19
ENDBRANCH   9  10
ENDBRANCH   2   9
TORSDOF 11
ENDMDL
MODEL      155
REMARK 921   NORMALIZED FREE ENERGY PREDICTED BY IDOCK:   -4.12 KCAL/MOL
REMARK 922        TOTAL FREE ENERGY PREDICTED BY IDOCK:   -9.16 KCAL/MOL
REMARK 923 INTER-LIGAND FREE ENERGY PREDICTED BY IDOCK:   -7.36 KCAL/MOL
REMARK 924 INTRA-LIGAND FREE ENERGY PREDICTED BY IDOCK:   -1.80 KCAL/MOL
REMARK 927      BINDING AFFINITY PREDICTED BY RF-SCORE:    0.00 PKD
ROOT
HETATM    1  C   UNL     1     -10.911   5.681  69.144  1.00  0.00    -0.281 C  
HETATM    2  C   UNL     1     -10.524   5.882  67.875  1.00  0.00    -0.297 C  
ENDROOT
BRANCH   1   3
HETATM    3  C   UNL     1     -11.730   6.616  69.989  1.00  0.00    -0.378 C  
BRANCH   3   4
HETATM    4  C   UNL     1     -10.916   7.830  70.440  1.00  0.00    -0.255 C  
BRANCH   4   5
HETATM    5  C   UNL     1      -9.712   7.433  71.294  1.00  0.00    -0.171 C  
HETATM    6  O   UNL     1      -8.962   7.116  73.528  1.00  0.00    -0.136 OA 
HETATM    7  C   UNL     1     -10.023   7.480  72.769  1.00  0.00    -0.227 C  
HETATM    8  O   UNL     1     -11.098   7.795  73.256  1.00  0.00    -0.373 OA 
ENDBRANCH   4   5
ENDBRANCH   3   4
ENDBRANCH   1   3
BRANCH   2   9
HETATM    9  C   UNL     1     -10.777   7.116  67.051  1.00  0.00    -0.420 C  
BRANCH   9  10
HETATM   10  C   UNL     1      -9.587   8.076  66.894  1.00  0.00    -0.265 C  
HETATM   11  H   UNL     1      -9.497  10.061  63.550  1.00  0.00     0.000 HD 
HETATM   12  C   UNL     1      -8.423   7.407  66.144  1.00  0.00    -0.145 C  
HETATM   13  O   UNL     1      -8.861   9.419  63.843  1.00  0.00    -0.217 OA 
HETATM   14  O   UNL     1      -8.874   6.723  64.977  1.00  0.00    -0.357 OA 
HETATM   15  C   UNL     1      -7.563   8.581  65.705  1.00  0.00    -0.085 C  
HETATM   16  C   UNL     1      -9.874   9.355  66.059  1.00  0.00    -0.366 C  
HETATM   17  H   UNL     1      -8.154   6.309  64.514  1.00  0.00     0.000 HD 
HETATM   18  C   UNL     1      -8.586   9.613  65.234  1.00  0.00    -0.152 C  
BRANCH  16  19
HETATM   19  C   UNL     1     -10.279  10.547  66.894  1.00  0.00    -0.280 C  
HETATM   20  C   UNL     1      -9.741  11.776  66.804  1.00  0.00    -0.213 C  
BRANCH  20  21
HETATM   21  C   UNL     1     -10.083  12.955  67.674  1.00  0.00    -0.221 C  
HETATM   22  O   UNL     1      -9.479  14.137  67.162  1.00  0.00    -0.220 OA 
HETATM   23  H   UNL     1      -9.695  14.881  67.711  1.00  0.00     0.000 HD 
BRANCH  21  24
HETATM   24  C   UNL     1     -11.597  13.182  67.753  1.00  0.00    -0.379 C  
BRANCH  24  25
HETATM   25  C   UNL     1     -12.150  14.225  66.776  1.00  0.00    -0.446 C  
BRANCH  25  26
HETATM   26  C   UNL     1     -12.860  13.600  65.576  1.00  0.00    -0.443 C  
BRANCH  26  27
HETATM   27  C   UNL     1     -12.066  13.800  64.286  1.00  0.00    -0.481 C  
HETATM   28  C   UNL     1     -11.546  12.474  63.758  1.00  0.00    -0.552 C  
ENDBRANCH  26  27
ENDBRANCH  25  26
ENDBRANCH  24  25
ENDBRANCH  21  24
ENDBRANCH  20  21
ENDBRANCH  16  19
ENDBRANCH   9  10
ENDBRANCH   2   9
TORSDOF 11
ENDMDL
MODEL      156
REMARK 921   NORMALIZED FREE ENERGY PREDICTED BY IDOCK:   -4.12 KCAL/MOL
REMARK 922        TOTAL FREE ENERGY PREDICTED BY IDOCK:   -9.16 KCAL/MOL
REMARK 923 INTER-LIGAND FREE ENERGY PREDICTED BY IDOCK:   -6.86 KCAL/MOL
REMARK 924 INTRA-LIGAND FREE ENERGY PREDICTED BY IDOCK:   -2.30 KCAL/MOL
REMARK 927      BINDING AFFINITY PREDICTED BY RF-SCORE:    0.00 PKD
ROOT
HETATM    1  C   UNL     1     -11.399   6.120  70.404  1.00  0.00    -0.399 C  
HETATM    2  C   UNL     1     -11.695   6.789  69.280  1.00  0.00     0.050 C  
ENDROOT
BRANCH   1   3
HETATM    3  C   UNL     1     -10.283   5.129  70.588  1.00  0.00    -0.326 C  
BRANCH   3   4
HETATM    4  C   UNL     1      -9.356   5.529  71.737  1.00  0.00    -0.162 C  
BRANCH   4   5
HETATM    5  C   UNL     1      -8.566   6.801  71.426  1.00  0.00    -0.124 C  
HETATM    6  O   UNL     1      -8.269   9.077  72.042  1.00  0.00    -0.360 OA 
HETATM    7  C   UNL     1      -8.977   7.954  72.307  1.00  0.00    -0.156 C  
HETATM    8  O   UNL     1      -9.835   7.911  73.175  1.00  0.00    -0.268 OA 
ENDBRANCH   4   5
ENDBRANCH   3   4
ENDBRANCH   1   3
BRANCH   2   9
HETATM    9  C   UNL     1     -11.009   6.644  67.949  1.00  0.00    -0.342 C  
BRANCH   9  10
HETATM   10  C   UNL     1      -9.743   7.493  67.747  1.00  0.00    -0.176 C  
HETATM   11  H   UNL     1      -8.610   7.919  64.051  1.00  0.00     0.000 HD 
HETATM   12  C   UNL     1      -8.484   6.612  67.685  1.00  0.00    -0.121 C  
HETATM   13  O   UNL     1      -8.130   7.478  64.742  1.00  0.00    -0.135 OA 
HETATM   14  O   UNL     1      -8.668   5.492  66.822  1.00  0.00    -0.114 OA 
HETATM   15  C   UNL     1      -7.443   7.527  67.061  1.00  0.00    -0.098 C  
HETATM   16  C   UNL     1      -9.691   8.301  66.422  1.00  0.00    -0.300 C  
HETATM   17  H   UNL     1      -7.890   4.948  66.783  1.00  0.00     0.000 HD 
HETATM   18  C   UNL     1      -8.215   8.237  65.951  1.00  0.00    -0.119 C  
BRANCH  16  19
HETATM   19  C   UNL     1     -10.200   9.718  66.555  1.00  0.00    -0.289 C  
HETATM   20  C   UNL     1     -10.597  10.294  67.704  1.00  0.00    -0.312 C  
BRANCH  20  21
HETATM   21  C   UNL     1     -11.171  11.678  67.844  1.00  0.00    -0.269 C  
HETATM   22  O   UNL     1     -12.139  11.915  66.828  1.00  0.00    -0.593 OA 
HETATM   23  H   UNL     1     -12.501  12.788  66.916  1.00  0.00     0.000 HD 
BRANCH  21  24
HETATM   24  C   UNL     1     -11.842  11.879  69.207  1.00  0.00    -0.379 C  
BRANCH  24  25
HETATM   25  C   UNL     1     -11.688  10.709  70.186  1.00  0.00    -0.417 C  
BRANCH  25  26
HETATM   26  C   UNL     1     -12.972  10.405  70.957  1.00  0.00    -0.490 C  
BRANCH  26  27
HETATM   27  C   UNL     1     -12.821   9.162  71.832  1.00  0.00    -0.466 C  
HETATM   28  C   UNL     1     -14.179   8.636  72.265  1.00  0.00    -0.497 C  
ENDBRANCH  26  27
ENDBRANCH  25  26
ENDBRANCH  24  25
ENDBRANCH  21  24
ENDBRANCH  20  21
ENDBRANCH  16  19
ENDBRANCH   9  10
ENDBRANCH   2   9
TORSDOF 11
ENDMDL
MODEL      157
REMARK 921   NORMALIZED FREE ENERGY PREDICTED BY IDOCK:   -4.04 KCAL/MOL
REMARK 922        TOTAL FREE ENERGY PREDICTED BY IDOCK:   -9.04 KCAL/MOL
REMARK 923 INTER-LIGAND FREE ENERGY PREDICTED BY IDOCK:   -6.90 KCAL/MOL
REMARK 924 INTRA-LIGAND FREE ENERGY PREDICTED BY IDOCK:   -2.14 KCAL/MOL
REMARK 927      BINDING AFFINITY PREDICTED BY RF-SCORE:    0.00 PKD
ROOT
HETATM    1  C   UNL     1      -8.869   5.168  68.254  1.00  0.00    -0.107 C  
HETATM    2  C   UNL     1      -8.584   6.037  67.273  1.00  0.00    -0.106 C  
ENDROOT
BRANCH   1   3
HETATM    3  C   UNL     1     -10.225   4.899  68.845  1.00  0.00    -0.137 C  
BRANCH   3   4
HETATM    4  C   UNL     1     -10.347   5.470  70.259  1.00  0.00    -0.349 C  
BRANCH   4   5
HETATM    5  C   UNL     1     -10.638   6.972  70.252  1.00  0.00    -0.247 C  
HETATM    6  O   UNL     1     -12.120   8.645  71.061  1.00  0.00    -0.287 OA 
HETATM    7  C   UNL     1     -11.868   7.315  71.055  1.00  0.00    -0.318 C  
HETATM    8  O   UNL     1     -12.571   6.513  71.651  1.00  0.00    -0.318 OA 
ENDBRANCH   4   5
ENDBRANCH   3   4
ENDBRANCH   1   3
BRANCH   2   9
HETATM    9  C   UNL     1      -9.553   6.971  66.599  1.00  0.00    -0.220 C  
BRANCH   9  10
HETATM   10  C   UNL     1      -9.169   8.460  66.607  1.00  0.00    -0.226 C  
HETATM   11  H   UNL     1     -11.448  10.765  64.457  1.00  0.00     0.000 HD 
HETATM   12  C   UNL     1      -8.258   8.809  65.419  1.00  0.00    -0.136 C  
HETATM   13  O   UNL     1     -10.525  10.591  64.314  1.00  0.00    -0.287 OA 
HETATM   14  O   UNL     1      -8.755   8.265  64.198  1.00  0.00    -0.397 OA 
HETATM   15  C   UNL     1      -8.348  10.324  65.337  1.00  0.00    -0.164 C  
HETATM   16  C   UNL     1     -10.357   9.451  66.462  1.00  0.00    -0.268 C  
HETATM   17  H   UNL     1      -8.191   8.481  63.464  1.00  0.00     0.000 HD 
HETATM   18  C   UNL     1      -9.833  10.603  65.566  1.00  0.00    -0.258 C  
BRANCH  16  19
HETATM   19  C   UNL     1     -10.903   9.942  67.782  1.00  0.00    -0.321 C  
HETATM   20  C   UNL     1     -11.398  11.172  68.008  1.00  0.00    -0.380 C  
BRANCH  20  21
HETATM   21  C   UNL     1     -11.881  11.699  69.332  1.00  0.00    -0.342 C  
HETATM   22  O   UNL     1     -11.089  11.172  70.390  1.00  0.00    -0.458 OA 
HETATM   23  H   UNL     1     -11.394  11.505  71.226  1.00  0.00     0.000 HD 
BRANCH  21  24
HETATM   24  C   UNL     1     -11.810  13.229  69.392  1.00  0.00    -0.386 C  
BRANCH  24  25
HETATM   25  C   UNL     1     -10.580  13.851  68.720  1.00  0.00    -0.258 C  
BRANCH  25  26
HETATM   26  C   UNL     1     -10.942  14.796  67.576  1.00  0.00    -0.304 C  
BRANCH  26  27
HETATM   27  C   UNL     1     -10.151  14.473  66.309  1.00  0.00    -0.308 C  
HETATM   28  C   UNL     1     -11.066  13.939  65.220  1.00  0.00    -0.318 C  
ENDBRANCH  26  27
ENDBRANCH  25  26
ENDBRANCH  24  25
ENDBRANCH  21  24
ENDBRANCH  20  21
ENDBRANCH  16  19
ENDBRANCH   9  10
ENDBRANCH   2   9
TORSDOF 11
ENDMDL
MODEL      158
REMARK 921   NORMALIZED FREE ENERGY PREDICTED BY IDOCK:   -4.04 KCAL/MOL
REMARK 922        TOTAL FREE ENERGY PREDICTED BY IDOCK:   -9.04 KCAL/MOL
REMARK 923 INTER-LIGAND FREE ENERGY PREDICTED BY IDOCK:   -7.89 KCAL/MOL
REMARK 924 INTRA-LIGAND FREE ENERGY PREDICTED BY IDOCK:   -1.14 KCAL/MOL
REMARK 927      BINDING AFFINITY PREDICTED BY RF-SCORE:    0.00 PKD
ROOT
HETATM    1  C   UNL     1     -10.463  16.026  66.863  1.00  0.00    -0.306 C  
HETATM    2  C   UNL     1     -11.112  14.944  67.317  1.00  0.00    -0.336 C  
ENDROOT
BRANCH   1   3
HETATM    3  C   UNL     1     -10.621  17.437  67.358  1.00  0.00    -0.308 C  
BRANCH   3   4
HETATM    4  C   UNL     1      -9.733  18.411  66.582  1.00  0.00    -0.342 C  
BRANCH   4   5
HETATM    5  C   UNL     1      -9.063  19.437  67.497  1.00  0.00    -0.363 C  
HETATM    6  O   UNL     1      -7.141  19.852  68.833  1.00  0.00    -0.330 OA 
HETATM    7  C   UNL     1      -7.743  18.941  68.033  1.00  0.00    -0.271 C  
HETATM    8  O   UNL     1      -7.241  17.855  67.785  1.00  0.00    -0.202 OA 
ENDBRANCH   4   5
ENDBRANCH   3   4
ENDBRANCH   1   3
BRANCH   2   9
HETATM    9  C   UNL     1     -12.180  14.923  68.377  1.00  0.00    -0.053 C  
BRANCH   9  10
HETATM   10  C   UNL     1     -11.734  14.458  69.773  1.00  0.00    -0.361 C  
HETATM   11  H   UNL     1     -14.376  12.401  71.752  1.00  0.00     0.000 HD 
HETATM   12  C   UNL     1     -12.177  15.451  70.861  1.00  0.00    -0.373 C  
HETATM   13  O   UNL     1     -14.028  13.252  71.991  1.00  0.00    -0.406 OA 
HETATM   14  O   UNL     1     -13.542  15.832  70.700  1.00  0.00    -0.774 OA 
HETATM   15  C   UNL     1     -12.056  14.646  72.145  1.00  0.00    -0.319 C  
HETATM   16  C   UNL     1     -12.335  13.105  70.244  1.00  0.00    -0.319 C  
HETATM   17  H   UNL     1     -13.815  16.445  71.372  1.00  0.00     0.000 HD 
HETATM   18  C   UNL     1     -12.616  13.278  71.759  1.00  0.00    -0.092 C  
BRANCH  16  19
HETATM   19  C   UNL     1     -11.454  11.914  69.947  1.00  0.00    -0.264 C  
HETATM   20  C   UNL     1     -11.570  10.702  70.519  1.00  0.00    -0.444 C  
BRANCH  20  21
HETATM   21  C   UNL     1     -10.660   9.527  70.287  1.00  0.00    -0.266 C  
HETATM   22  O   UNL     1      -9.391   9.760  70.888  1.00  0.00    -0.310 OA 
HETATM   23  H   UNL     1      -8.816   9.018  70.742  1.00  0.00     0.000 HD 
BRANCH  21  24
HETATM   24  C   UNL     1     -11.241   8.235  70.873  1.00  0.00    -0.292 C  
BRANCH  24  25
HETATM   25  C   UNL     1     -11.655   8.318  72.346  1.00  0.00    -0.464 C  
BRANCH  25  26
HETATM   26  C   UNL     1     -10.888   7.341  73.236  1.00  0.00    -0.404 C  
BRANCH  26  27
HETATM   27  C   UNL     1      -9.760   6.651  72.471  1.00  0.00    -0.166 C  
HETATM   28  C   UNL     1      -8.450   6.746  73.234  1.00  0.00    -0.131 C  
ENDBRANCH  26  27
ENDBRANCH  25  26
ENDBRANCH  24  25
ENDBRANCH  21  24
ENDBRANCH  20  21
ENDBRANCH  16  19
ENDBRANCH   9  10
ENDBRANCH   2   9
TORSDOF 11
ENDMDL
MODEL      159
REMARK 921   NORMALIZED FREE ENERGY PREDICTED BY IDOCK:   -4.03 KCAL/MOL
REMARK 922        TOTAL FREE ENERGY PREDICTED BY IDOCK:   -9.01 KCAL/MOL
REMARK 923 INTER-LIGAND FREE ENERGY PREDICTED BY IDOCK:   -7.31 KCAL/MOL
REMARK 924 INTRA-LIGAND FREE ENERGY PREDICTED BY IDOCK:   -1.71 KCAL/MOL
REMARK 927      BINDING AFFINITY PREDICTED BY RF-SCORE:    0.00 PKD
ROOT
HETATM    1  C   UNL     1     -10.965  11.233  66.920  1.00  0.00    -0.348 C  
HETATM    2  C   UNL     1     -10.279  10.106  67.161  1.00  0.00    -0.278 C  
ENDROOT
BRANCH   1   3
HETATM    3  C   UNL     1     -11.465  12.213  67.945  1.00  0.00    -0.392 C  
BRANCH   3   4
HETATM    4  C   UNL     1     -11.291  13.659  67.477  1.00  0.00    -0.335 C  
BRANCH   4   5
HETATM    5  C   UNL     1     -10.677  14.546  68.559  1.00  0.00    -0.253 C  
HETATM    6  O   UNL     1      -8.688  15.663  69.228  1.00  0.00    -0.240 OA 
HETATM    7  C   UNL     1      -9.230  14.866  68.277  1.00  0.00    -0.187 C  
HETATM    8  O   UNL     1      -8.596  14.478  67.308  1.00  0.00    -0.190 OA 
ENDBRANCH   4   5
ENDBRANCH   3   4
ENDBRANCH   1   3
BRANCH   2   9
HETATM    9  C   UNL     1      -9.919   9.553  68.514  1.00  0.00    -0.184 C  
BRANCH   9  10
HETATM   10  C   UNL     1     -10.628   8.250  68.919  1.00  0.00    -0.160 C  
HETATM   11  H   UNL     1      -9.087   6.414  71.981  1.00  0.00     0.000 HD 
HETATM   12  C   UNL     1      -9.963   7.026  68.269  1.00  0.00    -0.153 C  
HETATM   13  O   UNL     1      -9.129   6.088  71.090  1.00  0.00    -0.145 OA 
HETATM   14  O   UNL     1      -8.543   7.069  68.398  1.00  0.00    -0.126 OA 
HETATM   15  C   UNL     1     -10.480   5.861  69.095  1.00  0.00    -0.338 C  
HETATM   16  C   UNL     1     -10.595   7.922  70.437  1.00  0.00    -0.228 C  
HETATM   17  H   UNL     1      -8.132   6.313  67.995  1.00  0.00     0.000 HD 
HETATM   18  C   UNL     1     -10.411   6.385  70.529  1.00  0.00    -0.202 C  
BRANCH  16  19
HETATM   19  C   UNL     1     -11.811   8.410  71.190  1.00  0.00    -0.314 C  
HETATM   20  C   UNL     1     -12.438   9.580  70.975  1.00  0.00    -0.347 C  
BRANCH  20  21
HETATM   21  C   UNL     1     -13.605  10.112  71.761  1.00  0.00    -0.213 C  
HETATM   22  O   UNL     1     -13.842   9.299  72.904  1.00  0.00    -0.824 OA 
HETATM   23  H   UNL     1     -14.579   9.634  73.400  1.00  0.00     0.000 HD 
BRANCH  21  24
HETATM   24  C   UNL     1     -13.363  11.550  72.233  1.00  0.00    -0.097 C  
BRANCH  24  25
HETATM   25  C   UNL     1     -12.719  12.476  71.195  1.00  0.00    -0.340 C  
BRANCH  25  26
HETATM   26  C   UNL     1     -13.281  13.896  71.233  1.00  0.00    -0.352 C  
BRANCH  26  27
HETATM   27  C   UNL     1     -12.363  14.844  72.003  1.00  0.00    -0.419 C  
HETATM   28  C   UNL     1     -13.075  15.422  73.215  1.00  0.00    -0.642 C  
ENDBRANCH  26  27
ENDBRANCH  25  26
ENDBRANCH  24  25
ENDBRANCH  21  24
ENDBRANCH  20  21
ENDBRANCH  16  19
ENDBRANCH   9  10
ENDBRANCH   2   9
TORSDOF 11
ENDMDL
MODEL      160
REMARK 921   NORMALIZED FREE ENERGY PREDICTED BY IDOCK:   -4.03 KCAL/MOL
REMARK 922        TOTAL FREE ENERGY PREDICTED BY IDOCK:   -9.01 KCAL/MOL
REMARK 923 INTER-LIGAND FREE ENERGY PREDICTED BY IDOCK:   -7.45 KCAL/MOL
REMARK 924 INTRA-LIGAND FREE ENERGY PREDICTED BY IDOCK:   -1.56 KCAL/MOL
REMARK 927      BINDING AFFINITY PREDICTED BY RF-SCORE:    0.00 PKD
ROOT
HETATM    1  C   UNL     1      -7.299  13.851  67.930  1.00  0.00    -0.157 C  
HETATM    2  C   UNL     1      -7.606  12.558  67.748  1.00  0.00    -0.138 C  
ENDROOT
BRANCH   1   3
HETATM    3  C   UNL     1      -7.762  15.008  67.088  1.00  0.00    -0.202 C  
BRANCH   3   4
HETATM    4  C   UNL     1      -9.166  14.772  66.528  1.00  0.00    -0.304 C  
BRANCH   4   5
HETATM    5  C   UNL     1      -9.610  15.896  65.590  1.00  0.00    -0.266 C  
HETATM    6  O   UNL     1     -11.366  16.627  64.166  1.00  0.00    -1.141 OA 
HETATM    7  C   UNL     1     -10.965  15.628  64.986  1.00  0.00    -0.431 C  
HETATM    8  O   UNL     1     -11.653  14.642  65.200  1.00  0.00    -0.352 OA 
ENDBRANCH   4   5
ENDBRANCH   3   4
ENDBRANCH   1   3
BRANCH   2   9
HETATM    9  C   UNL     1      -8.428  11.986  66.625  1.00  0.00    -0.117 C  
BRANCH   9  10
HETATM   10  C   UNL     1      -9.784  11.382  67.024  1.00  0.00    -0.210 C  
HETATM   11  H   UNL     1     -10.162  10.517  70.797  1.00  0.00     0.000 HD 
HETATM   12  C   UNL     1      -9.736   9.845  67.016  1.00  0.00    -0.182 C  
HETATM   13  O   UNL     1     -10.171   9.901  70.073  1.00  0.00    -0.244 OA 
HETATM   14  O   UNL     1      -8.576   9.352  67.684  1.00  0.00    -0.116 OA 
HETATM   15  C   UNL     1     -10.957   9.448  67.830  1.00  0.00    -0.122 C  
HETATM   16  C   UNL     1     -10.267  11.726  68.460  1.00  0.00    -0.215 C  
HETATM   17  H   UNL     1      -8.546   8.403  67.678  1.00  0.00     0.000 HD 
HETATM   18  C   UNL     1     -10.943  10.437  68.995  1.00  0.00    -0.238 C  
BRANCH  16  19
HETATM   19  C   UNL     1     -11.177  12.930  68.522  1.00  0.00    -0.310 C  
HETATM   20  C   UNL     1     -11.216  13.822  69.528  1.00  0.00    -0.221 C  
BRANCH  20  21
HETATM   21  C   UNL     1     -12.163  14.986  69.639  1.00  0.00    -0.258 C  
HETATM   22  O   UNL     1     -13.278  14.638  70.453  1.00  0.00    -0.560 OA 
HETATM   23  H   UNL     1     -13.876  15.373  70.523  1.00  0.00     0.000 HD 
BRANCH  21  24
HETATM   24  C   UNL     1     -11.482  16.215  70.253  1.00  0.00    -0.319 C  
BRANCH  24  25
HETATM   25  C   UNL     1     -10.382  16.846  69.392  1.00  0.00    -0.250 C  
BRANCH  25  26
HETATM   26  C   UNL     1     -10.933  17.656  68.220  1.00  0.00    -0.053 C  
BRANCH  26  27
HETATM   27  C   UNL     1     -10.136  18.940  67.999  1.00  0.00    -0.437 C  
HETATM   28  C   UNL     1     -10.525  19.601  66.688  1.00  0.00    -0.610 C  
ENDBRANCH  26  27
ENDBRANCH  25  26
ENDBRANCH  24  25
ENDBRANCH  21  24
ENDBRANCH  20  21
ENDBRANCH  16  19
ENDBRANCH   9  10
ENDBRANCH   2   9
TORSDOF 11
ENDMDL
MODEL      161
REMARK 921   NORMALIZED FREE ENERGY PREDICTED BY IDOCK:   -4.00 KCAL/MOL
REMARK 922        TOTAL FREE ENERGY PREDICTED BY IDOCK:   -8.96 KCAL/MOL
REMARK 923 INTER-LIGAND FREE ENERGY PREDICTED BY IDOCK:   -7.62 KCAL/MOL
REMARK 924 INTRA-LIGAND FREE ENERGY PREDICTED BY IDOCK:   -1.34 KCAL/MOL
REMARK 927      BINDING AFFINITY PREDICTED BY RF-SCORE:    0.00 PKD
ROOT
HETATM    1  C   UNL     1      -9.434  11.734  67.877  1.00  0.00    -0.191 C  
HETATM    2  C   UNL     1      -9.314  10.799  68.831  1.00  0.00    -0.183 C  
ENDROOT
BRANCH   1   3
HETATM    3  C   UNL     1     -10.686  12.088  67.123  1.00  0.00    -0.277 C  
BRANCH   3   4
HETATM    4  C   UNL     1     -10.469  13.286  66.198  1.00  0.00    -0.296 C  
BRANCH   4   5
HETATM    5  C   UNL     1      -9.283  14.146  66.636  1.00  0.00    -0.272 C  
HETATM    6  O   UNL     1      -8.281  16.291  66.417  1.00  0.00    -0.285 OA 
HETATM    7  C   UNL     1      -9.323  15.523  66.021  1.00  0.00    -0.344 C  
HETATM    8  O   UNL     1     -10.186  15.934  65.260  1.00  0.00    -0.431 OA 
ENDBRANCH   4   5
ENDBRANCH   3   4
ENDBRANCH   1   3
BRANCH   2   9
HETATM    9  C   UNL     1     -10.395   9.864  69.304  1.00  0.00    -0.235 C  
BRANCH   9  10
HETATM   10  C   UNL     1     -11.023  10.197  70.667  1.00  0.00    -0.357 C  
HETATM   11  H   UNL     1     -13.830   7.769  71.830  1.00  0.00     0.000 HD 
HETATM   12  C   UNL     1     -12.289  11.054  70.505  1.00  0.00    -0.373 C  
HETATM   13  O   UNL     1     -13.930   8.691  71.628  1.00  0.00    -0.393 OA 
HETATM   14  O   UNL     1     -13.150  10.535  69.494  1.00  0.00    -0.545 OA 
HETATM   15  C   UNL     1     -12.989  10.910  71.846  1.00  0.00    -0.502 C  
HETATM   16  C   UNL     1     -11.513   8.972  71.488  1.00  0.00    -0.407 C  
HETATM   17  H   UNL     1     -13.932  11.065  69.394  1.00  0.00     0.000 HD 
HETATM   18  C   UNL     1     -12.829   9.426  72.171  1.00  0.00    -0.401 C  
BRANCH  16  19
HETATM   19  C   UNL     1     -10.492   8.455  72.475  1.00  0.00    -0.372 C  
HETATM   20  C   UNL     1      -9.160   8.476  72.295  1.00  0.00    -0.318 C  
BRANCH  20  21
HETATM   21  C   UNL     1      -8.133   7.904  73.234  1.00  0.00    -0.167 C  
HETATM   22  O   UNL     1      -8.200   8.560  74.495  1.00  0.00    -0.387 OA 
HETATM   23  H   UNL     1      -7.552   8.199  75.088  1.00  0.00     0.000 HD 
BRANCH  21  24
HETATM   24  C   UNL     1      -8.345   6.402  73.459  1.00  0.00    -0.121 C  
BRANCH  24  25
HETATM   25  C   UNL     1      -8.443   5.561  72.181  1.00  0.00    -0.126 C  
BRANCH  25  26
HETATM   26  C   UNL     1      -9.770   4.813  72.061  1.00  0.00    -0.217 C  
BRANCH  26  27
HETATM   27  C   UNL     1     -10.208   4.228  73.402  1.00  0.00    -0.219 C  
HETATM   28  C   UNL     1     -10.212   2.710  73.356  1.00  0.00    -0.203 C  
ENDBRANCH  26  27
ENDBRANCH  25  26
ENDBRANCH  24  25
ENDBRANCH  21  24
ENDBRANCH  20  21
ENDBRANCH  16  19
ENDBRANCH   9  10
ENDBRANCH   2   9
TORSDOF 11
ENDMDL
MODEL      162
REMARK 921   NORMALIZED FREE ENERGY PREDICTED BY IDOCK:   -3.99 KCAL/MOL
REMARK 922        TOTAL FREE ENERGY PREDICTED BY IDOCK:   -8.96 KCAL/MOL
REMARK 923 INTER-LIGAND FREE ENERGY PREDICTED BY IDOCK:   -6.37 KCAL/MOL
REMARK 924 INTRA-LIGAND FREE ENERGY PREDICTED BY IDOCK:   -2.59 KCAL/MOL
REMARK 927      BINDING AFFINITY PREDICTED BY RF-SCORE:    0.00 PKD
ROOT
HETATM    1  C   UNL     1      -9.492   4.913  68.806  1.00  0.00    -0.202 C  
HETATM    2  C   UNL     1     -10.319   5.248  69.807  1.00  0.00    -0.369 C  
ENDROOT
BRANCH   1   3
HETATM    3  C   UNL     1      -9.519   5.456  67.404  1.00  0.00    -0.127 C  
BRANCH   3   4
HETATM    4  C   UNL     1      -8.785   6.794  67.303  1.00  0.00    -0.119 C  
BRANCH   4   5
HETATM    5  C   UNL     1      -9.508   7.782  66.387  1.00  0.00    -0.245 C  
HETATM    6  O   UNL     1      -9.193   9.626  64.919  1.00  0.00    -0.229 OA 
HETATM    7  C   UNL     1      -8.556   8.758  65.741  1.00  0.00    -0.164 C  
HETATM    8  O   UNL     1      -7.347   8.783  65.908  1.00  0.00    -0.083 OA 
ENDBRANCH   4   5
ENDBRANCH   3   4
ENDBRANCH   1   3
BRANCH   2   9
HETATM    9  C   UNL     1     -11.487   6.193  69.722  1.00  0.00    -0.362 C  
BRANCH   9  10
HETATM   10  C   UNL     1     -11.428   7.422  70.645  1.00  0.00    -0.307 C  
HETATM   11  H   UNL     1      -9.539   6.878  74.001  1.00  0.00     0.000 HD 
HETATM   12  C   UNL     1     -12.574   7.407  71.669  1.00  0.00    -0.358 C  
HETATM   13  O   UNL     1     -10.462   7.076  73.898  1.00  0.00    -0.375 OA 
HETATM   14  O   UNL     1     -12.711   6.128  72.286  1.00  0.00    -0.486 OA 
HETATM   15  C   UNL     1     -12.116   8.398  72.727  1.00  0.00    -0.187 C  
HETATM   16  C   UNL     1     -10.151   7.529  71.524  1.00  0.00    -0.201 C  
HETATM   17  H   UNL     1     -13.420   6.119  72.919  1.00  0.00     0.000 HD 
HETATM   18  C   UNL     1     -10.631   8.079  72.892  1.00  0.00    -0.329 C  
BRANCH  16  19
HETATM   19  C   UNL     1      -9.059   8.372  70.908  1.00  0.00    -0.190 C  
HETATM   20  C   UNL     1      -9.253   9.522  70.236  1.00  0.00    -0.303 C  
BRANCH  20  21
HETATM   21  C   UNL     1      -8.186  10.337  69.557  1.00  0.00    -0.155 C  
HETATM   22  O   UNL     1      -7.273   9.483  68.876  1.00  0.00    -0.070 OA 
HETATM   23  H   UNL     1      -6.600   9.998  68.447  1.00  0.00     0.000 HD 
BRANCH  21  24
HETATM   24  C   UNL     1      -8.782  11.316  68.540  1.00  0.00    -0.156 C  
BRANCH  24  25
HETATM   25  C   UNL     1     -10.305  11.476  68.606  1.00  0.00    -0.226 C  
BRANCH  25  26
HETATM   26  C   UNL     1     -10.997  11.142  67.285  1.00  0.00    -0.354 C  
BRANCH  26  27
HETATM   27  C   UNL     1     -11.570  12.391  66.619  1.00  0.00    -0.447 C  
HETATM   28  C   UNL     1     -11.948  12.110  65.174  1.00  0.00    -0.324 C  
ENDBRANCH  26  27
ENDBRANCH  25  26
ENDBRANCH  24  25
ENDBRANCH  21  24
ENDBRANCH  20  21
ENDBRANCH  16  19
ENDBRANCH   9  10
ENDBRANCH   2   9
TORSDOF 11
ENDMDL
MODEL      163
REMARK 921   NORMALIZED FREE ENERGY PREDICTED BY IDOCK:   -3.99 KCAL/MOL
REMARK 922        TOTAL FREE ENERGY PREDICTED BY IDOCK:   -8.95 KCAL/MOL
REMARK 923 INTER-LIGAND FREE ENERGY PREDICTED BY IDOCK:   -7.04 KCAL/MOL
REMARK 924 INTRA-LIGAND FREE ENERGY PREDICTED BY IDOCK:   -1.92 KCAL/MOL
REMARK 927      BINDING AFFINITY PREDICTED BY RF-SCORE:    0.00 PKD
ROOT
HETATM    1  C   UNL     1     -12.451  13.625  69.819  1.00  0.00    -0.193 C  
HETATM    2  C   UNL     1     -11.753  14.765  69.714  1.00  0.00    -0.354 C  
ENDROOT
BRANCH   1   3
HETATM    3  C   UNL     1     -11.970  12.334  70.422  1.00  0.00    -0.349 C  
BRANCH   3   4
HETATM    4  C   UNL     1     -12.400  11.126  69.588  1.00  0.00    -0.287 C  
BRANCH   4   5
HETATM    5  C   UNL     1     -11.204  10.319  69.081  1.00  0.00    -0.268 C  
HETATM    6  O   UNL     1      -9.910   9.809  67.153  1.00  0.00    -0.171 OA 
HETATM    7  C   UNL     1     -10.976  10.512  67.602  1.00  0.00    -0.314 C  
HETATM    8  O   UNL     1     -11.648  11.221  66.869  1.00  0.00    -0.464 OA 
ENDBRANCH   4   5
ENDBRANCH   3   4
ENDBRANCH   1   3
BRANCH   2   9
HETATM    9  C   UNL     1     -10.320  14.975  70.123  1.00  0.00    -0.057 C  
BRANCH   9  10
HETATM   10  C   UNL     1      -9.340  15.320  68.989  1.00  0.00    -0.231 C  
HETATM   11  H   UNL     1     -10.471  14.222  65.434  1.00  0.00     0.000 HD 
HETATM   12  C   UNL     1      -8.394  14.146  68.691  1.00  0.00    -0.123 C  
HETATM   13  O   UNL     1      -9.713  13.902  65.909  1.00  0.00    -0.280 OA 
HETATM   14  O   UNL     1      -9.102  12.912  68.593  1.00  0.00    -0.376 OA 
HETATM   15  C   UNL     1      -7.834  14.482  67.319  1.00  0.00    -0.199 C  
HETATM   16  C   UNL     1      -9.997  15.621  67.614  1.00  0.00    -0.237 C  
HETATM   17  H   UNL     1      -8.517  12.186  68.409  1.00  0.00     0.000 HD 
HETATM   18  C   UNL     1      -9.053  14.995  66.554  1.00  0.00    -0.286 C  
BRANCH  16  19
HETATM   19  C   UNL     1     -10.253  17.090  67.372  1.00  0.00    -0.314 C  
HETATM   20  C   UNL     1      -9.448  17.913  66.676  1.00  0.00    -0.303 C  
BRANCH  20  21
HETATM   21  C   UNL     1      -9.651  19.391  66.484  1.00  0.00    -0.370 C  
HETATM   22  O   UNL     1     -10.853  19.810  67.121  1.00  0.00    -0.452 OA 
HETATM   23  H   UNL     1     -10.981  20.743  67.000  1.00  0.00     0.000 HD 
BRANCH  21  24
HETATM   24  C   UNL     1      -8.488  20.204  67.064  1.00  0.00    -0.397 C  
BRANCH  24  25
HETATM   25  C   UNL     1      -7.807  19.581  68.289  1.00  0.00    -0.362 C  
BRANCH  25  26
HETATM   26  C   UNL     1      -6.308  19.365  68.090  1.00  0.00    -0.253 C  
BRANCH  26  27
HETATM   27  C   UNL     1      -5.955  17.879  68.051  1.00  0.00    -0.165 C  
HETATM   28  C   UNL     1      -5.735  17.411  66.622  1.00  0.00    -0.232 C  
ENDBRANCH  26  27
ENDBRANCH  25  26
ENDBRANCH  24  25
ENDBRANCH  21  24
ENDBRANCH  20  21
ENDBRANCH  16  19
ENDBRANCH   9  10
ENDBRANCH   2   9
TORSDOF 11
ENDMDL
MODEL      164
REMARK 921   NORMALIZED FREE ENERGY PREDICTED BY IDOCK:   -3.98 KCAL/MOL
REMARK 922        TOTAL FREE ENERGY PREDICTED BY IDOCK:   -8.93 KCAL/MOL
REMARK 923 INTER-LIGAND FREE ENERGY PREDICTED BY IDOCK:   -7.09 KCAL/MOL
REMARK 924 INTRA-LIGAND FREE ENERGY PREDICTED BY IDOCK:   -1.84 KCAL/MOL
REMARK 927      BINDING AFFINITY PREDICTED BY RF-SCORE:    0.00 PKD
ROOT
HETATM    1  C   UNL     1     -10.878  11.535  67.450  1.00  0.00    -0.294 C  
HETATM    2  C   UNL     1     -11.608  10.856  68.347  1.00  0.00    -0.346 C  
ENDROOT
BRANCH   1   3
HETATM    3  C   UNL     1     -10.319  12.921  67.616  1.00  0.00    -0.218 C  
BRANCH   3   4
HETATM    4  C   UNL     1     -11.294  13.987  67.115  1.00  0.00    -0.348 C  
BRANCH   4   5
HETATM    5  C   UNL     1     -10.573  15.233  66.599  1.00  0.00    -0.304 C  
HETATM    6  O   UNL     1     -10.051  17.497  67.101  1.00  0.00    -0.299 OA 
HETATM    7  C   UNL     1     -10.699  16.396  67.550  1.00  0.00    -0.298 C  
HETATM    8  O   UNL     1     -11.299  16.379  68.614  1.00  0.00    -0.355 OA 
ENDBRANCH   4   5
ENDBRANCH   3   4
ENDBRANCH   1   3
BRANCH   2   9
HETATM    9  C   UNL     1     -12.073  11.363  69.686  1.00  0.00    -0.373 C  
BRANCH   9  10
HETATM   10  C   UNL     1     -11.800  10.442  70.887  1.00  0.00    -0.475 C  
HETATM   11  H   UNL     1     -11.588   6.650  70.047  1.00  0.00     0.000 HD 
HETATM   12  C   UNL     1     -13.108   9.899  71.484  1.00  0.00    -0.418 C  
HETATM   13  O   UNL     1     -12.239   7.071  70.597  1.00  0.00    -0.330 OA 
HETATM   14  O   UNL     1     -13.987   9.414  70.471  1.00  0.00    -0.383 OA 
HETATM   15  C   UNL     1     -12.651   8.717  72.323  1.00  0.00    -0.457 C  
HETATM   16  C   UNL     1     -10.983   9.160  70.566  1.00  0.00    -0.307 C  
HETATM   17  H   UNL     1     -14.795   9.078  70.840  1.00  0.00     0.000 HD 
HETATM   18  C   UNL     1     -11.605   8.039  71.439  1.00  0.00    -0.267 C  
BRANCH  16  19
HETATM   19  C   UNL     1      -9.497   9.315  70.790  1.00  0.00    -0.336 C  
HETATM   20  C   UNL     1      -8.640   9.901  69.934  1.00  0.00    -0.216 C  
BRANCH  20  21
HETATM   21  C   UNL     1      -7.150  10.003  70.109  1.00  0.00    -0.154 C  
HETATM   22  O   UNL     1      -6.786   9.671  71.444  1.00  0.00    -0.320 OA 
HETATM   23  H   UNL     1      -5.845   9.735  71.555  1.00  0.00     0.000 HD 
BRANCH  21  24
HETATM   24  C   UNL     1      -6.402   9.062  69.157  1.00  0.00    -0.043 C  
BRANCH  24  25
HETATM   25  C   UNL     1      -7.180   8.655  67.901  1.00  0.00    -0.088 C  
BRANCH  25  26
HETATM   26  C   UNL     1      -7.134   9.716  66.802  1.00  0.00    -0.086 C  
BRANCH  26  27
HETATM   27  C   UNL     1      -7.962   9.303  65.587  1.00  0.00    -0.103 C  
HETATM   28  C   UNL     1      -9.269   8.656  66.015  1.00  0.00    -0.276 C  
ENDBRANCH  26  27
ENDBRANCH  25  26
ENDBRANCH  24  25
ENDBRANCH  21  24
ENDBRANCH  20  21
ENDBRANCH  16  19
ENDBRANCH   9  10
ENDBRANCH   2   9
TORSDOF 11
ENDMDL
MODEL      165
REMARK 921   NORMALIZED FREE ENERGY PREDICTED BY IDOCK:   -3.97 KCAL/MOL
REMARK 922        TOTAL FREE ENERGY PREDICTED BY IDOCK:   -8.91 KCAL/MOL
REMARK 923 INTER-LIGAND FREE ENERGY PREDICTED BY IDOCK:   -7.79 KCAL/MOL
REMARK 924 INTRA-LIGAND FREE ENERGY PREDICTED BY IDOCK:   -1.13 KCAL/MOL
REMARK 927      BINDING AFFINITY PREDICTED BY RF-SCORE:    0.00 PKD
ROOT
HETATM    1  C   UNL     1      -9.780  14.090  66.081  1.00  0.00    -0.300 C  
HETATM    2  C   UNL     1     -10.022  14.414  67.361  1.00  0.00    -0.242 C  
ENDROOT
BRANCH   1   3
HETATM    3  C   UNL     1     -10.782  13.577  65.084  1.00  0.00    -0.349 C  
BRANCH   3   4
HETATM    4  C   UNL     1     -10.897  12.052  65.133  1.00  0.00    -0.347 C  
BRANCH   4   5
HETATM    5  C   UNL     1     -10.475  11.399  63.816  1.00  0.00    -0.456 C  
HETATM    6  O   UNL     1      -8.957   9.853  62.838  1.00  0.00    -0.222 OA 
HETATM    7  C   UNL     1      -9.323  10.443  64.000  1.00  0.00    -0.277 C  
HETATM    8  O   UNL     1      -8.770  10.197  65.061  1.00  0.00    -0.153 OA 
ENDBRANCH   4   5
ENDBRANCH   3   4
ENDBRANCH   1   3
BRANCH   2   9
HETATM    9  C   UNL     1     -11.334  14.273  68.083  1.00  0.00    -0.313 C  
BRANCH   9  10
HETATM   10  C   UNL     1     -11.254  14.207  69.617  1.00  0.00    -0.241 C  
HETATM   11  H   UNL     1     -14.640  14.684  71.471  1.00  0.00     0.000 HD 
HETATM   12  C   UNL     1     -11.100  15.608  70.231  1.00  0.00    -0.347 C  
HETATM   13  O   UNL     1     -13.885  15.258  71.518  1.00  0.00    -0.460 OA 
HETATM   14  O   UNL     1     -12.021  16.536  69.660  1.00  0.00    -0.137 OA 
HETATM   15  C   UNL     1     -11.475  15.401  71.689  1.00  0.00    -0.492 C  
HETATM   16  C   UNL     1     -12.515  13.635  70.323  1.00  0.00    -0.335 C  
HETATM   17  H   UNL     1     -11.925  17.402  70.039  1.00  0.00     0.000 HD 
HETATM   18  C   UNL     1     -12.690  14.477  71.613  1.00  0.00    -0.342 C  
BRANCH  16  19
HETATM   19  C   UNL     1     -12.434  12.152  70.601  1.00  0.00    -0.330 C  
HETATM   20  C   UNL     1     -11.678  11.275  69.917  1.00  0.00    -0.430 C  
BRANCH  20  21
HETATM   21  C   UNL     1     -11.639   9.787  70.135  1.00  0.00    -0.182 C  
HETATM   22  O   UNL     1     -10.396   9.256  69.690  1.00  0.00    -0.199 OA 
HETATM   23  H   UNL     1     -10.371   8.317  69.827  1.00  0.00     0.000 HD 
BRANCH  21  24
HETATM   24  C   UNL     1     -11.816   9.425  71.614  1.00  0.00    -0.464 C  
BRANCH  24  25
HETATM   25  C   UNL     1     -10.770   8.456  72.176  1.00  0.00    -0.407 C  
BRANCH  25  26
HETATM   26  C   UNL     1     -11.361   7.101  72.562  1.00  0.00    -0.318 C  
BRANCH  26  27
HETATM   27  C   UNL     1     -10.683   5.957  71.810  1.00  0.00    -0.299 C  
HETATM   28  C   UNL     1      -9.173   6.130  71.806  1.00  0.00    -0.149 C  
ENDBRANCH  26  27
ENDBRANCH  25  26
ENDBRANCH  24  25
ENDBRANCH  21  24
ENDBRANCH  20  21
ENDBRANCH  16  19
ENDBRANCH   9  10
ENDBRANCH   2   9
TORSDOF 11
ENDMDL
MODEL      166
REMARK 921   NORMALIZED FREE ENERGY PREDICTED BY IDOCK:   -3.97 KCAL/MOL
REMARK 922        TOTAL FREE ENERGY PREDICTED BY IDOCK:   -8.91 KCAL/MOL
REMARK 923 INTER-LIGAND FREE ENERGY PREDICTED BY IDOCK:   -6.81 KCAL/MOL
REMARK 924 INTRA-LIGAND FREE ENERGY PREDICTED BY IDOCK:   -2.10 KCAL/MOL
REMARK 927      BINDING AFFINITY PREDICTED BY RF-SCORE:    0.00 PKD
ROOT
HETATM    1  C   UNL     1     -12.838  13.327  71.268  1.00  0.00    -0.398 C  
HETATM    2  C   UNL     1     -13.031  12.181  71.939  1.00  0.00    -0.419 C  
ENDROOT
BRANCH   1   3
HETATM    3  C   UNL     1     -12.759  13.487  69.775  1.00  0.00     0.171 C  
BRANCH   3   4
HETATM    4  C   UNL     1     -11.404  13.035  69.229  1.00  0.00    -0.310 C  
BRANCH   4   5
HETATM    5  C   UNL     1     -11.547  12.118  68.014  1.00  0.00    -0.411 C  
HETATM    6  O   UNL     1     -11.482  12.052  65.639  1.00  0.00    -0.344 OA 
HETATM    7  C   UNL     1     -11.369  12.864  66.716  1.00  0.00    -0.322 C  
HETATM    8  O   UNL     1     -11.137  14.059  66.612  1.00  0.00    -0.300 OA 
ENDBRANCH   4   5
ENDBRANCH   3   4
ENDBRANCH   1   3
BRANCH   2   9
HETATM    9  C   UNL     1     -13.149  10.806  71.340  1.00  0.00    -0.469 C  
BRANCH   9  10
HETATM   10  C   UNL     1     -12.049   9.805  71.728  1.00  0.00    -0.425 C  
HETATM   11  H   UNL     1     -11.488   6.902  69.202  1.00  0.00     0.000 HD 
HETATM   12  C   UNL     1     -12.631   8.597  72.480  1.00  0.00    -0.301 C  
HETATM   13  O   UNL     1     -11.793   6.819  70.098  1.00  0.00    -0.349 OA 
HETATM   14  O   UNL     1     -13.788   8.080  71.827  1.00  0.00    -0.365 OA 
HETATM   15  C   UNL     1     -11.527   7.556  72.387  1.00  0.00    -0.362 C  
HETATM   16  C   UNL     1     -11.286   9.163  70.536  1.00  0.00    -0.300 C  
HETATM   17  H   UNL     1     -14.148   7.333  72.292  1.00  0.00     0.000 HD 
HETATM   18  C   UNL     1     -11.037   7.688  70.946  1.00  0.00    -0.263 C  
BRANCH  16  19
HETATM   19  C   UNL     1     -10.014   9.889  70.168  1.00  0.00    -0.291 C  
HETATM   20  C   UNL     1      -8.769   9.404  70.330  1.00  0.00    -0.261 C  
BRANCH  20  21
HETATM   21  C   UNL     1      -7.491  10.139  70.034  1.00  0.00    -0.162 C  
HETATM   22  O   UNL     1      -6.606  10.056  71.146  1.00  0.00    -0.325 OA 
HETATM   23  H   UNL     1      -5.799  10.520  70.959  1.00  0.00     0.000 HD 
BRANCH  21  24
HETATM   24  C   UNL     1      -6.777   9.564  68.805  1.00  0.00    -0.052 C  
BRANCH  24  25
HETATM   25  C   UNL     1      -7.525   9.738  67.479  1.00  0.00    -0.091 C  
BRANCH  25  26
HETATM   26  C   UNL     1      -8.097  11.143  67.297  1.00  0.00    -0.137 C  
BRANCH  26  27
HETATM   27  C   UNL     1      -6.996  12.202  67.291  1.00  0.00    -0.148 C  
HETATM   28  C   UNL     1      -7.577  13.590  67.504  1.00  0.00    -0.176 C  
ENDBRANCH  26  27
ENDBRANCH  25  26
ENDBRANCH  24  25
ENDBRANCH  21  24
ENDBRANCH  20  21
ENDBRANCH  16  19
ENDBRANCH   9  10
ENDBRANCH   2   9
TORSDOF 11
ENDMDL
MODEL      167
REMARK 921   NORMALIZED FREE ENERGY PREDICTED BY IDOCK:   -3.97 KCAL/MOL
REMARK 922        TOTAL FREE ENERGY PREDICTED BY IDOCK:   -8.91 KCAL/MOL
REMARK 923 INTER-LIGAND FREE ENERGY PREDICTED BY IDOCK:   -7.11 KCAL/MOL
REMARK 924 INTRA-LIGAND FREE ENERGY PREDICTED BY IDOCK:   -1.81 KCAL/MOL
REMARK 927      BINDING AFFINITY PREDICTED BY RF-SCORE:    0.00 PKD
ROOT
HETATM    1  C   UNL     1     -10.945  10.709  69.618  1.00  0.00    -0.331 C  
HETATM    2  C   UNL     1     -10.816  10.554  68.291  1.00  0.00    -0.293 C  
ENDROOT
BRANCH   1   3
HETATM    3  C   UNL     1     -10.352   9.829  70.683  1.00  0.00    -0.330 C  
BRANCH   3   4
HETATM    4  C   UNL     1     -11.338   8.753  71.140  1.00  0.00    -0.345 C  
BRANCH   4   5
HETATM    5  C   UNL     1     -11.002   8.215  72.531  1.00  0.00    -0.439 C  
HETATM    6  O   UNL     1     -10.115   6.349  73.707  1.00  0.00    -0.210 OA 
HETATM    7  C   UNL     1     -10.425   6.823  72.477  1.00  0.00    -0.209 C  
HETATM    8  O   UNL     1     -10.236   6.174  71.460  1.00  0.00    -0.196 OA 
ENDBRANCH   4   5
ENDBRANCH   3   4
ENDBRANCH   1   3
BRANCH   2   9
HETATM    9  C   UNL     1     -10.101   9.431  67.590  1.00  0.00    -0.262 C  
BRANCH   9  10
HETATM   10  C   UNL     1      -8.924   9.841  66.690  1.00  0.00    -0.161 C  
HETATM   11  H   UNL     1      -8.799   8.074  63.227  1.00  0.00     0.000 HD 
HETATM   12  C   UNL     1      -7.735   8.880  66.853  1.00  0.00    -0.098 C  
HETATM   13  O   UNL     1      -8.158   7.996  63.924  1.00  0.00    -0.149 OA 
HETATM   14  O   UNL     1      -8.151   7.517  66.810  1.00  0.00    -0.117 OA 
HETATM   15  C   UNL     1      -6.885   9.156  65.624  1.00  0.00    -0.077 C  
HETATM   16  C   UNL     1      -9.214   9.809  65.164  1.00  0.00    -0.297 C  
HETATM   17  H   UNL     1      -7.416   6.923  66.911  1.00  0.00     0.000 HD 
HETATM   18  C   UNL     1      -7.915   9.282  64.502  1.00  0.00    -0.128 C  
BRANCH  16  19
HETATM   19  C   UNL     1      -9.655  11.141  64.602  1.00  0.00    -0.289 C  
HETATM   20  C   UNL     1     -10.929  11.494  64.354  1.00  0.00    -0.390 C  
BRANCH  20  21
HETATM   21  C   UNL     1     -11.380  12.787  63.731  1.00  0.00    -0.461 C  
HETATM   22  O   UNL     1     -12.505  12.562  62.889  1.00  0.00    -0.574 OA 
HETATM   23  H   UNL     1     -12.790  13.378  62.496  1.00  0.00     0.000 HD 
BRANCH  21  24
HETATM   24  C   UNL     1     -11.770  13.822  64.792  1.00  0.00    -0.399 C  
BRANCH  24  25
HETATM   25  C   UNL     1     -12.208  13.238  66.140  1.00  0.00    -0.466 C  
BRANCH  25  26
HETATM   26  C   UNL     1     -11.488  13.877  67.327  1.00  0.00    -0.369 C  
BRANCH  26  27
HETATM   27  C   UNL     1     -10.144  14.473  66.915  1.00  0.00    -0.257 C  
HETATM   28  C   UNL     1     -10.065  15.944  67.289  1.00  0.00    -0.260 C  
ENDBRANCH  26  27
ENDBRANCH  25  26
ENDBRANCH  24  25
ENDBRANCH  21  24
ENDBRANCH  20  21
ENDBRANCH  16  19
ENDBRANCH   9  10
ENDBRANCH   2   9
TORSDOF 11
ENDMDL
MODEL      168
REMARK 921   NORMALIZED FREE ENERGY PREDICTED BY IDOCK:   -3.94 KCAL/MOL
REMARK 922        TOTAL FREE ENERGY PREDICTED BY IDOCK:   -8.87 KCAL/MOL
REMARK 923 INTER-LIGAND FREE ENERGY PREDICTED BY IDOCK:   -7.18 KCAL/MOL
REMARK 924 INTRA-LIGAND FREE ENERGY PREDICTED BY IDOCK:   -1.69 KCAL/MOL
REMARK 927      BINDING AFFINITY PREDICTED BY RF-SCORE:    0.00 PKD
ROOT
HETATM    1  C   UNL     1      -9.553  16.038  67.810  1.00  0.00    -0.219 C  
HETATM    2  C   UNL     1      -8.529  15.175  67.723  1.00  0.00    -0.156 C  
ENDROOT
BRANCH   1   3
HETATM    3  C   UNL     1     -10.310  16.405  69.056  1.00  0.00    -0.278 C  
BRANCH   3   4
HETATM    4  C   UNL     1     -11.756  15.910  69.004  1.00  0.00    -0.377 C  
BRANCH   4   5
HETATM    5  C   UNL     1     -11.927  14.551  69.683  1.00  0.00    -0.375 C  
HETATM    6  O   UNL     1     -13.080  13.400  71.414  1.00  0.00    -0.340 OA 
HETATM    7  C   UNL     1     -12.918  14.605  70.819  1.00  0.00    -0.347 C  
HETATM    8  O   UNL     1     -13.528  15.600  71.180  1.00  0.00    -0.552 OA 
ENDBRANCH   4   5
ENDBRANCH   3   4
ENDBRANCH   1   3
BRANCH   2   9
HETATM    9  C   UNL     1      -7.963  14.346  68.844  1.00  0.00    -0.109 C  
BRANCH   9  10
HETATM   10  C   UNL     1      -7.313  13.014  68.436  1.00  0.00    -0.116 C  
HETATM   11  H   UNL     1      -8.500   9.908  70.454  1.00  0.00     0.000 HD 
HETATM   12  C   UNL     1      -6.087  12.699  69.308  1.00  0.00    -0.100 C  
HETATM   13  O   UNL     1      -7.622  10.270  70.439  1.00  0.00    -0.228 OA 
HETATM   14  O   UNL     1      -6.362  12.898  70.693  1.00  0.00    -0.483 OA 
HETATM   15  C   UNL     1      -5.859  11.215  69.077  1.00  0.00    -0.040 C  
HETATM   16  C   UNL     1      -8.213  11.759  68.602  1.00  0.00    -0.091 C  
HETATM   17  H   UNL     1      -5.604  12.704  71.232  1.00  0.00     0.000 HD 
HETATM   18  C   UNL     1      -7.272  10.632  69.100  1.00  0.00    -0.102 C  
BRANCH  16  19
HETATM   19  C   UNL     1      -8.963  11.379  67.347  1.00  0.00    -0.154 C  
HETATM   20  C   UNL     1      -8.396  10.964  66.200  1.00  0.00    -0.168 C  
BRANCH  20  21
HETATM   21  C   UNL     1      -9.122  10.649  64.920  1.00  0.00    -0.204 C  
HETATM   22  O   UNL     1      -9.954   9.508  65.094  1.00  0.00    -0.429 OA 
HETATM   23  H   UNL     1     -10.412   9.309  64.286  1.00  0.00     0.000 HD 
BRANCH  21  24
HETATM   24  C   UNL     1      -9.998  11.821  64.462  1.00  0.00    -0.273 C  
BRANCH  24  25
HETATM   25  C   UNL     1     -11.101  11.455  63.463  1.00  0.00    -0.373 C  
BRANCH  25  26
HETATM   26  C   UNL     1     -12.349  12.325  63.609  1.00  0.00    -0.664 C  
BRANCH  26  27
HETATM   27  C   UNL     1     -12.006  13.715  64.142  1.00  0.00    -0.488 C  
HETATM   28  C   UNL     1     -12.717  13.982  65.458  1.00  0.00    -0.517 C  
ENDBRANCH  26  27
ENDBRANCH  25  26
ENDBRANCH  24  25
ENDBRANCH  21  24
ENDBRANCH  20  21
ENDBRANCH  16  19
ENDBRANCH   9  10
ENDBRANCH   2   9
TORSDOF 11
ENDMDL
MODEL      169
REMARK 921   NORMALIZED FREE ENERGY PREDICTED BY IDOCK:   -3.94 KCAL/MOL
REMARK 922        TOTAL FREE ENERGY PREDICTED BY IDOCK:   -8.87 KCAL/MOL
REMARK 923 INTER-LIGAND FREE ENERGY PREDICTED BY IDOCK:   -7.78 KCAL/MOL
REMARK 924 INTRA-LIGAND FREE ENERGY PREDICTED BY IDOCK:   -1.09 KCAL/MOL
REMARK 927      BINDING AFFINITY PREDICTED BY RF-SCORE:    0.00 PKD
ROOT
HETATM    1  C   UNL     1     -12.650  12.232  70.835  1.00  0.00    -0.334 C  
HETATM    2  C   UNL     1     -12.060  11.036  70.692  1.00  0.00    -0.471 C  
ENDROOT
BRANCH   1   3
HETATM    3  C   UNL     1     -13.408  12.717  72.040  1.00  0.00    -0.555 C  
BRANCH   3   4
HETATM    4  C   UNL     1     -13.543  14.240  72.047  1.00  0.00    -0.520 C  
BRANCH   4   5
HETATM    5  C   UNL     1     -12.896  14.883  70.820  1.00  0.00    -0.428 C  
HETATM    6  O   UNL     1     -11.266  16.463  70.113  1.00  0.00    -0.354 OA 
HETATM    7  C   UNL     1     -11.850  15.901  71.198  1.00  0.00    -0.438 C  
HETATM    8  O   UNL     1     -11.533  16.201  72.340  1.00  0.00    -0.351 OA 
ENDBRANCH   4   5
ENDBRANCH   3   4
ENDBRANCH   1   3
BRANCH   2   9
HETATM    9  C   UNL     1     -12.083   9.905  71.684  1.00  0.00    -0.457 C  
BRANCH   9  10
HETATM   10  C   UNL     1     -10.925   8.899  71.586  1.00  0.00    -0.415 C  
HETATM   11  H   UNL     1     -11.615   5.798  69.341  1.00  0.00     0.000 HD 
HETATM   12  C   UNL     1     -11.075   7.771  72.619  1.00  0.00    -0.376 C  
HETATM   13  O   UNL     1     -11.459   5.793  70.278  1.00  0.00    -0.180 OA 
HETATM   14  O   UNL     1     -12.401   7.246  72.636  1.00  0.00    -0.501 OA 
HETATM   15  C   UNL     1     -10.143   6.688  72.101  1.00  0.00    -0.194 C  
HETATM   16  C   UNL     1     -10.816   8.144  70.232  1.00  0.00    -0.244 C  
HETATM   17  H   UNL     1     -12.494   6.549  73.275  1.00  0.00     0.000 HD 
HETATM   18  C   UNL     1     -10.395   6.696  70.594  1.00  0.00    -0.202 C  
BRANCH  16  19
HETATM   19  C   UNL     1      -9.874   8.796  69.248  1.00  0.00    -0.180 C  
HETATM   20  C   UNL     1      -8.726   8.258  68.799  1.00  0.00    -0.137 C  
BRANCH  20  21
HETATM   21  C   UNL     1      -7.742   8.922  67.874  1.00  0.00    -0.101 C  
HETATM   22  O   UNL     1      -6.418   8.773  68.375  1.00  0.00    -0.054 OA 
HETATM   23  H   UNL     1      -5.797   9.192  67.791  1.00  0.00     0.000 HD 
BRANCH  21  24
HETATM   24  C   UNL     1      -7.796   8.322  66.464  1.00  0.00    -0.093 C  
BRANCH  24  25
HETATM   25  C   UNL     1      -9.195   8.246  65.843  1.00  0.00    -0.185 C  
BRANCH  25  26
HETATM   26  C   UNL     1      -9.814   9.622  65.599  1.00  0.00    -0.369 C  
BRANCH  26  27
HETATM   27  C   UNL     1      -9.014  10.424  64.574  1.00  0.00    -0.241 C  
HETATM   28  C   UNL     1      -9.864  10.748  63.357  1.00  0.00    -0.400 C  
ENDBRANCH  26  27
ENDBRANCH  25  26
ENDBRANCH  24  25
ENDBRANCH  21  24
ENDBRANCH  20  21
ENDBRANCH  16  19
ENDBRANCH   9  10
ENDBRANCH   2   9
TORSDOF 11
ENDMDL
MODEL      170
REMARK 921   NORMALIZED FREE ENERGY PREDICTED BY IDOCK:   -3.93 KCAL/MOL
REMARK 922        TOTAL FREE ENERGY PREDICTED BY IDOCK:   -8.85 KCAL/MOL
REMARK 923 INTER-LIGAND FREE ENERGY PREDICTED BY IDOCK:   -6.92 KCAL/MOL
REMARK 924 INTRA-LIGAND FREE ENERGY PREDICTED BY IDOCK:   -1.93 KCAL/MOL
REMARK 927      BINDING AFFINITY PREDICTED BY RF-SCORE:    0.00 PKD
ROOT
HETATM    1  C   UNL     1      -7.888  11.513  67.657  1.00  0.00    -0.125 C  
HETATM    2  C   UNL     1      -8.038  12.793  67.286  1.00  0.00    -0.172 C  
ENDROOT
BRANCH   1   3
HETATM    3  C   UNL     1      -7.306  11.019  68.953  1.00  0.00    -0.111 C  
BRANCH   3   4
HETATM    4  C   UNL     1      -8.328  10.221  69.764  1.00  0.00    -0.099 C  
BRANCH   4   5
HETATM    5  C   UNL     1      -8.428   8.768  69.298  1.00  0.00    -0.122 C  
HETATM    6  O   UNL     1      -9.797   6.826  69.345  1.00  0.00    -0.155 OA 
HETATM    7  C   UNL     1      -9.700   8.108  69.767  1.00  0.00    -0.173 C  
HETATM    8  O   UNL     1     -10.568   8.643  70.441  1.00  0.00    -0.209 OA 
ENDBRANCH   4   5
ENDBRANCH   3   4
ENDBRANCH   1   3
BRANCH   2   9
HETATM    9  C   UNL     1      -7.599  14.005  68.063  1.00  0.00    -0.143 C  
BRANCH   9  10
HETATM   10  C   UNL     1      -8.511  15.238  67.960  1.00  0.00    -0.147 C  
HETATM   11  H   UNL     1      -7.113  18.150  65.793  1.00  0.00     0.000 HD 
HETATM   12  C   UNL     1      -8.148  16.292  69.019  1.00  0.00    -0.236 C  
HETATM   13  O   UNL     1      -7.289  18.175  66.726  1.00  0.00    -0.193 OA 
HETATM   14  O   UNL     1      -6.741  16.518  69.075  1.00  0.00    -0.173 OA 
HETATM   15  C   UNL     1      -8.812  17.557  68.502  1.00  0.00    -0.282 C  
HETATM   16  C   UNL     1      -8.420  16.019  66.620  1.00  0.00    -0.323 C  
HETATM   17  H   UNL     1      -6.517  17.170  69.729  1.00  0.00     0.000 HD 
HETATM   18  C   UNL     1      -8.529  17.518  67.001  1.00  0.00    -0.234 C  
BRANCH  16  19
HETATM   19  C   UNL     1      -9.456  15.599  65.603  1.00  0.00    -0.272 C  
HETATM   20  C   UNL     1     -10.788  15.654  65.783  1.00  0.00    -0.312 C  
BRANCH  20  21
HETATM   21  C   UNL     1     -11.830  15.176  64.810  1.00  0.00    -0.291 C  
HETATM   22  O   UNL     1     -11.929  16.076  63.712  1.00  0.00    -1.339 OA 
HETATM   23  H   UNL     1     -12.587  15.775  63.098  1.00  0.00     0.000 HD 
BRANCH  21  24
HETATM   24  C   UNL     1     -11.500  13.782  64.263  1.00  0.00    -0.363 C  
BRANCH  24  25
HETATM   25  C   UNL     1     -11.460  12.665  65.312  1.00  0.00    -0.368 C  
BRANCH  25  26
HETATM   26  C   UNL     1     -12.285  12.988  66.557  1.00  0.00    -0.316 C  
BRANCH  26  27
HETATM   27  C   UNL     1     -11.592  12.505  67.830  1.00  0.00    -0.403 C  
HETATM   28  C   UNL     1     -11.507  10.988  67.860  1.00  0.00    -0.358 C  
ENDBRANCH  26  27
ENDBRANCH  25  26
ENDBRANCH  24  25
ENDBRANCH  21  24
ENDBRANCH  20  21
ENDBRANCH  16  19
ENDBRANCH   9  10
ENDBRANCH   2   9
TORSDOF 11
ENDMDL
MODEL      171
REMARK 921   NORMALIZED FREE ENERGY PREDICTED BY IDOCK:   -3.91 KCAL/MOL
REMARK 922        TOTAL FREE ENERGY PREDICTED BY IDOCK:   -8.82 KCAL/MOL
REMARK 923 INTER-LIGAND FREE ENERGY PREDICTED BY IDOCK:   -6.94 KCAL/MOL
REMARK 924 INTRA-LIGAND FREE ENERGY PREDICTED BY IDOCK:   -1.88 KCAL/MOL
REMARK 927      BINDING AFFINITY PREDICTED BY RF-SCORE:    0.00 PKD
ROOT
HETATM    1  C   UNL     1      -6.709  15.948  67.216  1.00  0.00    -0.221 C  
HETATM    2  C   UNL     1      -7.548  14.955  67.547  1.00  0.00    -0.218 C  
ENDROOT
BRANCH   1   3
HETATM    3  C   UNL     1      -6.897  17.412  67.504  1.00  0.00    -0.173 C  
BRANCH   3   4
HETATM    4  C   UNL     1      -7.471  18.155  66.297  1.00  0.00    -0.301 C  
BRANCH   4   5
HETATM    5  C   UNL     1      -8.503  19.207  66.704  1.00  0.00    -0.319 C  
HETATM    6  O   UNL     1     -10.806  19.786  66.585  1.00  0.00    -0.467 OA 
HETATM    7  C   UNL     1      -9.888  18.863  66.215  1.00  0.00    -0.365 C  
HETATM    8  O   UNL     1     -10.183  17.870  65.568  1.00  0.00    -0.576 OA 
ENDBRANCH   4   5
ENDBRANCH   3   4
ENDBRANCH   1   3
BRANCH   2   9
HETATM    9  C   UNL     1      -8.885  15.105  68.223  1.00  0.00    -0.173 C  
BRANCH   9  10
HETATM   10  C   UNL     1      -9.958  14.078  67.827  1.00  0.00    -0.236 C  
HETATM   11  H   UNL     1     -10.859  14.001  64.045  1.00  0.00     0.000 HD 
HETATM   12  C   UNL     1     -11.359  14.711  67.809  1.00  0.00    -0.322 C  
HETATM   13  O   UNL     1     -11.439  14.240  64.758  1.00  0.00    -0.359 OA 
HETATM   14  O   UNL     1     -11.362  15.961  67.123  1.00  0.00    -0.145 OA 
HETATM   15  C   UNL     1     -12.184  13.723  67.002  1.00  0.00    -0.381 C  
HETATM   16  C   UNL     1      -9.809  13.478  66.402  1.00  0.00    -0.299 C  
HETATM   17  H   UNL     1     -12.228  16.352  67.112  1.00  0.00     0.000 HD 
HETATM   18  C   UNL     1     -11.252  13.339  65.853  1.00  0.00    -0.290 C  
BRANCH  16  19
HETATM   19  C   UNL     1      -9.045  12.175  66.369  1.00  0.00    -0.177 C  
HETATM   20  C   UNL     1      -9.556  10.985  66.007  1.00  0.00    -0.249 C  
BRANCH  20  21
HETATM   21  C   UNL     1      -8.830   9.667  66.035  1.00  0.00    -0.152 C  
HETATM   22  O   UNL     1      -7.622   9.786  66.778  1.00  0.00    -0.094 OA 
HETATM   23  H   UNL     1      -7.164   8.954  66.796  1.00  0.00     0.000 HD 
BRANCH  21  24
HETATM   24  C   UNL     1      -9.682   8.563  66.671  1.00  0.00    -0.318 C  
BRANCH  24  25
HETATM   25  C   UNL     1     -10.878   9.058  67.493  1.00  0.00    -0.130 C  
BRANCH  25  26
HETATM   26  C   UNL     1     -10.560   9.204  68.980  1.00  0.00    -0.219 C  
BRANCH  26  27
HETATM   27  C   UNL     1     -10.807  10.629  69.471  1.00  0.00    -0.303 C  
HETATM   28  C   UNL     1     -11.726  10.635  70.680  1.00  0.00    -0.454 C  
ENDBRANCH  26  27
ENDBRANCH  25  26
ENDBRANCH  24  25
ENDBRANCH  21  24
ENDBRANCH  20  21
ENDBRANCH  16  19
ENDBRANCH   9  10
ENDBRANCH   2   9
TORSDOF 11
ENDMDL
MODEL      172
REMARK 921   NORMALIZED FREE ENERGY PREDICTED BY IDOCK:   -3.90 KCAL/MOL
REMARK 922        TOTAL FREE ENERGY PREDICTED BY IDOCK:   -8.81 KCAL/MOL
REMARK 923 INTER-LIGAND FREE ENERGY PREDICTED BY IDOCK:   -6.99 KCAL/MOL
REMARK 924 INTRA-LIGAND FREE ENERGY PREDICTED BY IDOCK:   -1.82 KCAL/MOL
REMARK 927      BINDING AFFINITY PREDICTED BY RF-SCORE:    0.00 PKD
ROOT
HETATM    1  C   UNL     1     -10.628  15.648  66.960  1.00  0.00    -0.311 C  
HETATM    2  C   UNL     1      -9.753  15.320  67.922  1.00  0.00    -0.211 C  
ENDROOT
BRANCH   1   3
HETATM    3  C   UNL     1     -10.375  15.634  65.477  1.00  0.00    -0.421 C  
BRANCH   3   4
HETATM    4  C   UNL     1     -10.424  14.215  64.909  1.00  0.00    -0.461 C  
BRANCH   4   5
HETATM    5  C   UNL     1     -11.810  13.854  64.375  1.00  0.00    -0.456 C  
HETATM    6  O   UNL     1     -13.535  12.220  64.458  1.00  0.00    -0.686 OA 
HETATM    7  C   UNL     1     -12.302  12.536  64.919  1.00  0.00    -0.470 C  
HETATM    8  O   UNL     1     -11.690  11.818  65.695  1.00  0.00    -0.321 OA 
ENDBRANCH   4   5
ENDBRANCH   3   4
ENDBRANCH   1   3
BRANCH   2   9
HETATM    9  C   UNL     1      -8.314  14.926  67.722  1.00  0.00    -0.163 C  
BRANCH   9  10
HETATM   10  C   UNL     1      -8.053  13.433  67.468  1.00  0.00    -0.183 C  
HETATM   11  H   UNL     1      -7.032  11.375  70.606  1.00  0.00     0.000 HD 
HETATM   12  C   UNL     1      -6.562  13.161  67.212  1.00  0.00     0.057 C  
HETATM   13  O   UNL     1      -6.497  11.536  69.838  1.00  0.00    -0.140 OA 
HETATM   14  O   UNL     1      -5.736  13.817  68.172  1.00  0.00    -0.098 OA 
HETATM   15  C   UNL     1      -6.434  11.661  67.422  1.00  0.00    -0.103 C  
HETATM   16  C   UNL     1      -8.401  12.488  68.651  1.00  0.00     0.021 C  
HETATM   17  H   UNL     1      -4.814  13.649  68.014  1.00  0.00     0.000 HD 
HETATM   18  C   UNL     1      -7.294  11.402  68.658  1.00  0.00    -0.104 C  
BRANCH  16  19
HETATM   19  C   UNL     1      -9.792  11.903  68.572  1.00  0.00    -0.187 C  
HETATM   20  C   UNL     1     -10.860  12.346  69.260  1.00  0.00    -0.073 C  
BRANCH  20  21
HETATM   21  C   UNL     1     -12.233  11.733  69.247  1.00  0.00    -0.140 C  
HETATM   22  O   UNL     1     -12.210  10.485  68.562  1.00  0.00    -0.806 OA 
HETATM   23  H   UNL     1     -13.077  10.098  68.554  1.00  0.00     0.000 HD 
BRANCH  21  24
HETATM   24  C   UNL     1     -12.762  11.495  70.666  1.00  0.00    -0.259 C  
BRANCH  24  25
HETATM   25  C   UNL     1     -12.619  12.685  71.621  1.00  0.00    -0.186 C  
BRANCH  25  26
HETATM   26  C   UNL     1     -13.839  13.605  71.613  1.00  0.00    -0.256 C  
BRANCH  26  27
HETATM   27  C   UNL     1     -13.475  15.016  71.157  1.00  0.00    -0.503 C  
HETATM   28  C   UNL     1     -12.820  15.799  72.283  1.00  0.00    -0.525 C  
ENDBRANCH  26  27
ENDBRANCH  25  26
ENDBRANCH  24  25
ENDBRANCH  21  24
ENDBRANCH  20  21
ENDBRANCH  16  19
ENDBRANCH   9  10
ENDBRANCH   2   9
TORSDOF 11
ENDMDL
MODEL      173
REMARK 921   NORMALIZED FREE ENERGY PREDICTED BY IDOCK:   -3.89 KCAL/MOL
REMARK 922        TOTAL FREE ENERGY PREDICTED BY IDOCK:   -8.79 KCAL/MOL
REMARK 923 INTER-LIGAND FREE ENERGY PREDICTED BY IDOCK:   -7.11 KCAL/MOL
REMARK 924 INTRA-LIGAND FREE ENERGY PREDICTED BY IDOCK:   -1.68 KCAL/MOL
REMARK 927      BINDING AFFINITY PREDICTED BY RF-SCORE:    0.00 PKD
ROOT
HETATM    1  C   UNL     1      -9.200   9.834  65.500  1.00  0.00    -0.270 C  
HETATM    2  C   UNL     1      -9.337  10.448  64.315  1.00  0.00    -0.324 C  
ENDROOT
BRANCH   1   3
HETATM    3  C   UNL     1     -10.273   9.634  66.534  1.00  0.00    -0.294 C  
BRANCH   3   4
HETATM    4  C   UNL     1      -9.741   9.858  67.951  1.00  0.00    -0.162 C  
BRANCH   4   5
HETATM    5  C   UNL     1      -8.463   9.064  68.220  1.00  0.00    -0.129 C  
HETATM    6  O   UNL     1      -6.112   9.252  68.518  1.00  0.00    -0.044 OA 
HETATM    7  C   UNL     1      -7.244   9.951  68.266  1.00  0.00    -0.078 C  
HETATM    8  O   UNL     1      -7.243  11.163  68.111  1.00  0.00    -0.075 OA 
ENDBRANCH   4   5
ENDBRANCH   3   4
ENDBRANCH   1   3
BRANCH   2   9
HETATM    9  C   UNL     1     -10.580  11.120  63.798  1.00  0.00    -0.422 C  
BRANCH   9  10
HETATM   10  C   UNL     1     -10.716  12.619  64.114  1.00  0.00    -0.435 C  
HETATM   11  H   UNL     1     -13.356  13.504  66.828  1.00  0.00     0.000 HD 
HETATM   12  C   UNL     1     -11.837  13.266  63.284  1.00  0.00    -0.229 C  
HETATM   13  O   UNL     1     -13.381  13.757  65.913  1.00  0.00    -0.339 OA 
HETATM   14  O   UNL     1     -13.027  12.480  63.305  1.00  0.00    -0.634 OA 
HETATM   15  C   UNL     1     -12.114  14.568  64.018  1.00  0.00    -0.271 C  
HETATM   16  C   UNL     1     -11.104  12.955  65.580  1.00  0.00    -0.307 C  
HETATM   17  H   UNL     1     -13.719  12.880  62.792  1.00  0.00     0.000 HD 
HETATM   18  C   UNL     1     -12.075  14.160  65.490  1.00  0.00    -0.414 C  
BRANCH  16  19
HETATM   19  C   UNL     1      -9.917  13.229  66.474  1.00  0.00    -0.280 C  
HETATM   20  C   UNL     1      -9.342  14.431  66.654  1.00  0.00    -0.297 C  
BRANCH  20  21
HETATM   21  C   UNL     1      -8.119  14.709  67.484  1.00  0.00    -0.184 C  
HETATM   22  O   UNL     1      -7.033  13.901  67.047  1.00  0.00    -0.391 OA 
HETATM   23  H   UNL     1      -6.260  14.076  67.571  1.00  0.00     0.000 HD 
BRANCH  21  24
HETATM   24  C   UNL     1      -7.694  16.179  67.394  1.00  0.00    -0.187 C  
BRANCH  24  25
HETATM   25  C   UNL     1      -8.846  17.190  67.383  1.00  0.00    -0.218 C  
BRANCH  25  26
HETATM   26  C   UNL     1      -8.656  18.320  68.394  1.00  0.00    -0.315 C  
BRANCH  26  27
HETATM   27  C   UNL     1      -8.077  19.571  67.736  1.00  0.00    -0.331 C  
HETATM   28  C   UNL     1      -9.148  20.324  66.965  1.00  0.00    -0.481 C  
ENDBRANCH  26  27
ENDBRANCH  25  26
ENDBRANCH  24  25
ENDBRANCH  21  24
ENDBRANCH  20  21
ENDBRANCH  16  19
ENDBRANCH   9  10
ENDBRANCH   2   9
TORSDOF 11
ENDMDL
MODEL      174
REMARK 921   NORMALIZED FREE ENERGY PREDICTED BY IDOCK:   -3.89 KCAL/MOL
REMARK 922        TOTAL FREE ENERGY PREDICTED BY IDOCK:   -8.79 KCAL/MOL
REMARK 923 INTER-LIGAND FREE ENERGY PREDICTED BY IDOCK:   -7.22 KCAL/MOL
REMARK 924 INTRA-LIGAND FREE ENERGY PREDICTED BY IDOCK:   -1.57 KCAL/MOL
REMARK 927      BINDING AFFINITY PREDICTED BY RF-SCORE:    0.00 PKD
ROOT
HETATM    1  C   UNL     1     -11.166  16.247  68.916  1.00  0.00    -0.337 C  
HETATM    2  C   UNL     1      -9.938  16.363  68.388  1.00  0.00    -0.238 C  
ENDROOT
BRANCH   1   3
HETATM    3  C   UNL     1     -11.541  15.475  70.150  1.00  0.00    -0.355 C  
BRANCH   3   4
HETATM    4  C   UNL     1     -13.055  15.446  70.360  1.00  0.00    -0.223 C  
BRANCH   4   5
HETATM    5  C   UNL     1     -13.437  14.899  71.736  1.00  0.00    -0.480 C  
HETATM    6  O   UNL     1     -13.578  12.919  73.045  1.00  0.00    -0.257 OA 
HETATM    7  C   UNL     1     -13.253  13.404  71.824  1.00  0.00    -0.407 C  
HETATM    8  O   UNL     1     -12.849  12.687  70.921  1.00  0.00    -0.219 OA 
ENDBRANCH   4   5
ENDBRANCH   3   4
ENDBRANCH   1   3
BRANCH   2   9
HETATM    9  C   UNL     1      -8.686  15.693  68.887  1.00  0.00    -0.215 C  
BRANCH   9  10
HETATM   10  C   UNL     1      -8.146  14.544  68.020  1.00  0.00    -0.139 C  
HETATM   11  H   UNL     1      -9.300  10.986  69.085  1.00  0.00     0.000 HD 
HETATM   12  C   UNL     1      -6.862  13.946  68.620  1.00  0.00    -0.101 C  
HETATM   13  O   UNL     1      -8.410  11.316  69.094  1.00  0.00    -0.065 OA 
HETATM   14  O   UNL     1      -6.998  13.705  70.019  1.00  0.00    -0.350 OA 
HETATM   15  C   UNL     1      -6.734  12.605  67.917  1.00  0.00    -0.109 C  
HETATM   16  C   UNL     1      -9.091  13.318  67.881  1.00  0.00    -0.203 C  
HETATM   17  H   UNL     1      -6.205  13.337  70.389  1.00  0.00     0.000 HD 
HETATM   18  C   UNL     1      -8.166  12.073  67.904  1.00  0.00    -0.153 C  
BRANCH  16  19
HETATM   19  C   UNL     1      -9.971  13.367  66.654  1.00  0.00    -0.277 C  
HETATM   20  C   UNL     1     -11.294  13.121  66.639  1.00  0.00    -0.361 C  
BRANCH  20  21
HETATM   21  C   UNL     1     -12.172  13.097  65.417  1.00  0.00    -0.461 C  
HETATM   22  O   UNL     1     -13.251  14.012  65.569  1.00  0.00    -0.710 OA 
HETATM   23  H   UNL     1     -13.806  13.997  64.798  1.00  0.00     0.000 HD 
BRANCH  21  24
HETATM   24  C   UNL     1     -11.394  13.474  64.152  1.00  0.00    -0.370 C  
BRANCH  24  25
HETATM   25  C   UNL     1     -10.955  12.290  63.282  1.00  0.00    -0.373 C  
BRANCH  25  26
HETATM   26  C   UNL     1     -10.608  11.047  64.099  1.00  0.00    -0.412 C  
BRANCH  26  27
HETATM   27  C   UNL     1      -9.113  10.739  64.048  1.00  0.00    -0.215 C  
HETATM   28  C   UNL     1      -8.731   9.727  65.115  1.00  0.00    -0.192 C  
ENDBRANCH  26  27
ENDBRANCH  25  26
ENDBRANCH  24  25
ENDBRANCH  21  24
ENDBRANCH  20  21
ENDBRANCH  16  19
ENDBRANCH   9  10
ENDBRANCH   2   9
TORSDOF 11
ENDMDL
MODEL      175
REMARK 921   NORMALIZED FREE ENERGY PREDICTED BY IDOCK:   -3.89 KCAL/MOL
REMARK 922        TOTAL FREE ENERGY PREDICTED BY IDOCK:   -8.78 KCAL/MOL
REMARK 923 INTER-LIGAND FREE ENERGY PREDICTED BY IDOCK:   -7.20 KCAL/MOL
REMARK 924 INTRA-LIGAND FREE ENERGY PREDICTED BY IDOCK:   -1.58 KCAL/MOL
REMARK 927      BINDING AFFINITY PREDICTED BY RF-SCORE:    0.00 PKD
ROOT
HETATM    1  C   UNL     1      -9.525  10.139  69.575  1.00  0.00    -0.235 C  
HETATM    2  C   UNL     1      -8.631  10.757  68.789  1.00  0.00    -0.156 C  
ENDROOT
BRANCH   1   3
HETATM    3  C   UNL     1     -10.403   8.980  69.192  1.00  0.00    -0.229 C  
BRANCH   3   4
HETATM    4  C   UNL     1      -9.628   7.662  69.186  1.00  0.00    -0.155 C  
BRANCH   4   5
HETATM    5  C   UNL     1     -10.428   6.524  68.550  1.00  0.00    -0.257 C  
HETATM    6  O   UNL     1     -10.933   5.448  66.491  1.00  0.00    -0.239 OA 
HETATM    7  C   UNL     1     -10.236   6.462  67.055  1.00  0.00    -0.205 C  
HETATM    8  O   UNL     1      -9.532   7.216  66.400  1.00  0.00    -0.173 OA 
ENDBRANCH   4   5
ENDBRANCH   3   4
ENDBRANCH   1   3
BRANCH   2   9
HETATM    9  C   UNL     1      -8.363  10.460  67.339  1.00  0.00    -0.121 C  
BRANCH   9  10
HETATM   10  C   UNL     1      -8.862  11.510  66.333  1.00  0.00    -0.193 C  
HETATM   11  H   UNL     1     -12.428  12.899  67.027  1.00  0.00     0.000 HD 
HETATM   12  C   UNL     1      -9.693  10.861  65.213  1.00  0.00    -0.246 C  
HETATM   13  O   UNL     1     -12.157  12.393  66.270  1.00  0.00    -0.612 OA 
HETATM   14  O   UNL     1     -10.651   9.943  65.734  1.00  0.00    -0.060 OA 
HETATM   15  C   UNL     1     -10.441  12.034  64.602  1.00  0.00    -0.338 C  
HETATM   16  C   UNL     1      -9.816  12.588  66.918  1.00  0.00    -0.229 C  
HETATM   17  H   UNL     1     -11.164   9.542  65.042  1.00  0.00     0.000 HD 
HETATM   18  C   UNL     1     -10.878  12.848  65.819  1.00  0.00    -0.269 C  
BRANCH  16  19
HETATM   19  C   UNL     1      -9.109  13.849  67.356  1.00  0.00    -0.217 C  
HETATM   20  C   UNL     1      -8.960  14.956  66.605  1.00  0.00    -0.301 C  
BRANCH  20  21
HETATM   21  C   UNL     1      -8.200  16.193  66.998  1.00  0.00    -0.216 C  
HETATM   22  O   UNL     1      -8.146  17.105  65.907  1.00  0.00    -0.516 OA 
HETATM   23  H   UNL     1      -7.667  17.887  66.155  1.00  0.00     0.000 HD 
BRANCH  21  24
HETATM   24  C   UNL     1      -8.851  16.904  68.190  1.00  0.00    -0.223 C  
BRANCH  24  25
HETATM   25  C   UNL     1      -8.433  18.366  68.382  1.00  0.00    -0.345 C  
BRANCH  25  26
HETATM   26  C   UNL     1      -9.624  19.321  68.453  1.00  0.00    -0.450 C  
BRANCH  26  27
HETATM   27  C   UNL     1      -9.678  20.242  67.236  1.00  0.00    -0.590 C  
HETATM   28  C   UNL     1     -10.498  19.618  66.119  1.00  0.00    -0.624 C  
ENDBRANCH  26  27
ENDBRANCH  25  26
ENDBRANCH  24  25
ENDBRANCH  21  24
ENDBRANCH  20  21
ENDBRANCH  16  19
ENDBRANCH   9  10
ENDBRANCH   2   9
TORSDOF 11
ENDMDL
MODEL      176
REMARK 921   NORMALIZED FREE ENERGY PREDICTED BY IDOCK:   -3.89 KCAL/MOL
REMARK 922        TOTAL FREE ENERGY PREDICTED BY IDOCK:   -8.78 KCAL/MOL
REMARK 923 INTER-LIGAND FREE ENERGY PREDICTED BY IDOCK:   -6.83 KCAL/MOL
REMARK 924 INTRA-LIGAND FREE ENERGY PREDICTED BY IDOCK:   -1.95 KCAL/MOL
REMARK 927      BINDING AFFINITY PREDICTED BY RF-SCORE:    0.00 PKD
ROOT
HETATM    1  C   UNL     1     -12.044  14.310  68.449  1.00  0.00    -0.297 C  
HETATM    2  C   UNL     1     -11.527  14.421  67.216  1.00  0.00    -0.377 C  
ENDROOT
BRANCH   1   3
HETATM    3  C   UNL     1     -12.170  15.408  69.469  1.00  0.00    -0.277 C  
BRANCH   3   4
HETATM    4  C   UNL     1     -12.279  14.851  70.889  1.00  0.00    -0.389 C  
BRANCH   4   5
HETATM    5  C   UNL     1     -12.390  13.326  70.903  1.00  0.00    -0.413 C  
HETATM    6  O   UNL     1     -13.368  11.482  72.042  1.00  0.00    -0.476 OA 
HETATM    7  C   UNL     1     -13.257  12.831  72.034  1.00  0.00    -0.436 C  
HETATM    8  O   UNL     1     -13.817  13.538  72.858  1.00  0.00    -0.645 OA 
ENDBRANCH   4   5
ENDBRANCH   3   4
ENDBRANCH   1   3
BRANCH   2   9
HETATM    9  C   UNL     1     -10.908  15.655  66.616  1.00  0.00    -0.266 C  
BRANCH   9  10
HETATM   10  C   UNL     1      -9.399  15.580  66.331  1.00  0.00    -0.330 C  
HETATM   11  H   UNL     1      -7.108  15.914  69.456  1.00  0.00     0.000 HD 
HETATM   12  C   UNL     1      -8.794  16.982  66.148  1.00  0.00    -0.216 C  
HETATM   13  O   UNL     1      -7.154  16.517  68.723  1.00  0.00    -0.165 OA 
HETATM   14  O   UNL     1      -9.226  17.878  67.170  1.00  0.00    -0.250 OA 
HETATM   15  C   UNL     1      -7.302  16.749  66.319  1.00  0.00    -0.186 C  
HETATM   16  C   UNL     1      -8.540  14.956  67.466  1.00  0.00    -0.195 C  
HETATM   17  H   UNL     1      -8.852  18.744  67.057  1.00  0.00     0.000 HD 
HETATM   18  C   UNL     1      -7.227  15.781  67.499  1.00  0.00    -0.184 C  
BRANCH  16  19
HETATM   19  C   UNL     1      -8.293  13.475  67.295  1.00  0.00    -0.188 C  
HETATM   20  C   UNL     1      -7.166  12.831  67.645  1.00  0.00    -0.141 C  
BRANCH  20  21
HETATM   21  C   UNL     1      -6.876  11.372  67.419  1.00  0.00    -0.101 C  
HETATM   22  O   UNL     1      -6.988  10.652  68.641  1.00  0.00    -0.066 OA 
HETATM   23  H   UNL     1      -6.805   9.731  68.498  1.00  0.00     0.000 HD 
BRANCH  21  24
HETATM   24  C   UNL     1      -7.844  10.753  66.404  1.00  0.00    -0.148 C  
BRANCH  24  25
HETATM   25  C   UNL     1      -8.574   9.494  66.886  1.00  0.00    -0.132 C  
BRANCH  25  26
HETATM   26  C   UNL     1     -10.054   9.482  66.507  1.00  0.00    -0.326 C  
BRANCH  26  27
HETATM   27  C   UNL     1     -10.792  10.689  67.084  1.00  0.00    -0.328 C  
HETATM   28  C   UNL     1     -11.410  10.355  68.431  1.00  0.00    -0.292 C  
ENDBRANCH  26  27
ENDBRANCH  25  26
ENDBRANCH  24  25
ENDBRANCH  21  24
ENDBRANCH  20  21
ENDBRANCH  16  19
ENDBRANCH   9  10
ENDBRANCH   2   9
TORSDOF 11
ENDMDL
MODEL      177
REMARK 921   NORMALIZED FREE ENERGY PREDICTED BY IDOCK:   -3.88 KCAL/MOL
REMARK 922        TOTAL FREE ENERGY PREDICTED BY IDOCK:   -8.77 KCAL/MOL
REMARK 923 INTER-LIGAND FREE ENERGY PREDICTED BY IDOCK:   -6.80 KCAL/MOL
REMARK 924 INTRA-LIGAND FREE ENERGY PREDICTED BY IDOCK:   -1.97 KCAL/MOL
REMARK 927      BINDING AFFINITY PREDICTED BY RF-SCORE:    0.00 PKD
ROOT
HETATM    1  C   UNL     1      -9.276   6.508  72.151  1.00  0.00    -0.139 C  
HETATM    2  C   UNL     1      -9.822   7.569  72.763  1.00  0.00    -0.261 C  
ENDROOT
BRANCH   1   3
HETATM    3  C   UNL     1     -10.016   5.349  71.541  1.00  0.00    -0.237 C  
BRANCH   3   4
HETATM    4  C   UNL     1      -9.771   5.254  70.034  1.00  0.00    -0.263 C  
BRANCH   4   5
HETATM    5  C   UNL     1     -10.822   6.018  69.229  1.00  0.00    -0.428 C  
HETATM    6  O   UNL     1     -11.252   7.068  67.140  1.00  0.00    -0.315 OA 
HETATM    7  C   UNL     1     -10.319   6.402  67.860  1.00  0.00    -0.190 C  
HETATM    8  O   UNL     1      -9.209   6.147  67.416  1.00  0.00    -0.114 OA 
ENDBRANCH   4   5
ENDBRANCH   3   4
ENDBRANCH   1   3
BRANCH   2   9
HETATM    9  C   UNL     1     -11.287   7.794  73.021  1.00  0.00    -0.331 C  
BRANCH   9  10
HETATM   10  C   UNL     1     -12.096   8.376  71.850  1.00  0.00    -0.398 C  
HETATM   11  H   UNL     1     -12.744  12.206  72.029  1.00  0.00     0.000 HD 
HETATM   12  C   UNL     1     -13.595   8.441  72.183  1.00  0.00    -0.323 C  
HETATM   13  O   UNL     1     -13.401  11.521  72.061  1.00  0.00    -0.476 OA 
HETATM   14  O   UNL     1     -13.823   8.996  73.477  1.00  0.00    -1.068 OA 
HETATM   15  C   UNL     1     -14.147   9.408  71.148  1.00  0.00     0.043 C  
HETATM   16  C   UNL     1     -11.742   9.838  71.462  1.00  0.00    -0.450 C  
HETATM   17  H   UNL     1     -14.749   9.036  73.683  1.00  0.00     0.000 HD 
HETATM   18  C   UNL     1     -13.091  10.511  71.096  1.00  0.00    -0.358 C  
BRANCH  16  19
HETATM   19  C   UNL     1     -10.720   9.942  70.354  1.00  0.00    -0.379 C  
HETATM   20  C   UNL     1     -10.475  11.046  69.626  1.00  0.00    -0.069 C  
BRANCH  20  21
HETATM   21  C   UNL     1      -9.512  11.147  68.474  1.00  0.00    -0.193 C  
HETATM   22  O   UNL     1      -8.366  11.900  68.856  1.00  0.00    -0.350 OA 
HETATM   23  H   UNL     1      -7.758  11.964  68.129  1.00  0.00     0.000 HD 
BRANCH  21  24
HETATM   24  C   UNL     1      -9.046   9.765  68.001  1.00  0.00    -0.127 C  
BRANCH  24  25
HETATM   25  C   UNL     1      -7.571   9.448  68.274  1.00  0.00    -0.082 C  
BRANCH  25  26
HETATM   26  C   UNL     1      -6.885   8.753  67.099  1.00  0.00    -0.067 C  
BRANCH  26  27
HETATM   27  C   UNL     1      -7.704   8.877  65.816  1.00  0.00    -0.094 C  
HETATM   28  C   UNL     1      -7.052   9.851  64.848  1.00  0.00    -0.132 C  
ENDBRANCH  26  27
ENDBRANCH  25  26
ENDBRANCH  24  25
ENDBRANCH  21  24
ENDBRANCH  20  21
ENDBRANCH  16  19
ENDBRANCH   9  10
ENDBRANCH   2   9
TORSDOF 11
ENDMDL
MODEL      178
REMARK 921   NORMALIZED FREE ENERGY PREDICTED BY IDOCK:   -3.88 KCAL/MOL
REMARK 922        TOTAL FREE ENERGY PREDICTED BY IDOCK:   -8.77 KCAL/MOL
REMARK 923 INTER-LIGAND FREE ENERGY PREDICTED BY IDOCK:   -6.79 KCAL/MOL
REMARK 924 INTRA-LIGAND FREE ENERGY PREDICTED BY IDOCK:   -1.98 KCAL/MOL
REMARK 927      BINDING AFFINITY PREDICTED BY RF-SCORE:    0.00 PKD
ROOT
HETATM    1  C   UNL     1     -12.307  15.616  70.797  1.00  0.00    -0.466 C  
HETATM    2  C   UNL     1     -12.762  14.466  71.315  1.00  0.00    -0.414 C  
ENDROOT
BRANCH   1   3
HETATM    3  C   UNL     1     -11.973  15.877  69.354  1.00  0.00    -0.268 C  
BRANCH   3   4
HETATM    4  C   UNL     1     -10.815  16.867  69.212  1.00  0.00    -0.214 C  
BRANCH   4   5
HETATM    5  C   UNL     1     -10.910  17.687  67.925  1.00  0.00    -0.245 C  
HETATM    6  O   UNL     1      -9.953  19.505  66.731  1.00  0.00    -0.338 OA 
HETATM    7  C   UNL     1      -9.879  18.786  67.875  1.00  0.00    -0.341 C  
HETATM    8  O   UNL     1      -9.052  19.021  68.743  1.00  0.00    -0.353 OA 
ENDBRANCH   4   5
ENDBRANCH   3   4
ENDBRANCH   1   3
BRANCH   2   9
HETATM    9  C   UNL     1     -12.977  13.176  70.572  1.00  0.00     0.102 C  
BRANCH   9  10
HETATM   10  C   UNL     1     -11.740  12.277  70.411  1.00  0.00    -0.127 C  
HETATM   11  H   UNL     1     -11.279  10.716  66.879  1.00  0.00     0.000 HD 
HETATM   12  C   UNL     1     -12.086  10.800  70.656  1.00  0.00    -0.370 C  
HETATM   13  O   UNL     1     -11.440  10.244  67.688  1.00  0.00    -0.345 OA 
HETATM   14  O   UNL     1     -13.272  10.415  69.962  1.00  0.00    -0.467 OA 
HETATM   15  C   UNL     1     -10.913  10.054  70.042  1.00  0.00    -0.352 C  
HETATM   16  C   UNL     1     -11.102  12.274  68.994  1.00  0.00    -0.289 C  
HETATM   17  H   UNL     1     -13.485   9.502  70.114  1.00  0.00     0.000 HD 
HETATM   18  C   UNL     1     -10.654  10.811  68.740  1.00  0.00    -0.200 C  
BRANCH  16  19
HETATM   19  C   UNL     1      -9.974  13.266  68.835  1.00  0.00     0.053 C  
HETATM   20  C   UNL     1      -8.955  13.148  67.964  1.00  0.00    -0.195 C  
BRANCH  20  21
HETATM   21  C   UNL     1      -7.788  14.089  67.840  1.00  0.00    -0.160 C  
HETATM   22  O   UNL     1      -6.767  13.504  67.039  1.00  0.00    -0.427 OA 
HETATM   23  H   UNL     1      -6.030  14.097  66.960  1.00  0.00     0.000 HD 
BRANCH  21  24
HETATM   24  C   UNL     1      -8.197  15.421  67.203  1.00  0.00    -0.250 C  
BRANCH  24  25
HETATM   25  C   UNL     1      -8.913  15.303  65.852  1.00  0.00    -0.011 C  
BRANCH  25  26
HETATM   26  C   UNL     1     -10.430  15.445  65.968  1.00  0.00    -0.333 C  
BRANCH  26  27
HETATM   27  C   UNL     1     -11.150  14.184  65.495  1.00  0.00    -0.310 C  
HETATM   28  C   UNL     1     -12.534  14.084  66.116  1.00  0.00    -0.467 C  
ENDBRANCH  26  27
ENDBRANCH  25  26
ENDBRANCH  24  25
ENDBRANCH  21  24
ENDBRANCH  20  21
ENDBRANCH  16  19
ENDBRANCH   9  10
ENDBRANCH   2   9
TORSDOF 11
ENDMDL
MODEL      179
REMARK 921   NORMALIZED FREE ENERGY PREDICTED BY IDOCK:   -3.88 KCAL/MOL
REMARK 922        TOTAL FREE ENERGY PREDICTED BY IDOCK:   -8.77 KCAL/MOL
REMARK 923 INTER-LIGAND FREE ENERGY PREDICTED BY IDOCK:   -8.07 KCAL/MOL
REMARK 924 INTRA-LIGAND FREE ENERGY PREDICTED BY IDOCK:   -0.70 KCAL/MOL
REMARK 927      BINDING AFFINITY PREDICTED BY RF-SCORE:    0.00 PKD
ROOT
HETATM    1  C   UNL     1      -7.536  20.293  67.177  1.00  0.00    -0.337 C  
HETATM    2  C   UNL     1      -7.325  19.898  68.442  1.00  0.00    -0.318 C  
ENDROOT
BRANCH   1   3
HETATM    3  C   UNL     1      -8.440  19.635  66.172  1.00  0.00    -0.354 C  
BRANCH   3   4
HETATM    4  C   UNL     1      -9.801  19.290  66.778  1.00  0.00    -0.430 C  
BRANCH   4   5
HETATM    5  C   UNL     1     -10.801  18.820  65.721  1.00  0.00    -0.142 C  
HETATM    6  O   UNL     1     -11.379  17.010  64.293  1.00  0.00    -1.191 OA 
HETATM    7  C   UNL     1     -10.487  17.433  65.220  1.00  0.00     0.138 C  
HETATM    8  O   UNL     1      -9.553  16.740  65.592  1.00  0.00    -0.527 OA 
ENDBRANCH   4   5
ENDBRANCH   3   4
ENDBRANCH   1   3
BRANCH   2   9
HETATM    9  C   UNL     1      -7.904  18.676  69.102  1.00  0.00    -0.086 C  
BRANCH   9  10
HETATM   10  C   UNL     1      -7.577  17.331  68.433  1.00  0.00    -0.241 C  
HETATM   11  H   UNL     1      -6.970  14.371  70.882  1.00  0.00     0.000 HD 
HETATM   12  C   UNL     1      -6.059  17.116  68.321  1.00  0.00    -0.143 C  
HETATM   13  O   UNL     1      -6.334  14.751  70.288  1.00  0.00    -0.169 OA 
HETATM   14  O   UNL     1      -5.393  17.420  69.545  1.00  0.00    -0.162 OA 
HETATM   15  C   UNL     1      -5.930  15.623  68.067  1.00  0.00    -0.154 C  
HETATM   16  C   UNL     1      -8.070  16.072  69.200  1.00  0.00    -0.238 C  
HETATM   17  H   UNL     1      -4.455  17.288  69.475  1.00  0.00     0.000 HD 
HETATM   18  C   UNL     1      -6.952  15.012  69.024  1.00  0.00    -0.127 C  
BRANCH  16  19
HETATM   19  C   UNL     1      -9.422  15.575  68.744  1.00  0.00    -0.210 C  
HETATM   20  C   UNL     1     -10.552  15.627  69.471  1.00  0.00    -0.266 C  
BRANCH  20  21
HETATM   21  C   UNL     1     -11.890  15.074  69.062  1.00  0.00    -0.300 C  
HETATM   22  O   UNL     1     -11.788  14.418  67.803  1.00  0.00    -0.362 OA 
HETATM   23  H   UNL     1     -12.633  14.069  67.544  1.00  0.00     0.000 HD 
BRANCH  21  24
HETATM   24  C   UNL     1     -12.427  14.069  70.088  1.00  0.00    -0.380 C  
BRANCH  24  25
HETATM   25  C   UNL     1     -13.495  14.619  71.039  1.00  0.00    -0.375 C  
BRANCH  25  26
HETATM   26  C   UNL     1     -13.124  14.451  72.512  1.00  0.00    -0.536 C  
BRANCH  26  27
HETATM   27  C   UNL     1     -13.196  15.779  73.265  1.00  0.00    -0.687 C  
HETATM   28  C   UNL     1     -11.914  16.574  73.085  1.00  0.00    -0.469 C  
ENDBRANCH  26  27
ENDBRANCH  25  26
ENDBRANCH  24  25
ENDBRANCH  21  24
ENDBRANCH  20  21
ENDBRANCH  16  19
ENDBRANCH   9  10
ENDBRANCH   2   9
TORSDOF 11
ENDMDL
MODEL      180
REMARK 921   NORMALIZED FREE ENERGY PREDICTED BY IDOCK:   -3.88 KCAL/MOL
REMARK 922        TOTAL FREE ENERGY PREDICTED BY IDOCK:   -8.76 KCAL/MOL
REMARK 923 INTER-LIGAND FREE ENERGY PREDICTED BY IDOCK:   -7.06 KCAL/MOL
REMARK 924 INTRA-LIGAND FREE ENERGY PREDICTED BY IDOCK:   -1.70 KCAL/MOL
REMARK 927      BINDING AFFINITY PREDICTED BY RF-SCORE:    0.00 PKD
ROOT
HETATM    1  C   UNL     1      -8.508  15.682  68.348  1.00  0.00    -0.164 C  
HETATM    2  C   UNL     1      -9.845  15.591  68.301  1.00  0.00    -0.213 C  
ENDROOT
BRANCH   1   3
HETATM    3  C   UNL     1      -7.576  15.787  67.172  1.00  0.00    -0.259 C  
BRANCH   3   4
HETATM    4  C   UNL     1      -7.446  17.230  66.681  1.00  0.00    -0.287 C  
BRANCH   4   5
HETATM    5  C   UNL     1      -6.664  18.106  67.661  1.00  0.00    -0.199 C  
HETATM    6  O   UNL     1      -6.864  19.870  69.241  1.00  0.00    -0.334 OA 
HETATM    7  C   UNL     1      -7.551  19.102  68.364  1.00  0.00    -0.312 C  
HETATM    8  O   UNL     1      -8.755  19.222  68.193  1.00  0.00    -0.308 OA 
ENDBRANCH   4   5
ENDBRANCH   3   4
ENDBRANCH   1   3
BRANCH   2   9
HETATM    9  C   UNL     1     -10.690  15.512  67.058  1.00  0.00    -0.321 C  
BRANCH   9  10
HETATM   10  C   UNL     1     -11.101  14.099  66.612  1.00  0.00    -0.314 C  
HETATM   11  H   UNL     1      -9.697  12.982  63.161  1.00  0.00     0.000 HD 
HETATM   12  C   UNL     1     -12.352  14.136  65.719  1.00  0.00    -0.461 C  
HETATM   13  O   UNL     1     -10.611  13.111  63.383  1.00  0.00    -0.008 OA 
HETATM   14  O   UNL     1     -12.249  15.139  64.711  1.00  0.00    -0.271 OA 
HETATM   15  C   UNL     1     -12.343  12.776  65.040  1.00  0.00    -0.559 C  
HETATM   16  C   UNL     1     -10.054  13.347  65.744  1.00  0.00    -0.297 C  
HETATM   17  H   UNL     1     -13.023  15.162  64.159  1.00  0.00     0.000 HD 
HETATM   18  C   UNL     1     -10.872  12.569  64.681  1.00  0.00    -0.310 C  
BRANCH  16  19
HETATM   19  C   UNL     1      -9.135  12.452  66.542  1.00  0.00    -0.181 C  
HETATM   20  C   UNL     1      -9.535  11.532  67.439  1.00  0.00    -0.171 C  
BRANCH  20  21
HETATM   21  C   UNL     1      -8.633  10.682  68.292  1.00  0.00    -0.128 C  
HETATM   22  O   UNL     1      -8.264  11.387  69.473  1.00  0.00    -0.333 OA 
HETATM   23  H   UNL     1      -7.695  10.850  70.011  1.00  0.00     0.000 HD 
BRANCH  21  24
HETATM   24  C   UNL     1      -9.313   9.372  68.704  1.00  0.00    -0.142 C  
BRANCH  24  25
HETATM   25  C   UNL     1     -10.384   8.861  67.734  1.00  0.00    -0.301 C  
BRANCH  25  26
HETATM   26  C   UNL     1      -9.929   7.642  66.933  1.00  0.00    -0.325 C  
BRANCH  26  27
HETATM   27  C   UNL     1     -10.829   6.435  67.187  1.00  0.00    -0.467 C  
HETATM   28  C   UNL     1     -10.884   6.101  68.668  1.00  0.00    -0.403 C  
ENDBRANCH  26  27
ENDBRANCH  25  26
ENDBRANCH  24  25
ENDBRANCH  21  24
ENDBRANCH  20  21
ENDBRANCH  16  19
ENDBRANCH   9  10
ENDBRANCH   2   9
TORSDOF 11
ENDMDL
MODEL      181
REMARK 921   NORMALIZED FREE ENERGY PREDICTED BY IDOCK:   -3.87 KCAL/MOL
REMARK 922        TOTAL FREE ENERGY PREDICTED BY IDOCK:   -8.76 KCAL/MOL
REMARK 923 INTER-LIGAND FREE ENERGY PREDICTED BY IDOCK:   -7.01 KCAL/MOL
REMARK 924 INTRA-LIGAND FREE ENERGY PREDICTED BY IDOCK:   -1.74 KCAL/MOL
REMARK 927      BINDING AFFINITY PREDICTED BY RF-SCORE:    0.00 PKD
ROOT
HETATM    1  C   UNL     1     -11.430  11.722  67.510  1.00  0.00    -0.373 C  
HETATM    2  C   UNL     1     -11.672  10.814  68.467  1.00  0.00    -0.259 C  
ENDROOT
BRANCH   1   3
HETATM    3  C   UNL     1     -11.065  13.166  67.719  1.00  0.00    -0.287 C  
BRANCH   3   4
HETATM    4  C   UNL     1     -12.096  13.890  68.587  1.00  0.00    -0.337 C  
BRANCH   4   5
HETATM    5  C   UNL     1     -11.457  14.963  69.469  1.00  0.00    -0.325 C  
HETATM    6  O   UNL     1     -11.695  16.171  71.503  1.00  0.00    -0.455 OA 
HETATM    7  C   UNL     1     -12.266  15.230  70.714  1.00  0.00    -0.360 C  
HETATM    8  O   UNL     1     -13.311  14.673  71.012  1.00  0.00    -0.374 OA 
ENDBRANCH   4   5
ENDBRANCH   3   4
ENDBRANCH   1   3
BRANCH   2   9
HETATM    9  C   UNL     1     -11.689  11.064  69.951  1.00  0.00    -0.424 C  
BRANCH   9  10
HETATM   10  C   UNL     1     -11.156   9.923  70.832  1.00  0.00    -0.418 C  
HETATM   11  H   UNL     1     -11.739   6.342  69.431  1.00  0.00     0.000 HD 
HETATM   12  C   UNL     1     -12.250   9.378  71.765  1.00  0.00    -0.390 C  
HETATM   13  O   UNL     1     -12.108   6.703  70.229  1.00  0.00    -0.350 OA 
HETATM   14  O   UNL     1     -13.472   9.152  71.065  1.00  0.00    -0.555 OA 
HETATM   15  C   UNL     1     -11.700   8.033  72.209  1.00  0.00    -0.428 C  
HETATM   16  C   UNL     1     -10.669   8.663  70.063  1.00  0.00    -0.233 C  
HETATM   17  H   UNL     1     -14.148   8.816  71.642  1.00  0.00     0.000 HD 
HETATM   18  C   UNL     1     -11.108   7.451  70.926  1.00  0.00    -0.263 C  
BRANCH  16  19
HETATM   19  C   UNL     1      -9.187   8.665  69.772  1.00  0.00    -0.154 C  
HETATM   20  C   UNL     1      -8.325   9.630  70.140  1.00  0.00    -0.221 C  
BRANCH  20  21
HETATM   21  C   UNL     1      -6.861   9.683  69.799  1.00  0.00    -0.070 C  
HETATM   22  O   UNL     1      -6.540   8.674  68.848  1.00  0.00    -0.051 OA 
HETATM   23  H   UNL     1      -5.616   8.706  68.632  1.00  0.00     0.000 HD 
BRANCH  21  24
HETATM   24  C   UNL     1      -6.464  11.042  69.212  1.00  0.00    -0.079 C  
BRANCH  24  25
HETATM   25  C   UNL     1      -7.593  11.802  68.507  1.00  0.00    -0.131 C  
BRANCH  25  26
HETATM   26  C   UNL     1      -7.081  12.876  67.549  1.00  0.00    -0.153 C  
BRANCH  26  27
HETATM   27  C   UNL     1      -7.498  14.275  67.999  1.00  0.00    -0.144 C  
HETATM   28  C   UNL     1      -6.361  15.266  67.811  1.00  0.00    -0.181 C  
ENDBRANCH  26  27
ENDBRANCH  25  26
ENDBRANCH  24  25
ENDBRANCH  21  24
ENDBRANCH  20  21
ENDBRANCH  16  19
ENDBRANCH   9  10
ENDBRANCH   2   9
TORSDOF 11
ENDMDL
MODEL      182
REMARK 921   NORMALIZED FREE ENERGY PREDICTED BY IDOCK:   -3.87 KCAL/MOL
REMARK 922        TOTAL FREE ENERGY PREDICTED BY IDOCK:   -8.75 KCAL/MOL
REMARK 923 INTER-LIGAND FREE ENERGY PREDICTED BY IDOCK:   -7.30 KCAL/MOL
REMARK 924 INTRA-LIGAND FREE ENERGY PREDICTED BY IDOCK:   -1.45 KCAL/MOL
REMARK 927      BINDING AFFINITY PREDICTED BY RF-SCORE:    0.00 PKD
ROOT
HETATM    1  C   UNL     1      -9.250  10.652  68.220  1.00  0.00    -0.153 C  
HETATM    2  C   UNL     1      -9.290  11.810  67.545  1.00  0.00    -0.174 C  
ENDROOT
BRANCH   1   3
HETATM    3  C   UNL     1     -10.428   9.880  68.745  1.00  0.00    -0.234 C  
BRANCH   3   4
HETATM    4  C   UNL     1     -10.951  10.469  70.056  1.00  0.00    -0.351 C  
BRANCH   4   5
HETATM    5  C   UNL     1     -11.666   9.425  70.914  1.00  0.00    -0.378 C  
HETATM    6  O   UNL     1     -13.471   9.090  72.425  1.00  0.00    -0.430 OA 
HETATM    7  C   UNL     1     -12.828  10.015  71.674  1.00  0.00    -0.440 C  
HETATM    8  O   UNL     1     -13.182  11.183  71.631  1.00  0.00    -0.418 OA 
ENDBRANCH   4   5
ENDBRANCH   3   4
ENDBRANCH   1   3
BRANCH   2   9
HETATM    9  C   UNL     1     -10.523  12.613  67.225  1.00  0.00    -0.237 C  
BRANCH   9  10
HETATM   10  C   UNL     1     -10.407  14.133  67.425  1.00  0.00    -0.256 C  
HETATM   11  H   UNL     1     -10.062  15.292  71.121  1.00  0.00     0.000 HD 
HETATM   12  C   UNL     1     -11.781  14.766  67.701  1.00  0.00    -0.341 C  
HETATM   13  O   UNL     1     -10.783  15.486  70.534  1.00  0.00    -0.320 OA 
HETATM   14  O   UNL     1     -12.513  14.029  68.678  1.00  0.00    -0.494 OA 
HETATM   15  C   UNL     1     -11.433  16.123  68.291  1.00  0.00    -0.259 C  
HETATM   16  C   UNL     1      -9.547  14.578  68.639  1.00  0.00    -0.219 C  
HETATM   17  H   UNL     1     -13.361  14.421  68.849  1.00  0.00     0.000 HD 
HETATM   18  C   UNL     1     -10.274  15.811  69.237  1.00  0.00    -0.248 C  
BRANCH  16  19
HETATM   19  C   UNL     1      -8.105  14.864  68.289  1.00  0.00    -0.132 C  
HETATM   20  C   UNL     1      -7.480  16.041  68.476  1.00  0.00    -0.156 C  
BRANCH  20  21
HETATM   21  C   UNL     1      -6.069  16.364  68.070  1.00  0.00    -0.118 C  
HETATM   22  O   UNL     1      -5.465  15.236  67.447  1.00  0.00    -0.338 OA 
HETATM   23  H   UNL     1      -4.573  15.440  67.191  1.00  0.00     0.000 HD 
BRANCH  21  24
HETATM   24  C   UNL     1      -6.016  17.542  67.091  1.00  0.00    -0.164 C  
BRANCH  24  25
HETATM   25  C   UNL     1      -7.338  17.858  66.382  1.00  0.00    -0.300 C  
BRANCH  25  26
HETATM   26  C   UNL     1      -7.820  19.286  66.631  1.00  0.00    -0.284 C  
BRANCH  26  27
HETATM   27  C   UNL     1      -8.257  19.487  68.080  1.00  0.00    -0.352 C  
HETATM   28  C   UNL     1      -9.763  19.667  68.173  1.00  0.00    -0.503 C  
ENDBRANCH  26  27
ENDBRANCH  25  26
ENDBRANCH  24  25
ENDBRANCH  21  24
ENDBRANCH  20  21
ENDBRANCH  16  19
ENDBRANCH   9  10
ENDBRANCH   2   9
TORSDOF 11
ENDMDL
MODEL      183
REMARK 921   NORMALIZED FREE ENERGY PREDICTED BY IDOCK:   -3.86 KCAL/MOL
REMARK 922        TOTAL FREE ENERGY PREDICTED BY IDOCK:   -8.74 KCAL/MOL
REMARK 923 INTER-LIGAND FREE ENERGY PREDICTED BY IDOCK:   -7.28 KCAL/MOL
REMARK 924 INTRA-LIGAND FREE ENERGY PREDICTED BY IDOCK:   -1.46 KCAL/MOL
REMARK 927      BINDING AFFINITY PREDICTED BY RF-SCORE:    0.00 PKD
ROOT
HETATM    1  C   UNL     1     -11.436  14.814  67.850  1.00  0.00    -0.361 C  
HETATM    2  C   UNL     1     -11.470  15.565  68.960  1.00  0.00    -0.361 C  
ENDROOT
BRANCH   1   3
HETATM    3  C   UNL     1     -10.553  13.622  67.602  1.00  0.00    -0.245 C  
BRANCH   3   4
HETATM    4  C   UNL     1      -9.072  13.976  67.749  1.00  0.00    -0.192 C  
BRANCH   4   5
HETATM    5  C   UNL     1      -8.213  12.750  68.057  1.00  0.00    -0.168 C  
HETATM    6  O   UNL     1      -6.053  12.044  68.756  1.00  0.00    -0.054 OA 
HETATM    7  C   UNL     1      -6.812  13.128  68.470  1.00  0.00    -0.099 C  
HETATM    8  O   UNL     1      -6.383  14.268  68.557  1.00  0.00    -0.081 OA 
ENDBRANCH   4   5
ENDBRANCH   3   4
ENDBRANCH   1   3
BRANCH   2   9
HETATM    9  C   UNL     1     -10.588  15.410  70.169  1.00  0.00    -0.314 C  
BRANCH   9  10
HETATM   10  C   UNL     1     -11.253  14.802  71.415  1.00  0.00    -0.011 C  
HETATM   11  H   UNL     1     -15.076  15.446  71.727  1.00  0.00     0.000 HD 
HETATM   12  C   UNL     1     -11.323  15.820  72.565  1.00  0.00    -0.047 C  
HETATM   13  O   UNL     1     -14.401  15.760  72.316  1.00  0.00    -0.494 OA 
HETATM   14  O   UNL     1     -11.802  17.087  72.117  1.00  0.00    -0.388 OA 
HETATM   15  C   UNL     1     -12.361  15.225  73.503  1.00  0.00    -0.653 C  
HETATM   16  C   UNL     1     -12.731  14.358  71.227  1.00  0.00    -0.414 C  
HETATM   17  H   UNL     1     -11.845  17.716  72.828  1.00  0.00     0.000 HD 
HETATM   18  C   UNL     1     -13.447  14.720  72.554  1.00  0.00    -0.446 C  
BRANCH  16  19
HETATM   19  C   UNL     1     -12.885  12.901  70.860  1.00  0.00    -0.203 C  
HETATM   20  C   UNL     1     -11.873  12.063  70.572  1.00  0.00    -0.215 C  
BRANCH  20  21
HETATM   21  C   UNL     1     -12.012  10.629  70.137  1.00  0.00    -0.334 C  
HETATM   22  O   UNL     1     -12.386  10.564  68.766  1.00  0.00    -0.790 OA 
HETATM   23  H   UNL     1     -12.474   9.659  68.491  1.00  0.00     0.000 HD 
BRANCH  21  24
HETATM   24  C   UNL     1     -10.703   9.852  70.318  1.00  0.00    -0.367 C  
BRANCH  24  25
HETATM   25  C   UNL     1     -10.461   8.739  69.292  1.00  0.00    -0.228 C  
BRANCH  25  26
HETATM   26  C   UNL     1      -9.614   7.593  69.846  1.00  0.00    -0.160 C  
BRANCH  26  27
HETATM   27  C   UNL     1     -10.350   6.258  69.759  1.00  0.00    -0.260 C  
HETATM   28  C   UNL     1     -11.760   6.378  70.311  1.00  0.00    -0.389 C  
ENDBRANCH  26  27
ENDBRANCH  25  26
ENDBRANCH  24  25
ENDBRANCH  21  24
ENDBRANCH  20  21
ENDBRANCH  16  19
ENDBRANCH   9  10
ENDBRANCH   2   9
TORSDOF 11
ENDMDL
MODEL      184
REMARK 921   NORMALIZED FREE ENERGY PREDICTED BY IDOCK:   -3.86 KCAL/MOL
REMARK 922        TOTAL FREE ENERGY PREDICTED BY IDOCK:   -8.73 KCAL/MOL
REMARK 923 INTER-LIGAND FREE ENERGY PREDICTED BY IDOCK:   -7.21 KCAL/MOL
REMARK 924 INTRA-LIGAND FREE ENERGY PREDICTED BY IDOCK:   -1.52 KCAL/MOL
REMARK 927      BINDING AFFINITY PREDICTED BY RF-SCORE:    0.00 PKD
ROOT
HETATM    1  C   UNL     1      -7.571  11.134  68.579  1.00  0.00    -0.120 C  
HETATM    2  C   UNL     1      -8.043  12.024  67.693  1.00  0.00    -0.155 C  
ENDROOT
BRANCH   1   3
HETATM    3  C   UNL     1      -8.384  10.301  69.531  1.00  0.00    -0.162 C  
BRANCH   3   4
HETATM    4  C   UNL     1      -8.154   8.805  69.310  1.00  0.00    -0.110 C  
BRANCH   4   5
HETATM    5  C   UNL     1      -8.625   8.346  67.929  1.00  0.00    -0.131 C  
HETATM    6  O   UNL     1     -10.501   7.550  66.705  1.00  0.00    -0.305 OA 
HETATM    7  C   UNL     1     -10.078   7.945  67.930  1.00  0.00    -0.191 C  
HETATM    8  O   UNL     1     -10.819   7.970  68.901  1.00  0.00    -0.119 OA 
ENDBRANCH   4   5
ENDBRANCH   3   4
ENDBRANCH   1   3
BRANCH   2   9
HETATM    9  C   UNL     1      -9.483  12.419  67.508  1.00  0.00    -0.187 C  
BRANCH   9  10
HETATM   10  C   UNL     1      -9.833  13.079  66.164  1.00  0.00    -0.275 C  
HETATM   11  H   UNL     1     -13.625  13.177  65.308  1.00  0.00     0.000 HD 
HETATM   12  C   UNL     1      -9.944  12.036  65.040  1.00  0.00    -0.233 C  
HETATM   13  O   UNL     1     -12.951  12.707  64.831  1.00  0.00    -0.830 OA 
HETATM   14  O   UNL     1     -10.723  10.912  65.442  1.00  0.00    -0.219 OA 
HETATM   15  C   UNL     1     -10.699  12.773  63.947  1.00  0.00    -0.443 C  
HETATM   16  C   UNL     1     -11.203  13.811  66.122  1.00  0.00    -0.301 C  
HETATM   17  H   UNL     1     -10.791  10.267  64.747  1.00  0.00     0.000 HD 
HETATM   18  C   UNL     1     -11.785  13.527  64.713  1.00  0.00    -0.370 C  
BRANCH  16  19
HETATM   19  C   UNL     1     -11.112  15.287  66.429  1.00  0.00    -0.273 C  
HETATM   20  C   UNL     1     -10.327  16.167  65.782  1.00  0.00    -0.398 C  
BRANCH  20  21
HETATM   21  C   UNL     1     -10.171  17.625  66.119  1.00  0.00    -0.343 C  
HETATM   22  O   UNL     1     -10.977  18.419  65.256  1.00  0.00    -0.563 OA 
HETATM   23  H   UNL     1     -10.879  19.339  65.468  1.00  0.00     0.000 HD 
BRANCH  21  24
HETATM   24  C   UNL     1     -10.580  17.919  67.567  1.00  0.00    -0.386 C  
BRANCH  24  25
HETATM   25  C   UNL     1      -9.416  18.114  68.545  1.00  0.00    -0.339 C  
BRANCH  25  26
HETATM   26  C   UNL     1      -8.233  18.853  67.922  1.00  0.00    -0.305 C  
BRANCH  26  27
HETATM   27  C   UNL     1      -6.903  18.202  68.298  1.00  0.00    -0.229 C  
HETATM   28  C   UNL     1      -7.127  16.966  69.153  1.00  0.00    -0.224 C  
ENDBRANCH  26  27
ENDBRANCH  25  26
ENDBRANCH  24  25
ENDBRANCH  21  24
ENDBRANCH  20  21
ENDBRANCH  16  19
ENDBRANCH   9  10
ENDBRANCH   2   9
TORSDOF 11
ENDMDL
MODEL      185
REMARK 921   NORMALIZED FREE ENERGY PREDICTED BY IDOCK:   -3.85 KCAL/MOL
REMARK 922        TOTAL FREE ENERGY PREDICTED BY IDOCK:   -8.72 KCAL/MOL
REMARK 923 INTER-LIGAND FREE ENERGY PREDICTED BY IDOCK:   -6.64 KCAL/MOL
REMARK 924 INTRA-LIGAND FREE ENERGY PREDICTED BY IDOCK:   -2.08 KCAL/MOL
REMARK 927      BINDING AFFINITY PREDICTED BY RF-SCORE:    0.00 PKD
ROOT
HETATM    1  C   UNL     1     -11.433  11.266  68.492  1.00  0.00    -0.372 C  
HETATM    2  C   UNL     1     -10.749  10.332  69.170  1.00  0.00    -0.259 C  
ENDROOT
BRANCH   1   3
HETATM    3  C   UNL     1     -11.400  11.497  67.007  1.00  0.00    -0.340 C  
BRANCH   3   4
HETATM    4  C   UNL     1      -9.980  11.777  66.510  1.00  0.00    -0.229 C  
BRANCH   4   5
HETATM    5  C   UNL     1      -9.593  13.247  66.669  1.00  0.00    -0.262 C  
HETATM    6  O   UNL     1      -8.211  14.749  67.888  1.00  0.00    -0.135 OA 
HETATM    7  C   UNL     1      -8.566  13.450  67.755  1.00  0.00    -0.194 C  
HETATM    8  O   UNL     1      -8.082  12.565  68.445  1.00  0.00    -0.151 OA 
ENDBRANCH   4   5
ENDBRANCH   3   4
ENDBRANCH   1   3
BRANCH   2   9
HETATM    9  C   UNL     1      -9.757   9.359  68.593  1.00  0.00    -0.160 C  
BRANCH   9  10
HETATM   10  C   UNL     1     -10.259   7.918  68.404  1.00  0.00    -0.232 C  
HETATM   11  H   UNL     1      -7.614   5.410  67.049  1.00  0.00     0.000 HD 
HETATM   12  C   UNL     1     -10.740   7.678  66.964  1.00  0.00    -0.270 C  
HETATM   13  O   UNL     1      -8.412   5.680  66.611  1.00  0.00    -0.112 OA 
HETATM   14  O   UNL     1      -9.808   8.179  66.008  1.00  0.00    -0.456 OA 
HETATM   15  C   UNL     1     -10.771   6.163  66.848  1.00  0.00    -0.413 C  
HETATM   16  C   UNL     1      -9.193   6.810  68.624  1.00  0.00    -0.132 C  
HETATM   17  H   UNL     1     -10.105   8.031  65.118  1.00  0.00     0.000 HD 
HETATM   18  C   UNL     1      -9.487   5.728  67.553  1.00  0.00    -0.112 C  
BRANCH  16  19
HETATM   19  C   UNL     1      -9.179   6.251  70.028  1.00  0.00    -0.157 C  
HETATM   20  C   UNL     1     -10.106   5.424  70.543  1.00  0.00    -0.306 C  
BRANCH  20  21
HETATM   21  C   UNL     1     -10.145   4.915  71.958  1.00  0.00    -0.196 C  
HETATM   22  O   UNL     1      -8.854   5.004  72.550  1.00  0.00    -0.122 OA 
HETATM   23  H   UNL     1      -8.878   4.683  73.443  1.00  0.00     0.000 HD 
BRANCH  21  24
HETATM   24  C   UNL     1     -11.128   5.714  72.821  1.00  0.00    -0.334 C  
BRANCH  24  25
HETATM   25  C   UNL     1     -10.593   7.050  73.348  1.00  0.00    -0.399 C  
BRANCH  25  26
HETATM   26  C   UNL     1     -10.986   8.237  72.470  1.00  0.00    -0.424 C  
BRANCH  26  27
HETATM   27  C   UNL     1     -12.348   8.022  71.811  1.00  0.00    -0.352 C  
HETATM   28  C   UNL     1     -13.283   9.183  72.107  1.00  0.00    -0.524 C  
ENDBRANCH  26  27
ENDBRANCH  25  26
ENDBRANCH  24  25
ENDBRANCH  21  24
ENDBRANCH  20  21
ENDBRANCH  16  19
ENDBRANCH   9  10
ENDBRANCH   2   9
TORSDOF 11
ENDMDL
MODEL      186
REMARK 921   NORMALIZED FREE ENERGY PREDICTED BY IDOCK:   -3.85 KCAL/MOL
REMARK 922        TOTAL FREE ENERGY PREDICTED BY IDOCK:   -8.71 KCAL/MOL
REMARK 923 INTER-LIGAND FREE ENERGY PREDICTED BY IDOCK:   -7.28 KCAL/MOL
REMARK 924 INTRA-LIGAND FREE ENERGY PREDICTED BY IDOCK:   -1.44 KCAL/MOL
REMARK 927      BINDING AFFINITY PREDICTED BY RF-SCORE:    0.00 PKD
ROOT
HETATM    1  C   UNL     1      -7.518  20.379  67.099  1.00  0.00    -0.358 C  
HETATM    2  C   UNL     1      -7.236  20.086  68.378  1.00  0.00    -0.297 C  
ENDROOT
BRANCH   1   3
HETATM    3  C   UNL     1      -8.385  19.578  66.168  1.00  0.00    -0.333 C  
BRANCH   3   4
HETATM    4  C   UNL     1      -9.811  19.439  66.702  1.00  0.00    -0.462 C  
BRANCH   4   5
HETATM    5  C   UNL     1     -10.783  18.942  65.633  1.00  0.00    -0.214 C  
HETATM    6  O   UNL     1     -11.381  17.063  64.304  1.00  0.00    -1.191 OA 
HETATM    7  C   UNL     1     -10.513  17.510  65.242  1.00  0.00     0.205 C  
HETATM    8  O   UNL     1      -9.630  16.805  65.705  1.00  0.00    -0.527 OA 
ENDBRANCH   4   5
ENDBRANCH   3   4
ENDBRANCH   1   3
BRANCH   2   9
HETATM    9  C   UNL     1      -7.680  18.861  69.131  1.00  0.00    -0.181 C  
BRANCH   9  10
HETATM   10  C   UNL     1      -7.403  17.513  68.447  1.00  0.00    -0.230 C  
HETATM   11  H   UNL     1      -6.669  14.554  70.862  1.00  0.00     0.000 HD 
HETATM   12  C   UNL     1      -5.895  17.288  68.244  1.00  0.00    -0.140 C  
HETATM   13  O   UNL     1      -6.068  14.929  70.230  1.00  0.00    -0.148 OA 
HETATM   14  O   UNL     1      -5.156  17.590  69.426  1.00  0.00    -0.164 OA 
HETATM   15  C   UNL     1      -5.791  15.794  67.987  1.00  0.00    -0.147 C  
HETATM   16  C   UNL     1      -7.856  16.259  69.244  1.00  0.00    -0.179 C  
HETATM   17  H   UNL     1      -4.224  17.451  69.301  1.00  0.00     0.000 HD 
HETATM   18  C   UNL     1      -6.758  15.191  69.005  1.00  0.00    -0.120 C  
BRANCH  16  19
HETATM   19  C   UNL     1      -9.236  15.770  68.872  1.00  0.00    -0.227 C  
HETATM   20  C   UNL     1     -10.288  15.704  69.708  1.00  0.00    -0.309 C  
BRANCH  20  21
HETATM   21  C   UNL     1     -11.648  15.155  69.373  1.00  0.00    -0.323 C  
HETATM   22  O   UNL     1     -12.664  16.029  69.852  1.00  0.00    -0.568 OA 
HETATM   23  H   UNL     1     -13.522  15.683  69.641  1.00  0.00     0.000 HD 
BRANCH  21  24
HETATM   24  C   UNL     1     -11.834  14.982  67.861  1.00  0.00    -0.243 C  
BRANCH  24  25
HETATM   25  C   UNL     1     -11.705  13.542  67.351  1.00  0.00    -0.419 C  
BRANCH  25  26
HETATM   26  C   UNL     1     -10.557  13.363  66.359  1.00  0.00    -0.285 C  
BRANCH  26  27
HETATM   27  C   UNL     1      -9.389  12.601  66.983  1.00  0.00    -0.220 C  
HETATM   28  C   UNL     1      -9.831  11.857  68.232  1.00  0.00    -0.199 C  
ENDBRANCH  26  27
ENDBRANCH  25  26
ENDBRANCH  24  25
ENDBRANCH  21  24
ENDBRANCH  20  21
ENDBRANCH  16  19
ENDBRANCH   9  10
ENDBRANCH   2   9
TORSDOF 11
ENDMDL
MODEL      187
REMARK 921   NORMALIZED FREE ENERGY PREDICTED BY IDOCK:   -3.84 KCAL/MOL
REMARK 922        TOTAL FREE ENERGY PREDICTED BY IDOCK:   -8.71 KCAL/MOL
REMARK 923 INTER-LIGAND FREE ENERGY PREDICTED BY IDOCK:   -6.74 KCAL/MOL
REMARK 924 INTRA-LIGAND FREE ENERGY PREDICTED BY IDOCK:   -1.97 KCAL/MOL
REMARK 927      BINDING AFFINITY PREDICTED BY RF-SCORE:    0.00 PKD
ROOT
HETATM    1  C   UNL     1     -12.013  12.874  66.964  1.00  0.00    -0.390 C  
HETATM    2  C   UNL     1     -11.418  13.089  68.147  1.00  0.00    -0.356 C  
ENDROOT
BRANCH   1   3
HETATM    3  C   UNL     1     -11.439  12.117  65.798  1.00  0.00    -0.414 C  
BRANCH   3   4
HETATM    4  C   UNL     1     -10.833  13.059  64.756  1.00  0.00    -0.357 C  
BRANCH   4   5
HETATM    5  C   UNL     1     -11.881  13.981  64.132  1.00  0.00    -0.393 C  
HETATM    6  O   UNL     1     -12.503  16.255  63.830  1.00  0.00    -0.774 OA 
HETATM    7  C   UNL     1     -11.584  15.436  64.393  1.00  0.00    -0.264 C  
HETATM    8  O   UNL     1     -10.628  15.861  65.024  1.00  0.00    -0.497 OA 
ENDBRANCH   4   5
ENDBRANCH   3   4
ENDBRANCH   1   3
BRANCH   2   9
HETATM    9  C   UNL     1     -10.026  12.670  68.534  1.00  0.00    -0.166 C  
BRANCH   9  10
HETATM   10  C   UNL     1      -8.887  13.239  67.672  1.00  0.00    -0.200 C  
HETATM   11  H   UNL     1      -5.419  13.417  69.424  1.00  0.00     0.000 HD 
HETATM   12  C   UNL     1      -8.711  14.749  67.903  1.00  0.00    -0.167 C  
HETATM   13  O   UNL     1      -5.936  14.154  69.118  1.00  0.00    -0.087 OA 
HETATM   14  O   UNL     1      -8.708  15.072  69.292  1.00  0.00    -0.277 OA 
HETATM   15  C   UNL     1      -7.327  15.034  67.345  1.00  0.00    -0.231 C  
HETATM   16  C   UNL     1      -7.477  12.657  67.968  1.00  0.00    -0.120 C  
HETATM   17  H   UNL     1      -8.600  16.005  69.434  1.00  0.00     0.000 HD 
HETATM   18  C   UNL     1      -6.496  13.850  67.837  1.00  0.00    -0.162 C  
BRANCH  16  19
HETATM   19  C   UNL     1      -7.102  11.494  67.079  1.00  0.00    -0.147 C  
HETATM   20  C   UNL     1      -7.859  11.005  66.081  1.00  0.00    -0.117 C  
BRANCH  20  21
HETATM   21  C   UNL     1      -7.534   9.806  65.233  1.00  0.00    -0.120 C  
HETATM   22  O   UNL     1      -6.189   9.396  65.454  1.00  0.00    -0.062 OA 
HETATM   23  H   UNL     1      -5.983   8.639  64.919  1.00  0.00     0.000 HD 
BRANCH  21  24
HETATM   24  C   UNL     1      -8.457   8.622  65.545  1.00  0.00    -0.181 C  
BRANCH  24  25
HETATM   25  C   UNL     1      -9.842   9.002  66.082  1.00  0.00    -0.349 C  
BRANCH  25  26
HETATM   26  C   UNL     1      -9.964   8.821  67.594  1.00  0.00    -0.247 C  
BRANCH  26  27
HETATM   27  C   UNL     1     -10.023   7.344  67.981  1.00  0.00    -0.195 C  
HETATM   28  C   UNL     1     -10.866   6.558  66.991  1.00  0.00    -0.465 C  
ENDBRANCH  26  27
ENDBRANCH  25  26
ENDBRANCH  24  25
ENDBRANCH  21  24
ENDBRANCH  20  21
ENDBRANCH  16  19
ENDBRANCH   9  10
ENDBRANCH   2   9
TORSDOF 11
ENDMDL
MODEL      188
REMARK 921   NORMALIZED FREE ENERGY PREDICTED BY IDOCK:   -3.83 KCAL/MOL
REMARK 922        TOTAL FREE ENERGY PREDICTED BY IDOCK:   -8.69 KCAL/MOL
REMARK 923 INTER-LIGAND FREE ENERGY PREDICTED BY IDOCK:   -7.33 KCAL/MOL
REMARK 924 INTRA-LIGAND FREE ENERGY PREDICTED BY IDOCK:   -1.36 KCAL/MOL
REMARK 927      BINDING AFFINITY PREDICTED BY RF-SCORE:    0.00 PKD
ROOT
HETATM    1  C   UNL     1     -12.381  13.398  67.179  1.00  0.00    -0.198 C  
HETATM    2  C   UNL     1     -12.044  13.179  65.899  1.00  0.00    -0.501 C  
ENDROOT
BRANCH   1   3
HETATM    3  C   UNL     1     -11.443  13.458  68.353  1.00  0.00    -0.351 C  
BRANCH   3   4
HETATM    4  C   UNL     1     -11.992  14.348  69.469  1.00  0.00    -0.376 C  
BRANCH   4   5
HETATM    5  C   UNL     1     -12.309  13.555  70.737  1.00  0.00    -0.440 C  
HETATM    6  O   UNL     1     -13.724  13.468  72.645  1.00  0.00    -0.681 OA 
HETATM    7  C   UNL     1     -13.434  14.175  71.528  1.00  0.00    -0.344 C  
HETATM    8  O   UNL     1     -14.040  15.190  71.220  1.00  0.00    -0.462 OA 
ENDBRANCH   4   5
ENDBRANCH   3   4
ENDBRANCH   1   3
BRANCH   2   9
HETATM    9  C   UNL     1     -10.663  12.888  65.377  1.00  0.00    -0.307 C  
BRANCH   9  10
HETATM   10  C   UNL     1     -10.331  11.406  65.141  1.00  0.00    -0.344 C  
HETATM   11  H   UNL     1      -6.539  10.543  65.125  1.00  0.00     0.000 HD 
HETATM   12  C   UNL     1     -10.064  11.122  63.654  1.00  0.00    -0.379 C  
HETATM   13  O   UNL     1      -7.139  10.462  64.393  1.00  0.00    -0.101 OA 
HETATM   14  O   UNL     1      -9.186  12.090  63.084  1.00  0.00    -0.662 OA 
HETATM   15  C   UNL     1      -9.347   9.782  63.672  1.00  0.00    -0.154 C  
HETATM   16  C   UNL     1      -9.046  10.893  65.849  1.00  0.00    -0.212 C  
HETATM   17  H   UNL     1      -9.021  11.915  62.164  1.00  0.00     0.000 HD 
HETATM   18  C   UNL     1      -8.380   9.914  64.848  1.00  0.00    -0.150 C  
BRANCH  16  19
HETATM   19  C   UNL     1      -9.306  10.262  67.196  1.00  0.00    -0.175 C  
HETATM   20  C   UNL     1      -8.935  10.781  68.381  1.00  0.00    -0.153 C  
BRANCH  20  21
HETATM   21  C   UNL     1      -9.123  10.134  69.726  1.00  0.00    -0.136 C  
HETATM   22  O   UNL     1     -10.292  10.643  70.358  1.00  0.00    -0.354 OA 
HETATM   23  H   UNL     1     -10.411  10.234  71.207  1.00  0.00     0.000 HD 
BRANCH  21  24
HETATM   24  C   UNL     1      -9.262   8.612  69.608  1.00  0.00    -0.157 C  
BRANCH  24  25
HETATM   25  C   UNL     1     -10.066   7.943  70.729  1.00  0.00    -0.201 C  
BRANCH  25  26
HETATM   26  C   UNL     1      -9.364   8.007  72.085  1.00  0.00    -0.251 C  
BRANCH  26  27
HETATM   27  C   UNL     1      -8.298   6.920  72.217  1.00  0.00    -0.106 C  
HETATM   28  C   UNL     1      -8.767   5.621  71.583  1.00  0.00    -0.136 C  
ENDBRANCH  26  27
ENDBRANCH  25  26
ENDBRANCH  24  25
ENDBRANCH  21  24
ENDBRANCH  20  21
ENDBRANCH  16  19
ENDBRANCH   9  10
ENDBRANCH   2   9
TORSDOF 11
ENDMDL
MODEL      189
REMARK 921   NORMALIZED FREE ENERGY PREDICTED BY IDOCK:   -3.83 KCAL/MOL
REMARK 922        TOTAL FREE ENERGY PREDICTED BY IDOCK:   -8.68 KCAL/MOL
REMARK 923 INTER-LIGAND FREE ENERGY PREDICTED BY IDOCK:   -7.72 KCAL/MOL
REMARK 924 INTRA-LIGAND FREE ENERGY PREDICTED BY IDOCK:   -0.97 KCAL/MOL
REMARK 927      BINDING AFFINITY PREDICTED BY RF-SCORE:    0.00 PKD
ROOT
HETATM    1  C   UNL     1      -9.307  14.522  66.610  1.00  0.00    -0.301 C  
HETATM    2  C   UNL     1      -8.491  13.785  67.379  1.00  0.00    -0.209 C  
ENDROOT
BRANCH   1   3
HETATM    3  C   UNL     1     -10.765  14.261  66.347  1.00  0.00    -0.297 C  
BRANCH   3   4
HETATM    4  C   UNL     1     -11.171  14.696  64.938  1.00  0.00    -0.400 C  
BRANCH   4   5
HETATM    5  C   UNL     1     -12.371  13.908  64.413  1.00  0.00    -0.400 C  
HETATM    6  O   UNL     1     -13.016  12.069  63.051  1.00  0.00    -0.540 OA 
HETATM    7  C   UNL     1     -11.955  12.777  63.506  1.00  0.00    -0.555 C  
HETATM    8  O   UNL     1     -10.805  12.497  63.206  1.00  0.00    -0.406 OA 
ENDBRANCH   4   5
ENDBRANCH   3   4
ENDBRANCH   1   3
BRANCH   2   9
HETATM    9  C   UNL     1      -8.848  12.509  68.091  1.00  0.00    -0.191 C  
BRANCH   9  10
HETATM   10  C   UNL     1      -9.637  11.477  67.269  1.00  0.00    -0.183 C  
HETATM   11  H   UNL     1      -8.311   7.827  67.488  1.00  0.00     0.000 HD 
HETATM   12  C   UNL     1      -9.010  11.270  65.881  1.00  0.00    -0.197 C  
HETATM   13  O   UNL     1      -8.336   8.373  66.711  1.00  0.00    -0.107 OA 
HETATM   14  O   UNL     1      -7.596  11.103  65.962  1.00  0.00    -0.312 OA 
HETATM   15  C   UNL     1      -9.618   9.960  65.409  1.00  0.00    -0.350 C  
HETATM   16  C   UNL     1      -9.679  10.044  67.869  1.00  0.00    -0.168 C  
HETATM   17  H   UNL     1      -7.209  10.975  65.103  1.00  0.00     0.000 HD 
HETATM   18  C   UNL     1      -9.578   9.081  66.658  1.00  0.00    -0.213 C  
BRANCH  16  19
HETATM   19  C   UNL     1     -10.897   9.780  68.724  1.00  0.00    -0.219 C  
HETATM   20  C   UNL     1     -11.057  10.191  69.995  1.00  0.00    -0.368 C  
BRANCH  20  21
HETATM   21  C   UNL     1     -12.231   9.878  70.882  1.00  0.00    -0.328 C  
HETATM   22  O   UNL     1     -11.862   8.920  71.867  1.00  0.00    -0.326 OA 
HETATM   23  H   UNL     1     -12.603   8.722  72.427  1.00  0.00     0.000 HD 
BRANCH  21  24
HETATM   24  C   UNL     1     -12.751  11.130  71.597  1.00  0.00    -0.466 C  
BRANCH  24  25
HETATM   25  C   UNL     1     -13.028  12.331  70.686  1.00  0.00     0.120 C  
BRANCH  25  26
HETATM   26  C   UNL     1     -12.056  13.488  70.912  1.00  0.00    -0.301 C  
BRANCH  26  27
HETATM   27  C   UNL     1     -12.636  14.814  70.424  1.00  0.00    -0.399 C  
HETATM   28  C   UNL     1     -13.522  15.442  71.487  1.00  0.00    -0.601 C  
ENDBRANCH  26  27
ENDBRANCH  25  26
ENDBRANCH  24  25
ENDBRANCH  21  24
ENDBRANCH  20  21
ENDBRANCH  16  19
ENDBRANCH   9  10
ENDBRANCH   2   9
TORSDOF 11
ENDMDL
MODEL      190
REMARK 921   NORMALIZED FREE ENERGY PREDICTED BY IDOCK:   -3.82 KCAL/MOL
REMARK 922        TOTAL FREE ENERGY PREDICTED BY IDOCK:   -8.66 KCAL/MOL
REMARK 923 INTER-LIGAND FREE ENERGY PREDICTED BY IDOCK:   -6.75 KCAL/MOL
REMARK 924 INTRA-LIGAND FREE ENERGY PREDICTED BY IDOCK:   -1.91 KCAL/MOL
REMARK 927      BINDING AFFINITY PREDICTED BY RF-SCORE:    0.00 PKD
ROOT
HETATM    1  C   UNL     1     -10.920   6.156  68.812  1.00  0.00    -0.421 C  
HETATM    2  C   UNL     1     -11.092   6.492  67.525  1.00  0.00    -0.396 C  
ENDROOT
BRANCH   1   3
HETATM    3  C   UNL     1      -9.610   5.877  69.497  1.00  0.00    -0.174 C  
BRANCH   3   4
HETATM    4  C   UNL     1      -9.638   4.544  70.247  1.00  0.00    -0.263 C  
BRANCH   4   5
HETATM    5  C   UNL     1      -8.287   3.830  70.207  1.00  0.00    -0.081 C  
HETATM    6  O   UNL     1      -7.052   2.117  69.116  1.00  0.00    -0.039 OA 
HETATM    7  C   UNL     1      -8.251   2.742  69.163  1.00  0.00    -0.054 C  
HETATM    8  O   UNL     1      -9.175   2.442  68.421  1.00  0.00    -0.161 OA 
ENDBRANCH   4   5
ENDBRANCH   3   4
ENDBRANCH   1   3
BRANCH   2   9
HETATM    9  C   UNL     1     -10.015   6.601  66.480  1.00  0.00    -0.148 C  
BRANCH   9  10
HETATM   10  C   UNL     1      -9.182   7.893  66.503  1.00  0.00    -0.238 C  
HETATM   11  H   UNL     1      -9.982  10.424  63.660  1.00  0.00     0.000 HD 
HETATM   12  C   UNL     1      -7.944   7.776  65.599  1.00  0.00    -0.118 C  
HETATM   13  O   UNL     1      -9.160   9.966  63.793  1.00  0.00    -0.236 OA 
HETATM   14  O   UNL     1      -8.273   7.229  64.324  1.00  0.00    -0.306 OA 
HETATM   15  C   UNL     1      -7.512   9.220  65.400  1.00  0.00    -0.098 C  
HETATM   16  C   UNL     1      -9.908   9.158  65.968  1.00  0.00    -0.342 C  
HETATM   17  H   UNL     1      -7.507   7.157  63.766  1.00  0.00     0.000 HD 
HETATM   18  C   UNL     1      -8.833   9.957  65.185  1.00  0.00    -0.180 C  
BRANCH  16  19
HETATM   19  C   UNL     1     -10.572   9.979  67.048  1.00  0.00    -0.279 C  
HETATM   20  C   UNL     1     -10.374   9.827  68.370  1.00  0.00    -0.230 C  
BRANCH  20  21
HETATM   21  C   UNL     1     -11.078  10.587  69.461  1.00  0.00    -0.268 C  
HETATM   22  O   UNL     1     -12.464  10.708  69.161  1.00  0.00    -0.752 OA 
HETATM   23  H   UNL     1     -12.909  11.187  69.850  1.00  0.00     0.000 HD 
BRANCH  21  24
HETATM   24  C   UNL     1     -10.936   9.891  70.819  1.00  0.00    -0.407 C  
BRANCH  24  25
HETATM   25  C   UNL     1     -12.251   9.663  71.574  1.00  0.00    -0.483 C  
BRANCH  25  26
HETATM   26  C   UNL     1     -12.196   8.464  72.519  1.00  0.00    -0.381 C  
BRANCH  26  27
HETATM   27  C   UNL     1     -10.921   7.647  72.316  1.00  0.00    -0.328 C  
HETATM   28  C   UNL     1     -10.541   6.910  73.589  1.00  0.00    -0.371 C  
ENDBRANCH  26  27
ENDBRANCH  25  26
ENDBRANCH  24  25
ENDBRANCH  21  24
ENDBRANCH  20  21
ENDBRANCH  16  19
ENDBRANCH   9  10
ENDBRANCH   2   9
TORSDOF 11
ENDMDL
MODEL      191
REMARK 921   NORMALIZED FREE ENERGY PREDICTED BY IDOCK:   -3.82 KCAL/MOL
REMARK 922        TOTAL FREE ENERGY PREDICTED BY IDOCK:   -8.66 KCAL/MOL
REMARK 923 INTER-LIGAND FREE ENERGY PREDICTED BY IDOCK:   -6.68 KCAL/MOL
REMARK 924 INTRA-LIGAND FREE ENERGY PREDICTED BY IDOCK:   -1.99 KCAL/MOL
REMARK 927      BINDING AFFINITY PREDICTED BY RF-SCORE:    0.00 PKD
ROOT
HETATM    1  C   UNL     1      -9.334   4.486  69.437  1.00  0.00    -0.217 C  
HETATM    2  C   UNL     1     -10.163   5.221  70.193  1.00  0.00    -0.350 C  
ENDROOT
BRANCH   1   3
HETATM    3  C   UNL     1      -9.385   4.333  67.942  1.00  0.00    -0.200 C  
BRANCH   3   4
HETATM    4  C   UNL     1      -8.171   4.973  67.267  1.00  0.00    -0.107 C  
BRANCH   4   5
HETATM    5  C   UNL     1      -8.551   6.203  66.442  1.00  0.00    -0.131 C  
HETATM    6  O   UNL     1      -8.146   7.343  64.396  1.00  0.00    -0.134 OA 
HETATM    7  C   UNL     1      -7.801   6.262  65.134  1.00  0.00    -0.109 C  
HETATM    8  O   UNL     1      -6.981   5.442  64.751  1.00  0.00    -0.048 OA 
ENDBRANCH   4   5
ENDBRANCH   3   4
ENDBRANCH   1   3
BRANCH   2   9
HETATM    9  C   UNL     1     -11.357   5.999  69.709  1.00  0.00    -0.344 C  
BRANCH   9  10
HETATM   10  C   UNL     1     -11.393   7.487  70.094  1.00  0.00    -0.170 C  
HETATM   11  H   UNL     1      -8.593   8.628  72.541  1.00  0.00     0.000 HD 
HETATM   12  C   UNL     1     -12.169   7.707  71.403  1.00  0.00    -0.326 C  
HETATM   13  O   UNL     1      -9.527   8.624  72.714  1.00  0.00    -0.220 OA 
HETATM   14  O   UNL     1     -11.775   6.777  72.411  1.00  0.00    -0.360 OA 
HETATM   15  C   UNL     1     -11.735   9.096  71.843  1.00  0.00    -0.436 C  
HETATM   16  C   UNL     1     -10.008   8.132  70.376  1.00  0.00    -0.190 C  
HETATM   17  H   UNL     1     -12.255   6.914  73.219  1.00  0.00     0.000 HD 
HETATM   18  C   UNL     1     -10.232   9.102  71.565  1.00  0.00    -0.333 C  
BRANCH  16  19
HETATM   19  C   UNL     1      -9.401   8.815  69.173  1.00  0.00    -0.149 C  
HETATM   20  C   UNL     1     -10.079   9.207  68.079  1.00  0.00    -0.238 C  
BRANCH  20  21
HETATM   21  C   UNL     1      -9.481   9.825  66.845  1.00  0.00    -0.160 C  
HETATM   22  O   UNL     1     -10.011   9.206  65.678  1.00  0.00    -0.447 OA 
HETATM   23  H   UNL     1      -9.633   9.595  64.898  1.00  0.00     0.000 HD 
BRANCH  21  24
HETATM   24  C   UNL     1      -9.769  11.328  66.766  1.00  0.00    -0.218 C  
BRANCH  24  25
HETATM   25  C   UNL     1     -11.250  11.701  66.633  1.00  0.00    -0.362 C  
BRANCH  25  26
HETATM   26  C   UNL     1     -11.667  12.828  67.576  1.00  0.00    -0.422 C  
BRANCH  26  27
HETATM   27  C   UNL     1     -11.997  14.108  66.812  1.00  0.00    -0.475 C  
HETATM   28  C   UNL     1     -12.460  13.792  65.399  1.00  0.00    -0.532 C  
ENDBRANCH  26  27
ENDBRANCH  25  26
ENDBRANCH  24  25
ENDBRANCH  21  24
ENDBRANCH  20  21
ENDBRANCH  16  19
ENDBRANCH   9  10
ENDBRANCH   2   9
TORSDOF 11
ENDMDL
MODEL      192
REMARK 921   NORMALIZED FREE ENERGY PREDICTED BY IDOCK:   -3.81 KCAL/MOL
REMARK 922        TOTAL FREE ENERGY PREDICTED BY IDOCK:   -8.65 KCAL/MOL
REMARK 923 INTER-LIGAND FREE ENERGY PREDICTED BY IDOCK:   -7.37 KCAL/MOL
REMARK 924 INTRA-LIGAND FREE ENERGY PREDICTED BY IDOCK:   -1.28 KCAL/MOL
REMARK 927      BINDING AFFINITY PREDICTED BY RF-SCORE:    0.00 PKD
ROOT
HETATM    1  C   UNL     1     -10.928   9.264  71.330  1.00  0.00    -0.421 C  
HETATM    2  C   UNL     1     -10.495   9.795  70.177  1.00  0.00    -0.338 C  
ENDROOT
BRANCH   1   3
HETATM    3  C   UNL     1     -10.108   8.480  72.317  1.00  0.00    -0.386 C  
BRANCH   3   4
HETATM    4  C   UNL     1     -10.825   7.202  72.758  1.00  0.00    -0.337 C  
BRANCH   4   5
HETATM    5  C   UNL     1     -10.083   5.941  72.314  1.00  0.00    -0.210 C  
HETATM    6  O   UNL     1     -10.179   3.566  72.284  1.00  0.00    -0.162 OA 
HETATM    7  C   UNL     1     -10.828   4.684  72.687  1.00  0.00    -0.148 C  
HETATM    8  O   UNL     1     -11.898   4.643  73.274  1.00  0.00    -0.249 OA 
ENDBRANCH   4   5
ENDBRANCH   3   4
ENDBRANCH   1   3
BRANCH   2   9
HETATM    9  C   UNL     1      -9.111   9.666  69.600  1.00  0.00    -0.224 C  
BRANCH   9  10
HETATM   10  C   UNL     1      -9.016   8.983  68.226  1.00  0.00    -0.133 C  
HETATM   11  H   UNL     1     -12.177   6.989  67.148  1.00  0.00     0.000 HD 
HETATM   12  C   UNL     1      -8.547   7.524  68.358  1.00  0.00    -0.124 C  
HETATM   13  O   UNL     1     -11.314   6.630  67.318  1.00  0.00    -0.324 OA 
HETATM   14  O   UNL     1      -9.255   6.836  69.387  1.00  0.00    -0.143 OA 
HETATM   15  C   UNL     1      -8.928   6.907  67.023  1.00  0.00    -0.124 C  
HETATM   16  C   UNL     1     -10.356   8.868  67.448  1.00  0.00    -0.337 C  
HETATM   17  H   UNL     1      -8.965   5.935  69.468  1.00  0.00     0.000 HD 
HETATM   18  C   UNL     1     -10.316   7.484  66.750  1.00  0.00    -0.262 C  
BRANCH  16  19
HETATM   19  C   UNL     1     -10.594  10.002  66.480  1.00  0.00    -0.165 C  
HETATM   20  C   UNL     1      -9.937  10.184  65.321  1.00  0.00    -0.381 C  
BRANCH  20  21
HETATM   21  C   UNL     1     -10.112  11.345  64.379  1.00  0.00    -0.291 C  
HETATM   22  O   UNL     1     -11.094  11.038  63.397  1.00  0.00    -0.668 OA 
HETATM   23  H   UNL     1     -11.205  11.770  62.802  1.00  0.00     0.000 HD 
BRANCH  21  24
HETATM   24  C   UNL     1     -10.550  12.614  65.119  1.00  0.00    -0.324 C  
BRANCH  24  25
HETATM   25  C   UNL     1     -12.062  12.867  65.138  1.00  0.00    -0.489 C  
BRANCH  25  26
HETATM   26  C   UNL     1     -12.503  13.749  66.305  1.00  0.00    -0.441 C  
BRANCH  26  27
HETATM   27  C   UNL     1     -11.308  14.265  67.103  1.00  0.00    -0.352 C  
HETATM   28  C   UNL     1     -11.766  15.089  68.296  1.00  0.00    -0.338 C  
ENDBRANCH  26  27
ENDBRANCH  25  26
ENDBRANCH  24  25
ENDBRANCH  21  24
ENDBRANCH  20  21
ENDBRANCH  16  19
ENDBRANCH   9  10
ENDBRANCH   2   9
TORSDOF 11
ENDMDL
MODEL      193
REMARK 921   NORMALIZED FREE ENERGY PREDICTED BY IDOCK:   -3.81 KCAL/MOL
REMARK 922        TOTAL FREE ENERGY PREDICTED BY IDOCK:   -8.65 KCAL/MOL
REMARK 923 INTER-LIGAND FREE ENERGY PREDICTED BY IDOCK:   -7.36 KCAL/MOL
REMARK 924 INTRA-LIGAND FREE ENERGY PREDICTED BY IDOCK:   -1.29 KCAL/MOL
REMARK 927      BINDING AFFINITY PREDICTED BY RF-SCORE:    0.00 PKD
ROOT
HETATM    1  C   UNL     1      -8.816   9.840  69.797  1.00  0.00    -0.241 C  
HETATM    2  C   UNL     1      -8.363  10.781  68.955  1.00  0.00    -0.138 C  
ENDROOT
BRANCH   1   3
HETATM    3  C   UNL     1      -8.934   8.368  69.513  1.00  0.00    -0.149 C  
BRANCH   3   4
HETATM    4  C   UNL     1     -10.348   7.852  69.784  1.00  0.00    -0.219 C  
BRANCH   4   5
HETATM    5  C   UNL     1     -10.392   6.879  70.963  1.00  0.00    -0.224 C  
HETATM    6  O   UNL     1     -11.843   5.758  72.476  1.00  0.00    -0.297 OA 
HETATM    7  C   UNL     1     -11.800   6.629  71.441  1.00  0.00    -0.337 C  
HETATM    8  O   UNL     1     -12.808   7.130  70.966  1.00  0.00    -0.341 OA 
ENDBRANCH   4   5
ENDBRANCH   3   4
ENDBRANCH   1   3
BRANCH   2   9
HETATM    9  C   UNL     1      -7.933  10.570  67.529  1.00  0.00    -0.107 C  
BRANCH   9  10
HETATM   10  C   UNL     1      -8.726  11.347  66.465  1.00  0.00    -0.181 C  
HETATM   11  H   UNL     1     -12.295  12.452  67.543  1.00  0.00     0.000 HD 
HETATM   12  C   UNL     1      -9.624  10.410  65.641  1.00  0.00    -0.226 C  
HETATM   13  O   UNL     1     -12.079  11.843  66.848  1.00  0.00    -0.599 OA 
HETATM   14  O   UNL     1     -10.352   9.511  66.475  1.00  0.00    -0.242 OA 
HETATM   15  C   UNL     1     -10.615  11.357  64.983  1.00  0.00    -0.359 C  
HETATM   16  C   UNL     1      -9.715  12.409  67.020  1.00  0.00    -0.211 C  
HETATM   17  H   UNL     1     -10.906   8.932  65.965  1.00  0.00     0.000 HD 
HETATM   18  C   UNL     1     -10.963  12.338  66.102  1.00  0.00    -0.293 C  
BRANCH  16  19
HETATM   19  C   UNL     1      -9.130  13.800  67.101  1.00  0.00    -0.243 C  
HETATM   20  C   UNL     1      -9.442  14.821  66.283  1.00  0.00    -0.332 C  
BRANCH  20  21
HETATM   21  C   UNL     1      -8.819  16.190  66.305  1.00  0.00    -0.336 C  
HETATM   22  O   UNL     1      -9.589  17.094  65.522  1.00  0.00    -0.508 OA 
HETATM   23  H   UNL     1      -9.196  17.959  65.535  1.00  0.00     0.000 HD 
BRANCH  21  24
HETATM   24  C   UNL     1      -8.722  16.747  67.730  1.00  0.00    -0.210 C  
BRANCH  24  25
HETATM   25  C   UNL     1      -7.550  17.704  67.977  1.00  0.00    -0.226 C  
BRANCH  25  26
HETATM   26  C   UNL     1      -7.988  19.038  68.579  1.00  0.00    -0.381 C  
BRANCH  26  27
HETATM   27  C   UNL     1      -8.369  20.045  67.496  1.00  0.00    -0.381 C  
HETATM   28  C   UNL     1      -9.863  20.322  67.514  1.00  0.00    -0.576 C  
ENDBRANCH  26  27
ENDBRANCH  25  26
ENDBRANCH  24  25
ENDBRANCH  21  24
ENDBRANCH  20  21
ENDBRANCH  16  19
ENDBRANCH   9  10
ENDBRANCH   2   9
TORSDOF 11
ENDMDL
MODEL      194
REMARK 921   NORMALIZED FREE ENERGY PREDICTED BY IDOCK:   -3.81 KCAL/MOL
REMARK 922        TOTAL FREE ENERGY PREDICTED BY IDOCK:   -8.65 KCAL/MOL
REMARK 923 INTER-LIGAND FREE ENERGY PREDICTED BY IDOCK:   -7.16 KCAL/MOL
REMARK 924 INTRA-LIGAND FREE ENERGY PREDICTED BY IDOCK:   -1.49 KCAL/MOL
REMARK 927      BINDING AFFINITY PREDICTED BY RF-SCORE:    0.00 PKD
ROOT
HETATM    1  C   UNL     1     -12.190  11.811  70.782  1.00  0.00    -0.424 C  
HETATM    2  C   UNL     1     -11.875  12.352  69.596  1.00  0.00    -0.380 C  
ENDROOT
BRANCH   1   3
HETATM    3  C   UNL     1     -12.559  10.377  71.042  1.00  0.00    -0.491 C  
BRANCH   3   4
HETATM    4  C   UNL     1     -11.327   9.522  71.341  1.00  0.00    -0.462 C  
BRANCH   4   5
HETATM    5  C   UNL     1     -11.632   8.025  71.274  1.00  0.00    -0.306 C  
HETATM    6  O   UNL     1     -11.397   5.962  72.431  1.00  0.00    -0.280 OA 
HETATM    7  C   UNL     1     -11.116   7.285  72.482  1.00  0.00    -0.293 C  
HETATM    8  O   UNL     1     -10.521   7.792  73.421  1.00  0.00    -0.338 OA 
ENDBRANCH   4   5
ENDBRANCH   3   4
ENDBRANCH   1   3
BRANCH   2   9
HETATM    9  C   UNL     1     -11.885  11.649  68.265  1.00  0.00    -0.335 C  
BRANCH   9  10
HETATM   10  C   UNL     1     -11.100  12.335  67.135  1.00  0.00    -0.330 C  
HETATM   11  H   UNL     1      -9.036  15.450  68.214  1.00  0.00     0.000 HD 
HETATM   12  C   UNL     1     -11.903  13.492  66.519  1.00  0.00    -0.399 C  
HETATM   13  O   UNL     1      -9.771  15.441  67.613  1.00  0.00    -0.211 OA 
HETATM   14  O   UNL     1     -12.475  14.329  67.522  1.00  0.00    -0.578 OA 
HETATM   15  C   UNL     1     -10.850  14.297  65.774  1.00  0.00    -0.303 C  
HETATM   16  C   UNL     1      -9.766  13.004  67.567  1.00  0.00    -0.206 C  
HETATM   17  H   UNL     1     -12.972  15.043  67.141  1.00  0.00     0.000 HD 
HETATM   18  C   UNL     1      -9.667  14.313  66.740  1.00  0.00    -0.275 C  
BRANCH  16  19
HETATM   19  C   UNL     1      -8.557  12.114  67.396  1.00  0.00    -0.175 C  
HETATM   20  C   UNL     1      -8.372  10.931  68.010  1.00  0.00    -0.122 C  
BRANCH  20  21
HETATM   21  C   UNL     1      -7.146  10.066  67.906  1.00  0.00    -0.085 C  
HETATM   22  O   UNL     1      -6.942   9.353  69.120  1.00  0.00    -0.056 OA 
HETATM   23  H   UNL     1      -6.168   8.806  69.054  1.00  0.00     0.000 HD 
BRANCH  21  24
HETATM   24  C   UNL     1      -7.264   9.051  66.763  1.00  0.00    -0.086 C  
BRANCH  24  25
HETATM   25  C   UNL     1      -8.649   8.961  66.114  1.00  0.00    -0.155 C  
BRANCH  25  26
HETATM   26  C   UNL     1      -9.341   7.623  66.370  1.00  0.00    -0.228 C  
BRANCH  26  27
HETATM   27  C   UNL     1     -10.302   7.704  67.555  1.00  0.00    -0.326 C  
HETATM   28  C   UNL     1     -10.561   6.325  68.139  1.00  0.00    -0.318 C  
ENDBRANCH  26  27
ENDBRANCH  25  26
ENDBRANCH  24  25
ENDBRANCH  21  24
ENDBRANCH  20  21
ENDBRANCH  16  19
ENDBRANCH   9  10
ENDBRANCH   2   9
TORSDOF 11
ENDMDL
MODEL      195
REMARK 921   NORMALIZED FREE ENERGY PREDICTED BY IDOCK:   -3.79 KCAL/MOL
REMARK 922        TOTAL FREE ENERGY PREDICTED BY IDOCK:   -8.62 KCAL/MOL
REMARK 923 INTER-LIGAND FREE ENERGY PREDICTED BY IDOCK:   -7.57 KCAL/MOL
REMARK 924 INTRA-LIGAND FREE ENERGY PREDICTED BY IDOCK:   -1.05 KCAL/MOL
REMARK 927      BINDING AFFINITY PREDICTED BY RF-SCORE:    0.00 PKD
ROOT
HETATM    1  C   UNL     1      -9.112   9.269  66.394  1.00  0.00    -0.200 C  
HETATM    2  C   UNL     1      -9.289  10.411  65.712  1.00  0.00    -0.230 C  
ENDROOT
BRANCH   1   3
HETATM    3  C   UNL     1     -10.041   8.689  67.423  1.00  0.00    -0.292 C  
BRANCH   3   4
HETATM    4  C   UNL     1     -10.908   7.573  66.837  1.00  0.00    -0.174 C  
BRANCH   4   5
HETATM    5  C   UNL     1     -10.680   6.234  67.540  1.00  0.00    -0.398 C  
HETATM    6  O   UNL     1      -9.470   4.191  67.437  1.00  0.00    -0.163 OA 
HETATM    7  C   UNL     1      -9.683   5.371  66.809  1.00  0.00    -0.157 C  
HETATM    8  O   UNL     1      -9.107   5.675  65.775  1.00  0.00    -0.159 OA 
ENDBRANCH   4   5
ENDBRANCH   3   4
ENDBRANCH   1   3
BRANCH   2   9
HETATM    9  C   UNL     1     -10.427  11.381  65.878  1.00  0.00    -0.309 C  
BRANCH   9  10
HETATM   10  C   UNL     1     -10.550  12.466  64.796  1.00  0.00    -0.331 C  
HETATM   11  H   UNL     1     -13.091  15.304  65.582  1.00  0.00     0.000 HD 
HETATM   12  C   UNL     1     -11.700  12.158  63.822  1.00  0.00    -0.485 C  
HETATM   13  O   UNL     1     -13.148  14.676  64.871  1.00  0.00    -0.419 OA 
HETATM   14  O   UNL     1     -12.889  11.784  64.515  1.00  0.00    -0.234 OA 
HETATM   15  C   UNL     1     -11.949  13.491  63.135  1.00  0.00     0.026 C  
HETATM   16  C   UNL     1     -10.885  13.890  65.320  1.00  0.00    -0.337 C  
HETATM   17  H   UNL     1     -13.599  11.594  63.914  1.00  0.00     0.000 HD 
HETATM   18  C   UNL     1     -11.858  14.501  64.278  1.00  0.00    -0.348 C  
BRANCH  16  19
HETATM   19  C   UNL     1      -9.667  14.752  65.555  1.00  0.00    -0.261 C  
HETATM   20  C   UNL     1      -9.513  15.616  66.574  1.00  0.00    -0.300 C  
BRANCH  20  21
HETATM   21  C   UNL     1      -8.338  16.532  66.785  1.00  0.00    -0.239 C  
HETATM   22  O   UNL     1      -8.263  17.487  65.732  1.00  0.00    -0.545 OA 
HETATM   23  H   UNL     1      -7.521  18.065  65.865  1.00  0.00     0.000 HD 
BRANCH  21  24
HETATM   24  C   UNL     1      -8.438  17.287  68.115  1.00  0.00    -0.238 C  
BRANCH  24  25
HETATM   25  C   UNL     1      -9.839  17.800  68.468  1.00  0.00    -0.355 C  
BRANCH  25  26
HETATM   26  C   UNL     1      -9.829  19.221  69.028  1.00  0.00    -0.466 C  
BRANCH  26  27
HETATM   27  C   UNL     1     -10.493  20.208  68.069  1.00  0.00    -0.389 C  
HETATM   28  C   UNL     1     -10.737  19.566  66.714  1.00  0.00    -0.569 C  
ENDBRANCH  26  27
ENDBRANCH  25  26
ENDBRANCH  24  25
ENDBRANCH  21  24
ENDBRANCH  20  21
ENDBRANCH  16  19
ENDBRANCH   9  10
ENDBRANCH   2   9
TORSDOF 11
ENDMDL
MODEL      196
REMARK 921   NORMALIZED FREE ENERGY PREDICTED BY IDOCK:   -3.78 KCAL/MOL
REMARK 922        TOTAL FREE ENERGY PREDICTED BY IDOCK:   -8.61 KCAL/MOL
REMARK 923 INTER-LIGAND FREE ENERGY PREDICTED BY IDOCK:   -6.66 KCAL/MOL
REMARK 924 INTRA-LIGAND FREE ENERGY PREDICTED BY IDOCK:   -1.95 KCAL/MOL
REMARK 927      BINDING AFFINITY PREDICTED BY RF-SCORE:    0.00 PKD
ROOT
HETATM    1  C   UNL     1      -7.544   8.107  67.952  1.00  0.00    -0.102 C  
HETATM    2  C   UNL     1      -8.469   7.698  68.833  1.00  0.00    -0.129 C  
ENDROOT
BRANCH   1   3
HETATM    3  C   UNL     1      -7.660   8.073  66.453  1.00  0.00    -0.091 C  
BRANCH   3   4
HETATM    4  C   UNL     1      -8.165   9.405  65.896  1.00  0.00    -0.115 C  
BRANCH   4   5
HETATM    5  C   UNL     1      -8.170   9.427  64.367  1.00  0.00    -0.147 C  
HETATM    6  O   UNL     1      -9.294  10.298  62.462  1.00  0.00    -0.280 OA 
HETATM    7  C   UNL     1      -9.294  10.267  63.815  1.00  0.00    -0.295 C  
HETATM    8  O   UNL     1     -10.120  10.870  64.483  1.00  0.00    -0.289 OA 
ENDBRANCH   4   5
ENDBRANCH   3   4
ENDBRANCH   1   3
BRANCH   2   9
HETATM    9  C   UNL     1      -9.794   7.063  68.506  1.00  0.00    -0.147 C  
BRANCH   9  10
HETATM   10  C   UNL     1     -11.013   7.626  69.254  1.00  0.00    -0.030 C  
HETATM   11  H   UNL     1     -10.207   9.445  72.596  1.00  0.00     0.000 HD 
HETATM   12  C   UNL     1     -11.534   6.631  70.305  1.00  0.00    -0.391 C  
HETATM   13  O   UNL     1     -10.715   8.648  72.495  1.00  0.00    -0.307 OA 
HETATM   14  O   UNL     1     -10.472   6.094  71.091  1.00  0.00    -0.214 OA 
HETATM   15  C   UNL     1     -12.404   7.491  71.206  1.00  0.00    -0.356 C  
HETATM   16  C   UNL     1     -10.749   8.920  70.074  1.00  0.00    -0.241 C  
HETATM   17  H   UNL     1     -10.794   5.479  71.739  1.00  0.00     0.000 HD 
HETATM   18  C   UNL     1     -11.588   8.772  71.369  1.00  0.00    -0.299 C  
BRANCH  16  19
HETATM   19  C   UNL     1     -11.061  10.190  69.318  1.00  0.00    -0.270 C  
HETATM   20  C   UNL     1     -10.281  10.742  68.372  1.00  0.00    -0.192 C  
BRANCH  20  21
HETATM   21  C   UNL     1     -10.542  12.042  67.660  1.00  0.00    -0.210 C  
HETATM   22  O   UNL     1     -11.784  11.984  66.969  1.00  0.00    -0.510 OA 
HETATM   23  H   UNL     1     -11.949  12.804  66.519  1.00  0.00     0.000 HD 
BRANCH  21  24
HETATM   24  C   UNL     1     -10.587  13.223  68.636  1.00  0.00    -0.264 C  
BRANCH  24  25
HETATM   25  C   UNL     1     -11.915  13.987  68.671  1.00  0.00    -0.389 C  
BRANCH  25  26
HETATM   26  C   UNL     1     -12.370  14.326  70.090  1.00  0.00    -0.413 C  
BRANCH  26  27
HETATM   27  C   UNL     1     -12.611  13.066  70.918  1.00  0.00    -0.364 C  
HETATM   28  C   UNL     1     -13.379  13.391  72.189  1.00  0.00    -0.613 C  
ENDBRANCH  26  27
ENDBRANCH  25  26
ENDBRANCH  24  25
ENDBRANCH  21  24
ENDBRANCH  20  21
ENDBRANCH  16  19
ENDBRANCH   9  10
ENDBRANCH   2   9
TORSDOF 11
ENDMDL
MODEL      197
REMARK 921   NORMALIZED FREE ENERGY PREDICTED BY IDOCK:   -3.78 KCAL/MOL
REMARK 922        TOTAL FREE ENERGY PREDICTED BY IDOCK:   -8.61 KCAL/MOL
REMARK 923 INTER-LIGAND FREE ENERGY PREDICTED BY IDOCK:   -7.80 KCAL/MOL
REMARK 924 INTRA-LIGAND FREE ENERGY PREDICTED BY IDOCK:   -0.81 KCAL/MOL
REMARK 927      BINDING AFFINITY PREDICTED BY RF-SCORE:    0.00 PKD
ROOT
HETATM    1  C   UNL     1      -7.305  20.400  67.391  1.00  0.00    -0.359 C  
HETATM    2  C   UNL     1      -7.028  19.799  68.557  1.00  0.00    -0.345 C  
ENDROOT
BRANCH   1   3
HETATM    3  C   UNL     1      -8.326  19.962  66.377  1.00  0.00    -0.368 C  
BRANCH   3   4
HETATM    4  C   UNL     1      -9.737  19.948  66.967  1.00  0.00    -0.529 C  
BRANCH   4   5
HETATM    5  C   UNL     1     -10.762  19.355  65.999  1.00  0.00    -0.512 C  
HETATM    6  O   UNL     1     -11.256  17.464  64.646  1.00  0.00    -0.992 OA 
HETATM    7  C   UNL     1     -10.345  17.997  65.493  1.00  0.00     0.111 C  
HETATM    8  O   UNL     1      -9.316  17.413  65.799  1.00  0.00    -0.518 OA 
ENDBRANCH   4   5
ENDBRANCH   3   4
ENDBRANCH   1   3
BRANCH   2   9
HETATM    9  C   UNL     1      -7.639  18.522  69.069  1.00  0.00    -0.204 C  
BRANCH   9  10
HETATM   10  C   UNL     1      -7.114  17.223  68.437  1.00  0.00    -0.209 C  
HETATM   11  H   UNL     1      -7.217  14.099  70.751  1.00  0.00     0.000 HD 
HETATM   12  C   UNL     1      -5.627  17.004  68.762  1.00  0.00    -0.139 C  
HETATM   13  O   UNL     1      -6.439  14.514  70.397  1.00  0.00    -0.183 OA 
HETATM   14  O   UNL     1      -5.354  17.219  70.146  1.00  0.00    -0.195 OA 
HETATM   15  C   UNL     1      -5.410  15.531  68.458  1.00  0.00    -0.099 C  
HETATM   16  C   UNL     1      -7.794  15.919  68.938  1.00  0.00    -0.198 C  
HETATM   17  H   UNL     1      -4.436  17.084  70.346  1.00  0.00     0.000 HD 
HETATM   18  C   UNL     1      -6.661  14.864  69.028  1.00  0.00    -0.117 C  
BRANCH  16  19
HETATM   19  C   UNL     1      -8.946  15.465  68.073  1.00  0.00    -0.171 C  
HETATM   20  C   UNL     1      -8.875  14.518  67.120  1.00  0.00    -0.245 C  
BRANCH  20  21
HETATM   21  C   UNL     1      -9.993  14.103  66.203  1.00  0.00    -0.314 C  
HETATM   22  O   UNL     1      -9.652  12.900  65.524  1.00  0.00    -0.460 OA 
HETATM   23  H   UNL     1     -10.357  12.638  64.945  1.00  0.00     0.000 HD 
BRANCH  21  24
HETATM   24  C   UNL     1     -11.299  13.870  66.971  1.00  0.00    -0.343 C  
BRANCH  24  25
HETATM   25  C   UNL     1     -11.500  12.444  67.495  1.00  0.00    -0.410 C  
BRANCH  25  26
HETATM   26  C   UNL     1     -11.981  12.404  68.944  1.00  0.00    -0.289 C  
BRANCH  26  27
HETATM   27  C   UNL     1     -11.575  13.664  69.706  1.00  0.00    -0.322 C  
HETATM   28  C   UNL     1     -12.745  14.218  70.502  1.00  0.00    -0.391 C  
ENDBRANCH  26  27
ENDBRANCH  25  26
ENDBRANCH  24  25
ENDBRANCH  21  24
ENDBRANCH  20  21
ENDBRANCH  16  19
ENDBRANCH   9  10
ENDBRANCH   2   9
TORSDOF 11
ENDMDL
MODEL      198
REMARK 921   NORMALIZED FREE ENERGY PREDICTED BY IDOCK:   -3.78 KCAL/MOL
REMARK 922        TOTAL FREE ENERGY PREDICTED BY IDOCK:   -8.60 KCAL/MOL
REMARK 923 INTER-LIGAND FREE ENERGY PREDICTED BY IDOCK:   -7.22 KCAL/MOL
REMARK 924 INTRA-LIGAND FREE ENERGY PREDICTED BY IDOCK:   -1.38 KCAL/MOL
REMARK 927      BINDING AFFINITY PREDICTED BY RF-SCORE:    0.00 PKD
ROOT
HETATM    1  C   UNL     1     -10.782   8.733  71.883  1.00  0.00    -0.429 C  
HETATM    2  C   UNL     1     -10.539   9.356  70.720  1.00  0.00    -0.371 C  
ENDROOT
BRANCH   1   3
HETATM    3  C   UNL     1      -9.755   8.196  72.842  1.00  0.00    -0.340 C  
BRANCH   3   4
HETATM    4  C   UNL     1     -10.359   7.167  73.798  1.00  0.00    -0.390 C  
BRANCH   4   5
HETATM    5  C   UNL     1      -9.860   5.750  73.512  1.00  0.00    -0.169 C  
HETATM    6  O   UNL     1     -10.531   3.583  72.802  1.00  0.00    -0.165 OA 
HETATM    7  C   UNL     1     -10.973   4.835  73.069  1.00  0.00    -0.272 C  
HETATM    8  O   UNL     1     -12.145   5.155  72.943  1.00  0.00    -0.169 OA 
ENDBRANCH   4   5
ENDBRANCH   3   4
ENDBRANCH   1   3
BRANCH   2   9
HETATM    9  C   UNL     1      -9.189   9.595  70.101  1.00  0.00    -0.287 C  
BRANCH   9  10
HETATM   10  C   UNL     1      -9.110   9.437  68.574  1.00  0.00    -0.131 C  
HETATM   11  H   UNL     1     -11.912   7.253  66.992  1.00  0.00     0.000 HD 
HETATM   12  C   UNL     1      -8.350   8.159  68.183  1.00  0.00    -0.129 C  
HETATM   13  O   UNL     1     -10.982   7.060  66.998  1.00  0.00    -0.375 OA 
HETATM   14  O   UNL     1      -8.792   7.032  68.938  1.00  0.00    -0.131 OA 
HETATM   15  C   UNL     1      -8.745   7.942  66.731  1.00  0.00    -0.143 C  
HETATM   16  C   UNL     1     -10.477   9.286  67.852  1.00  0.00    -0.290 C  
HETATM   17  H   UNL     1      -8.322   6.243  68.696  1.00  0.00     0.000 HD 
HETATM   18  C   UNL     1     -10.241   8.252  66.721  1.00  0.00    -0.304 C  
BRANCH  16  19
HETATM   19  C   UNL     1     -11.040  10.591  67.339  1.00  0.00    -0.322 C  
HETATM   20  C   UNL     1     -10.323  11.705  67.103  1.00  0.00    -0.247 C  
BRANCH  20  21
HETATM   21  C   UNL     1     -10.876  13.032  66.660  1.00  0.00    -0.275 C  
HETATM   22  O   UNL     1     -12.269  12.920  66.391  1.00  0.00    -0.453 OA 
HETATM   23  H   UNL     1     -12.619  13.758  66.112  1.00  0.00     0.000 HD 
BRANCH  21  24
HETATM   24  C   UNL     1     -10.676  14.115  67.726  1.00  0.00    -0.251 C  
BRANCH  24  25
HETATM   25  C   UNL     1     -11.462  13.902  69.025  1.00  0.00    -0.341 C  
BRANCH  25  26
HETATM   26  C   UNL     1     -12.175  15.166  69.503  1.00  0.00    -0.268 C  
BRANCH  26  27
HETATM   27  C   UNL     1     -12.777  14.979  70.895  1.00  0.00    -0.437 C  
HETATM   28  C   UNL     1     -11.770  15.339  71.974  1.00  0.00    -0.529 C  
ENDBRANCH  26  27
ENDBRANCH  25  26
ENDBRANCH  24  25
ENDBRANCH  21  24
ENDBRANCH  20  21
ENDBRANCH  16  19
ENDBRANCH   9  10
ENDBRANCH   2   9
TORSDOF 11
ENDMDL
MODEL      199
REMARK 921   NORMALIZED FREE ENERGY PREDICTED BY IDOCK:   -3.77 KCAL/MOL
REMARK 922        TOTAL FREE ENERGY PREDICTED BY IDOCK:   -8.60 KCAL/MOL
REMARK 923 INTER-LIGAND FREE ENERGY PREDICTED BY IDOCK:   -7.10 KCAL/MOL
REMARK 924 INTRA-LIGAND FREE ENERGY PREDICTED BY IDOCK:   -1.49 KCAL/MOL
REMARK 927      BINDING AFFINITY PREDICTED BY RF-SCORE:    0.00 PKD
ROOT
HETATM    1  C   UNL     1     -10.703  11.805  63.608  1.00  0.00    -0.503 C  
HETATM    2  C   UNL     1      -9.893  11.027  64.342  1.00  0.00    -0.351 C  
ENDROOT
BRANCH   1   3
HETATM    3  C   UNL     1     -12.168  12.047  63.846  1.00  0.00    -0.555 C  
BRANCH   3   4
HETATM    4  C   UNL     1     -12.398  13.171  64.858  1.00  0.00    -0.494 C  
BRANCH   4   5
HETATM    5  C   UNL     1     -12.537  14.536  64.183  1.00  0.00    -0.048 C  
HETATM    6  O   UNL     1     -11.499  16.657  63.906  1.00  0.00    -1.186 OA 
HETATM    7  C   UNL     1     -11.385  15.452  64.512  1.00  0.00    -0.313 C  
HETATM    8  O   UNL     1     -10.438  15.167  65.229  1.00  0.00    -0.353 OA 
ENDBRANCH   4   5
ENDBRANCH   3   4
ENDBRANCH   1   3
BRANCH   2   9
HETATM    9  C   UNL     1     -10.295  10.184  65.522  1.00  0.00    -0.196 C  
BRANCH   9  10
HETATM   10  C   UNL     1      -9.175   9.843  66.519  1.00  0.00    -0.190 C  
HETATM   11  H   UNL     1      -5.584   9.825  65.026  1.00  0.00     0.000 HD 
HETATM   12  C   UNL     1      -8.838   8.344  66.490  1.00  0.00    -0.147 C  
HETATM   13  O   UNL     1      -6.048   9.080  65.389  1.00  0.00    -0.060 OA 
HETATM   14  O   UNL     1      -8.698   7.862  65.155  1.00  0.00    -0.351 OA 
HETATM   15  C   UNL     1      -7.478   8.273  67.166  1.00  0.00    -0.089 C  
HETATM   16  C   UNL     1      -7.810  10.532  66.242  1.00  0.00    -0.141 C  
HETATM   17  H   UNL     1      -8.490   6.935  65.138  1.00  0.00     0.000 HD 
HETATM   18  C   UNL     1      -6.731   9.471  66.583  1.00  0.00    -0.072 C  
BRANCH  16  19
HETATM   19  C   UNL     1      -7.617  11.824  67.001  1.00  0.00    -0.147 C  
HETATM   20  C   UNL     1      -8.538  12.796  67.123  1.00  0.00    -0.197 C  
BRANCH  20  21
HETATM   21  C   UNL     1      -8.340  14.118  67.814  1.00  0.00    -0.174 C  
HETATM   22  O   UNL     1      -8.737  14.025  69.177  1.00  0.00    -0.369 OA 
HETATM   23  H   UNL     1      -8.612  14.859  69.614  1.00  0.00     0.000 HD 
BRANCH  21  24
HETATM   24  C   UNL     1      -6.876  14.568  67.767  1.00  0.00    -0.193 C  
BRANCH  24  25
HETATM   25  C   UNL     1      -6.657  16.027  67.348  1.00  0.00    -0.224 C  
BRANCH  25  26
HETATM   26  C   UNL     1      -7.947  16.845  67.347  1.00  0.00    -0.190 C  
BRANCH  26  27
HETATM   27  C   UNL     1      -7.703  18.277  66.873  1.00  0.00    -0.242 C  
HETATM   28  C   UNL     1      -8.912  19.154  67.153  1.00  0.00    -0.320 C  
ENDBRANCH  26  27
ENDBRANCH  25  26
ENDBRANCH  24  25
ENDBRANCH  21  24
ENDBRANCH  20  21
ENDBRANCH  16  19
ENDBRANCH   9  10
ENDBRANCH   2   9
TORSDOF 11
ENDMDL
MODEL      200
REMARK 921   NORMALIZED FREE ENERGY PREDICTED BY IDOCK:   -3.77 KCAL/MOL
REMARK 922        TOTAL FREE ENERGY PREDICTED BY IDOCK:   -8.60 KCAL/MOL
REMARK 923 INTER-LIGAND FREE ENERGY PREDICTED BY IDOCK:   -7.00 KCAL/MOL
REMARK 924 INTRA-LIGAND FREE ENERGY PREDICTED BY IDOCK:   -1.60 KCAL/MOL
REMARK 927      BINDING AFFINITY PREDICTED BY RF-SCORE:    0.00 PKD
ROOT
HETATM    1  C   UNL     1     -12.000  10.015  70.652  1.00  0.00    -0.401 C  
HETATM    2  C   UNL     1     -11.204  10.651  69.779  1.00  0.00    -0.363 C  
ENDROOT
BRANCH   1   3
HETATM    3  C   UNL     1     -11.610   8.876  71.553  1.00  0.00    -0.388 C  
BRANCH   3   4
HETATM    4  C   UNL     1     -11.894   7.520  70.905  1.00  0.00    -0.293 C  
BRANCH   4   5
HETATM    5  C   UNL     1     -10.616   6.721  70.654  1.00  0.00    -0.257 C  
HETATM    6  O   UNL     1      -9.093   6.011  68.972  1.00  0.00    -0.123 OA 
HETATM    7  C   UNL     1     -10.232   6.707  69.195  1.00  0.00    -0.179 C  
HETATM    8  O   UNL     1     -10.849   7.259  68.296  1.00  0.00    -0.157 OA 
ENDBRANCH   4   5
ENDBRANCH   3   4
ENDBRANCH   1   3
BRANCH   2   9
HETATM    9  C   UNL     1      -9.769  10.318  69.475  1.00  0.00    -0.235 C  
BRANCH   9  10
HETATM   10  C   UNL     1      -9.200  10.913  68.177  1.00  0.00    -0.158 C  
HETATM   11  H   UNL     1     -10.433   9.215  64.902  1.00  0.00     0.000 HD 
HETATM   12  C   UNL     1      -7.950  10.149  67.711  1.00  0.00    -0.102 C  
HETATM   13  O   UNL     1      -9.540   9.232  65.228  1.00  0.00    -0.242 OA 
HETATM   14  O   UNL     1      -8.151   8.737  67.754  1.00  0.00    -0.106 OA 
HETATM   15  C   UNL     1      -7.801  10.564  66.257  1.00  0.00    -0.141 C  
HETATM   16  C   UNL     1     -10.148  10.849  66.947  1.00  0.00    -0.253 C  
HETATM   17  H   UNL     1      -7.378   8.265  67.467  1.00  0.00     0.000 HD 
HETATM   18  C   UNL     1      -9.236  10.536  65.733  1.00  0.00    -0.182 C  
BRANCH  16  19
HETATM   19  C   UNL     1     -10.972  12.100  66.751  1.00  0.00    -0.325 C  
HETATM   20  C   UNL     1     -10.589  13.177  66.041  1.00  0.00    -0.291 C  
BRANCH  20  21
HETATM   21  C   UNL     1     -11.366  14.457  65.892  1.00  0.00    -0.332 C  
HETATM   22  O   UNL     1     -12.487  14.458  66.770  1.00  0.00    -0.563 OA 
HETATM   23  H   UNL     1     -12.977  15.265  66.676  1.00  0.00     0.000 HD 
BRANCH  21  24
HETATM   24  C   UNL     1     -10.504  15.684  66.210  1.00  0.00    -0.313 C  
BRANCH  24  25
HETATM   25  C   UNL     1     -10.872  16.421  67.502  1.00  0.00    -0.249 C  
BRANCH  25  26
HETATM   26  C   UNL     1      -9.836  17.469  67.906  1.00  0.00    -0.293 C  
BRANCH  26  27
HETATM   27  C   UNL     1     -10.401  18.885  67.804  1.00  0.00    -0.490 C  
HETATM   28  C   UNL     1     -10.476  19.336  66.355  1.00  0.00    -0.563 C  
ENDBRANCH  26  27
ENDBRANCH  25  26
ENDBRANCH  24  25
ENDBRANCH  21  24
ENDBRANCH  20  21
ENDBRANCH  16  19
ENDBRANCH   9  10
ENDBRANCH   2   9
TORSDOF 11
ENDMDL
MODEL      201
REMARK 921   NORMALIZED FREE ENERGY PREDICTED BY IDOCK:   -3.77 KCAL/MOL
REMARK 922        TOTAL FREE ENERGY PREDICTED BY IDOCK:   -8.58 KCAL/MOL
REMARK 923 INTER-LIGAND FREE ENERGY PREDICTED BY IDOCK:   -6.83 KCAL/MOL
REMARK 924 INTRA-LIGAND FREE ENERGY PREDICTED BY IDOCK:   -1.76 KCAL/MOL
REMARK 927      BINDING AFFINITY PREDICTED BY RF-SCORE:    0.00 PKD
ROOT
HETATM    1  C   UNL     1     -11.803  14.604  67.303  1.00  0.00    -0.375 C  
HETATM    2  C   UNL     1     -10.698  15.359  67.382  1.00  0.00    -0.296 C  
ENDROOT
BRANCH   1   3
HETATM    3  C   UNL     1     -12.306  13.877  66.086  1.00  0.00    -0.504 C  
BRANCH   3   4
HETATM    4  C   UNL     1     -11.777  12.443  66.027  1.00  0.00    -0.469 C  
BRANCH   4   5
HETATM    5  C   UNL     1     -10.535  12.321  65.144  1.00  0.00    -0.320 C  
HETATM    6  O   UNL     1      -9.782  11.829  62.943  1.00  0.00    -0.357 OA 
HETATM    7  C   UNL     1     -10.880  11.925  63.730  1.00  0.00    -0.418 C  
HETATM    8  O   UNL     1     -12.007  11.719  63.308  1.00  0.00    -0.422 OA 
ENDBRANCH   4   5
ENDBRANCH   3   4
ENDBRANCH   1   3
BRANCH   2   9
HETATM    9  C   UNL     1      -9.759  15.687  66.252  1.00  0.00    -0.328 C  
BRANCH   9  10
HETATM   10  C   UNL     1      -8.261  15.671  66.595  1.00  0.00    -0.284 C  
HETATM   11  H   UNL     1      -7.342  17.188  70.056  1.00  0.00     0.000 HD 
HETATM   12  C   UNL     1      -7.584  16.996  66.205  1.00  0.00    -0.305 C  
HETATM   13  O   UNL     1      -7.081  17.523  69.206  1.00  0.00    -0.228 OA 
HETATM   14  O   UNL     1      -8.345  18.122  66.637  1.00  0.00    -0.246 OA 
HETATM   15  C   UNL     1      -6.282  16.973  66.989  1.00  0.00    -0.225 C  
HETATM   16  C   UNL     1      -7.928  15.520  68.105  1.00  0.00    -0.132 C  
HETATM   17  H   UNL     1      -7.926  18.940  66.396  1.00  0.00     0.000 HD 
HETATM   18  C   UNL     1      -6.702  16.436  68.357  1.00  0.00    -0.141 C  
BRANCH  16  19
HETATM   19  C   UNL     1      -7.686  14.092  68.533  1.00  0.00    -0.139 C  
HETATM   20  C   UNL     1      -6.880  13.219  67.902  1.00  0.00    -0.140 C  
BRANCH  20  21
HETATM   21  C   UNL     1      -6.682  11.774  68.273  1.00  0.00    -0.065 C  
HETATM   22  O   UNL     1      -7.413  11.464  69.454  1.00  0.00    -0.303 OA 
HETATM   23  H   UNL     1      -7.288  10.552  69.688  1.00  0.00     0.000 HD 
BRANCH  21  24
HETATM   24  C   UNL     1      -7.146  10.833  67.156  1.00  0.00    -0.099 C  
BRANCH  24  25
HETATM   25  C   UNL     1      -8.065   9.692  67.608  1.00  0.00    -0.113 C  
BRANCH  25  26
HETATM   26  C   UNL     1      -9.407   9.684  66.878  1.00  0.00    -0.183 C  
BRANCH  26  27
HETATM   27  C   UNL     1     -10.473   8.929  67.669  1.00  0.00    -0.320 C  
HETATM   28  C   UNL     1     -10.599   7.496  67.180  1.00  0.00    -0.415 C  
ENDBRANCH  26  27
ENDBRANCH  25  26
ENDBRANCH  24  25
ENDBRANCH  21  24
ENDBRANCH  20  21
ENDBRANCH  16  19
ENDBRANCH   9  10
ENDBRANCH   2   9
TORSDOF 11
ENDMDL
MODEL      202
REMARK 921   NORMALIZED FREE ENERGY PREDICTED BY IDOCK:   -3.76 KCAL/MOL
REMARK 922        TOTAL FREE ENERGY PREDICTED BY IDOCK:   -8.58 KCAL/MOL
REMARK 923 INTER-LIGAND FREE ENERGY PREDICTED BY IDOCK:   -7.15 KCAL/MOL
REMARK 924 INTRA-LIGAND FREE ENERGY PREDICTED BY IDOCK:   -1.43 KCAL/MOL
REMARK 927      BINDING AFFINITY PREDICTED BY RF-SCORE:    0.00 PKD
ROOT
HETATM    1  C   UNL     1     -10.044  11.699  67.297  1.00  0.00    -0.221 C  
HETATM    2  C   UNL     1     -10.317  11.550  68.601  1.00  0.00    -0.226 C  
ENDROOT
BRANCH   1   3
HETATM    3  C   UNL     1     -10.888  11.224  66.146  1.00  0.00    -0.281 C  
BRANCH   3   4
HETATM    4  C   UNL     1     -10.449  11.857  64.825  1.00  0.00    -0.333 C  
BRANCH   4   5
HETATM    5  C   UNL     1     -10.931  13.302  64.688  1.00  0.00    -0.384 C  
HETATM    6  O   UNL     1     -12.599  14.686  63.714  1.00  0.00    -0.820 OA 
HETATM    7  C   UNL     1     -12.163  13.410  63.825  1.00  0.00    -0.417 C  
HETATM    8  O   UNL     1     -12.733  12.474  63.284  1.00  0.00    -0.678 OA 
ENDBRANCH   4   5
ENDBRANCH   3   4
ENDBRANCH   1   3
BRANCH   2   9
HETATM    9  C   UNL     1     -11.495  10.821  69.188  1.00  0.00    -0.368 C  
BRANCH   9  10
HETATM   10  C   UNL     1     -11.213   9.995  70.454  1.00  0.00    -0.393 C  
HETATM   11  H   UNL     1     -12.267   6.256  70.257  1.00  0.00     0.000 HD 
HETATM   12  C   UNL     1     -12.441   9.950  71.378  1.00  0.00    -0.398 C  
HETATM   13  O   UNL     1     -12.626   6.914  70.841  1.00  0.00    -0.357 OA 
HETATM   14  O   UNL     1     -13.634   9.654  70.653  1.00  0.00    -0.599 OA 
HETATM   15  C   UNL     1     -12.146   8.781  72.304  1.00  0.00    -0.423 C  
HETATM   16  C   UNL     1     -10.884   8.496  70.208  1.00  0.00    -0.249 C  
HETATM   17  H   UNL     1     -14.393   9.627  71.224  1.00  0.00     0.000 HD 
HETATM   18  C   UNL     1     -11.569   7.723  71.365  1.00  0.00    -0.276 C  
BRANCH  16  19
HETATM   19  C   UNL     1      -9.404   8.209  70.111  1.00  0.00    -0.159 C  
HETATM   20  C   UNL     1      -8.688   8.205  68.972  1.00  0.00    -0.144 C  
BRANCH  20  21
HETATM   21  C   UNL     1      -7.231   7.853  68.847  1.00  0.00    -0.076 C  
HETATM   22  O   UNL     1      -6.480   8.491  69.874  1.00  0.00    -0.034 OA 
HETATM   23  H   UNL     1      -5.560   8.269  69.795  1.00  0.00     0.000 HD 
BRANCH  21  24
HETATM   24  C   UNL     1      -7.002   6.341  68.951  1.00  0.00    -0.076 C  
BRANCH  24  25
HETATM   25  C   UNL     1      -6.392   5.865  70.274  1.00  0.00    -0.032 C  
BRANCH  25  26
HETATM   26  C   UNL     1      -7.443   5.591  71.350  1.00  0.00    -0.098 C  
BRANCH  26  27
HETATM   27  C   UNL     1      -8.247   4.330  71.042  1.00  0.00    -0.078 C  
HETATM   28  C   UNL     1      -7.339   3.114  70.960  1.00  0.00    -0.033 C  
ENDBRANCH  26  27
ENDBRANCH  25  26
ENDBRANCH  24  25
ENDBRANCH  21  24
ENDBRANCH  20  21
ENDBRANCH  16  19
ENDBRANCH   9  10
ENDBRANCH   2   9
TORSDOF 11
ENDMDL
MODEL      203
REMARK 921   NORMALIZED FREE ENERGY PREDICTED BY IDOCK:   -3.75 KCAL/MOL
REMARK 922        TOTAL FREE ENERGY PREDICTED BY IDOCK:   -8.56 KCAL/MOL
REMARK 923 INTER-LIGAND FREE ENERGY PREDICTED BY IDOCK:   -7.00 KCAL/MOL
REMARK 924 INTRA-LIGAND FREE ENERGY PREDICTED BY IDOCK:   -1.56 KCAL/MOL
REMARK 927      BINDING AFFINITY PREDICTED BY RF-SCORE:    0.00 PKD
ROOT
HETATM    1  C   UNL     1     -11.126  10.293  68.960  1.00  0.00    -0.277 C  
HETATM    2  C   UNL     1     -10.911  10.561  67.663  1.00  0.00    -0.375 C  
ENDROOT
BRANCH   1   3
HETATM    3  C   UNL     1     -10.783   9.017  69.679  1.00  0.00    -0.228 C  
BRANCH   3   4
HETATM    4  C   UNL     1      -9.429   9.112  70.383  1.00  0.00    -0.269 C  
BRANCH   4   5
HETATM    5  C   UNL     1      -8.333   8.352  69.633  1.00  0.00    -0.122 C  
HETATM    6  O   UNL     1      -7.380   6.202  69.286  1.00  0.00    -0.082 OA 
HETATM    7  C   UNL     1      -8.341   6.880  69.958  1.00  0.00    -0.139 C  
HETATM    8  O   UNL     1      -9.115   6.328  70.725  1.00  0.00    -0.146 OA 
ENDBRANCH   4   5
ENDBRANCH   3   4
ENDBRANCH   1   3
BRANCH   2   9
HETATM    9  C   UNL     1     -10.338   9.617  66.641  1.00  0.00    -0.279 C  
BRANCH   9  10
HETATM   10  C   UNL     1      -9.389  10.243  65.605  1.00  0.00    -0.241 C  
HETATM   11  H   UNL     1     -10.193   9.386  61.897  1.00  0.00     0.000 HD 
HETATM   12  C   UNL     1      -8.251   9.278  65.235  1.00  0.00    -0.134 C  
HETATM   13  O   UNL     1      -9.410   9.142  62.376  1.00  0.00    -0.045 OA 
HETATM   14  O   UNL     1      -8.740   7.965  64.969  1.00  0.00    -0.366 OA 
HETATM   15  C   UNL     1      -7.705   9.853  63.939  1.00  0.00    -0.140 C  
HETATM   16  C   UNL     1     -10.037  10.587  64.235  1.00  0.00    -0.380 C  
HETATM   17  H   UNL     1      -8.036   7.369  64.741  1.00  0.00     0.000 HD 
HETATM   18  C   UNL     1      -8.965  10.246  63.168  1.00  0.00    -0.241 C  
BRANCH  16  19
HETATM   19  C   UNL     1     -10.524  12.014  64.137  1.00  0.00    -0.393 C  
HETATM   20  C   UNL     1     -11.669  12.481  64.666  1.00  0.00    -0.416 C  
BRANCH  20  21
HETATM   21  C   UNL     1     -12.204  13.879  64.519  1.00  0.00    -0.417 C  
HETATM   22  O   UNL     1     -13.265  14.101  65.441  1.00  0.00    -0.741 OA 
HETATM   23  H   UNL     1     -13.602  14.984  65.348  1.00  0.00     0.000 HD 
BRANCH  21  24
HETATM   24  C   UNL     1     -11.117  14.931  64.770  1.00  0.00    -0.395 C  
BRANCH  24  25
HETATM   25  C   UNL     1     -10.648  15.046  66.225  1.00  0.00    -0.309 C  
BRANCH  25  26
HETATM   26  C   UNL     1      -9.233  14.510  66.438  1.00  0.00    -0.264 C  
BRANCH  26  27
HETATM   27  C   UNL     1      -8.341  15.539  67.131  1.00  0.00    -0.243 C  
HETATM   28  C   UNL     1      -8.179  16.782  66.272  1.00  0.00    -0.359 C  
ENDBRANCH  26  27
ENDBRANCH  25  26
ENDBRANCH  24  25
ENDBRANCH  21  24
ENDBRANCH  20  21
ENDBRANCH  16  19
ENDBRANCH   9  10
ENDBRANCH   2   9
TORSDOF 11
ENDMDL
MODEL      204
REMARK 921   NORMALIZED FREE ENERGY PREDICTED BY IDOCK:   -3.75 KCAL/MOL
REMARK 922        TOTAL FREE ENERGY PREDICTED BY IDOCK:   -8.56 KCAL/MOL
REMARK 923 INTER-LIGAND FREE ENERGY PREDICTED BY IDOCK:   -6.36 KCAL/MOL
REMARK 924 INTRA-LIGAND FREE ENERGY PREDICTED BY IDOCK:   -2.20 KCAL/MOL
REMARK 927      BINDING AFFINITY PREDICTED BY RF-SCORE:    0.00 PKD
ROOT
HETATM    1  C   UNL     1     -11.714  12.963  69.380  1.00  0.00    -0.382 C  
HETATM    2  C   UNL     1     -12.082  12.136  70.370  1.00  0.00    -0.395 C  
ENDROOT
BRANCH   1   3
HETATM    3  C   UNL     1     -11.773  12.676  67.906  1.00  0.00    -0.412 C  
BRANCH   3   4
HETATM    4  C   UNL     1     -10.681  11.693  67.477  1.00  0.00    -0.257 C  
BRANCH   4   5
HETATM    5  C   UNL     1     -10.473  11.686  65.963  1.00  0.00    -0.294 C  
HETATM    6  O   UNL     1      -9.766  10.350  64.128  1.00  0.00    -0.297 OA 
HETATM    7  C   UNL     1      -9.939  10.364  65.470  1.00  0.00    -0.282 C  
HETATM    8  O   UNL     1      -9.692   9.395  66.172  1.00  0.00    -0.224 OA 
ENDBRANCH   4   5
ENDBRANCH   3   4
ENDBRANCH   1   3
BRANCH   2   9
HETATM    9  C   UNL     1     -12.574  10.722  70.214  1.00  0.00    -0.350 C  
BRANCH   9  10
HETATM   10  C   UNL     1     -11.792   9.648  70.987  1.00  0.00    -0.428 C  
HETATM   11  H   UNL     1     -11.737   6.130  69.328  1.00  0.00     0.000 HD 
HETATM   12  C   UNL     1     -12.717   8.835  71.907  1.00  0.00    -0.374 C  
HETATM   13  O   UNL     1     -12.132   6.355  70.162  1.00  0.00    -0.266 OA 
HETATM   14  O   UNL     1     -13.903   8.424  71.229  1.00  0.00    -0.549 OA 
HETATM   15  C   UNL     1     -11.899   7.595  72.227  1.00  0.00    -0.354 C  
HETATM   16  C   UNL     1     -11.107   8.565  70.107  1.00  0.00    -0.192 C  
HETATM   17  H   UNL     1     -14.475   7.922  71.798  1.00  0.00     0.000 HD 
HETATM   18  C   UNL     1     -11.264   7.233  70.885  1.00  0.00    -0.272 C  
BRANCH  16  19
HETATM   19  C   UNL     1      -9.667   8.878  69.771  1.00  0.00    -0.180 C  
HETATM   20  C   UNL     1      -8.841   9.629  70.522  1.00  0.00    -0.169 C  
BRANCH  20  21
HETATM   21  C   UNL     1      -7.429  10.008  70.169  1.00  0.00    -0.166 C  
HETATM   22  O   UNL     1      -6.752   8.899  69.589  1.00  0.00    -0.044 OA 
HETATM   23  H   UNL     1      -5.860   9.138  69.366  1.00  0.00     0.000 HD 
BRANCH  21  24
HETATM   24  C   UNL     1      -7.385  11.174  69.176  1.00  0.00    -0.115 C  
BRANCH  24  25
HETATM   25  C   UNL     1      -6.289  11.079  68.108  1.00  0.00    -0.056 C  
BRANCH  25  26
HETATM   26  C   UNL     1      -6.793  11.416  66.706  1.00  0.00    -0.132 C  
BRANCH  26  27
HETATM   27  C   UNL     1      -6.042  10.628  65.634  1.00  0.00    -0.124 C  
HETATM   28  C   UNL     1      -5.495   9.328  66.200  1.00  0.00    -0.044 C  
ENDBRANCH  26  27
ENDBRANCH  25  26
ENDBRANCH  24  25
ENDBRANCH  21  24
ENDBRANCH  20  21
ENDBRANCH  16  19
ENDBRANCH   9  10
ENDBRANCH   2   9
TORSDOF 11
ENDMDL
MODEL      205
REMARK 921   NORMALIZED FREE ENERGY PREDICTED BY IDOCK:   -3.75 KCAL/MOL
REMARK 922        TOTAL FREE ENERGY PREDICTED BY IDOCK:   -8.55 KCAL/MOL
REMARK 923 INTER-LIGAND FREE ENERGY PREDICTED BY IDOCK:   -6.15 KCAL/MOL
REMARK 924 INTRA-LIGAND FREE ENERGY PREDICTED BY IDOCK:   -2.40 KCAL/MOL
REMARK 927      BINDING AFFINITY PREDICTED BY RF-SCORE:    0.00 PKD
ROOT
HETATM    1  C   UNL     1     -10.292  15.887  68.272  1.00  0.00    -0.242 C  
HETATM    2  C   UNL     1      -9.176  15.265  68.679  1.00  0.00    -0.201 C  
ENDROOT
BRANCH   1   3
HETATM    3  C   UNL     1     -10.392  16.931  67.194  1.00  0.00    -0.304 C  
BRANCH   3   4
HETATM    4  C   UNL     1     -10.234  16.321  65.800  1.00  0.00    -0.390 C  
BRANCH   4   5
HETATM    5  C   UNL     1     -10.982  14.995  65.662  1.00  0.00    -0.357 C  
HETATM    6  O   UNL     1     -12.662  13.857  64.423  1.00  0.00    -0.656 OA 
HETATM    7  C   UNL     1     -12.007  15.034  64.556  1.00  0.00    -0.371 C  
HETATM    8  O   UNL     1     -12.237  15.995  63.838  1.00  0.00    -0.883 OA 
ENDBRANCH   4   5
ENDBRANCH   3   4
ENDBRANCH   1   3
BRANCH   2   9
HETATM    9  C   UNL     1      -7.779  15.524  68.183  1.00  0.00    -0.126 C  
BRANCH   9  10
HETATM   10  C   UNL     1      -6.916  14.280  67.918  1.00  0.00    -0.174 C  
HETATM   11  H   UNL     1      -7.679  11.223  70.197  1.00  0.00     0.000 HD 
HETATM   12  C   UNL     1      -5.688  14.243  68.841  1.00  0.00    -0.086 C  
HETATM   13  O   UNL     1      -6.868  11.716  70.167  1.00  0.00    -0.019 OA 
HETATM   14  O   UNL     1      -6.039  14.521  70.195  1.00  0.00    -0.136 OA 
HETATM   15  C   UNL     1      -5.225  12.797  68.758  1.00  0.00    -0.063 C  
HETATM   16  C   UNL     1      -7.617  12.919  68.184  1.00  0.00    -0.135 C  
HETATM   17  H   UNL     1      -5.280  14.498  70.766  1.00  0.00     0.000 HD 
HETATM   18  C   UNL     1      -6.530  12.004  68.807  1.00  0.00    -0.077 C  
BRANCH  16  19
HETATM   19  C   UNL     1      -8.253  12.313  66.955  1.00  0.00    -0.155 C  
HETATM   20  C   UNL     1      -9.543  11.946  66.851  1.00  0.00    -0.208 C  
BRANCH  20  21
HETATM   21  C   UNL     1     -10.177  11.278  65.661  1.00  0.00    -0.253 C  
HETATM   22  O   UNL     1     -10.071  12.113  64.514  1.00  0.00    -0.284 OA 
HETATM   23  H   UNL     1     -10.471  11.692  63.762  1.00  0.00     0.000 HD 
BRANCH  21  24
HETATM   24  C   UNL     1      -9.512   9.934  65.344  1.00  0.00    -0.319 C  
BRANCH  24  25
HETATM   25  C   UNL     1      -9.927   8.772  66.254  1.00  0.00    -0.315 C  
BRANCH  25  26
HETATM   26  C   UNL     1      -8.749   7.893  66.670  1.00  0.00    -0.154 C  
BRANCH  26  27
HETATM   27  C   UNL     1      -7.913   8.553  67.765  1.00  0.00    -0.107 C  
HETATM   28  C   UNL     1      -8.780   8.934  68.954  1.00  0.00    -0.136 C  
ENDBRANCH  26  27
ENDBRANCH  25  26
ENDBRANCH  24  25
ENDBRANCH  21  24
ENDBRANCH  20  21
ENDBRANCH  16  19
ENDBRANCH   9  10
ENDBRANCH   2   9
TORSDOF 11
ENDMDL
MODEL      206
REMARK 921   NORMALIZED FREE ENERGY PREDICTED BY IDOCK:   -3.74 KCAL/MOL
REMARK 922        TOTAL FREE ENERGY PREDICTED BY IDOCK:   -8.55 KCAL/MOL
REMARK 923 INTER-LIGAND FREE ENERGY PREDICTED BY IDOCK:   -7.25 KCAL/MOL
REMARK 924 INTRA-LIGAND FREE ENERGY PREDICTED BY IDOCK:   -1.30 KCAL/MOL
REMARK 927      BINDING AFFINITY PREDICTED BY RF-SCORE:    0.00 PKD
ROOT
HETATM    1  C   UNL     1      -7.283   9.723  65.322  1.00  0.00    -0.120 C  
HETATM    2  C   UNL     1      -8.445  10.210  64.862  1.00  0.00    -0.178 C  
ENDROOT
BRANCH   1   3
HETATM    3  C   UNL     1      -6.868   9.610  66.763  1.00  0.00    -0.084 C  
BRANCH   3   4
HETATM    4  C   UNL     1      -7.415   8.337  67.411  1.00  0.00    -0.094 C  
BRANCH   4   5
HETATM    5  C   UNL     1      -8.374   8.640  68.562  1.00  0.00    -0.123 C  
HETATM    6  O   UNL     1      -9.051   7.947  70.732  1.00  0.00    -0.149 OA 
HETATM    7  C   UNL     1      -8.211   7.672  69.707  1.00  0.00    -0.131 C  
HETATM    8  O   UNL     1      -7.417   6.745  69.742  1.00  0.00    -0.087 OA 
ENDBRANCH   4   5
ENDBRANCH   3   4
ENDBRANCH   1   3
BRANCH   2   9
HETATM    9  C   UNL     1      -9.553  10.803  65.690  1.00  0.00    -0.263 C  
BRANCH   9  10
HETATM   10  C   UNL     1     -10.122  12.142  65.193  1.00  0.00    -0.288 C  
HETATM   11  H   UNL     1     -13.941  12.625  65.753  1.00  0.00     0.000 HD 
HETATM   12  C   UNL     1     -10.683  12.016  63.767  1.00  0.00    -0.423 C  
HETATM   13  O   UNL     1     -13.495  12.574  64.915  1.00  0.00    -0.564 OA 
HETATM   14  O   UNL     1     -11.506  10.860  63.625  1.00  0.00    -0.245 OA 
HETATM   15  C   UNL     1     -11.564  13.247  63.622  1.00  0.00    -0.376 C  
HETATM   16  C   UNL     1     -11.321  12.697  66.010  1.00  0.00    -0.369 C  
HETATM   17  H   UNL     1     -11.852  10.783  62.744  1.00  0.00     0.000 HD 
HETATM   18  C   UNL     1     -12.281  13.329  64.969  1.00  0.00    -0.432 C  
BRANCH  16  19
HETATM   19  C   UNL     1     -10.918  13.668  67.095  1.00  0.00    -0.299 C  
HETATM   20  C   UNL     1     -11.734  14.148  68.050  1.00  0.00    -0.394 C  
BRANCH  20  21
HETATM   21  C   UNL     1     -11.368  15.167  69.094  1.00  0.00    -0.298 C  
HETATM   22  O   UNL     1     -11.363  16.472  68.528  1.00  0.00    -0.356 OA 
HETATM   23  H   UNL     1     -11.132  17.116  69.186  1.00  0.00     0.000 HD 
BRANCH  21  24
HETATM   24  C   UNL     1     -12.353  15.155  70.269  1.00  0.00    -0.398 C  
BRANCH  24  25
HETATM   25  C   UNL     1     -12.061  14.108  71.351  1.00  0.00    -0.306 C  
BRANCH  25  26
HETATM   26  C   UNL     1     -13.329  13.499  71.946  1.00  0.00    -0.529 C  
BRANCH  26  27
HETATM   27  C   UNL     1     -13.335  11.977  71.818  1.00  0.00    -0.338 C  
HETATM   28  C   UNL     1     -12.453  11.526  70.665  1.00  0.00    -0.405 C  
ENDBRANCH  26  27
ENDBRANCH  25  26
ENDBRANCH  24  25
ENDBRANCH  21  24
ENDBRANCH  20  21
ENDBRANCH  16  19
ENDBRANCH   9  10
ENDBRANCH   2   9
TORSDOF 11
ENDMDL
MODEL      207
REMARK 921   NORMALIZED FREE ENERGY PREDICTED BY IDOCK:   -3.74 KCAL/MOL
REMARK 922        TOTAL FREE ENERGY PREDICTED BY IDOCK:   -8.54 KCAL/MOL
REMARK 923 INTER-LIGAND FREE ENERGY PREDICTED BY IDOCK:   -7.46 KCAL/MOL
REMARK 924 INTRA-LIGAND FREE ENERGY PREDICTED BY IDOCK:   -1.07 KCAL/MOL
REMARK 927      BINDING AFFINITY PREDICTED BY RF-SCORE:    0.00 PKD
ROOT
HETATM    1  C   UNL     1      -9.514   6.647  68.722  1.00  0.00    -0.129 C  
HETATM    2  C   UNL     1      -8.998   7.510  67.834  1.00  0.00    -0.131 C  
ENDROOT
BRANCH   1   3
HETATM    3  C   UNL     1     -10.900   6.064  68.702  1.00  0.00    -0.379 C  
BRANCH   3   4
HETATM    4  C   UNL     1     -11.669   6.392  69.983  1.00  0.00    -0.345 C  
BRANCH   4   5
HETATM    5  C   UNL     1     -10.947   5.891  71.234  1.00  0.00    -0.325 C  
HETATM    6  O   UNL     1     -10.667   6.256  73.567  1.00  0.00    -0.262 OA 
HETATM    7  C   UNL     1     -11.294   6.706  72.455  1.00  0.00    -0.272 C  
HETATM    8  O   UNL     1     -12.058   7.659  72.475  1.00  0.00    -0.257 OA 
ENDBRANCH   4   5
ENDBRANCH   3   4
ENDBRANCH   1   3
BRANCH   2   9
HETATM    9  C   UNL     1      -9.720   8.124  66.664  1.00  0.00    -0.318 C  
BRANCH   9  10
HETATM   10  C   UNL     1      -9.002   9.291  65.968  1.00  0.00    -0.215 C  
HETATM   11  H   UNL     1     -10.349  10.186  62.431  1.00  0.00     0.000 HD 
HETATM   12  C   UNL     1      -7.876   8.788  65.049  1.00  0.00    -0.111 C  
HETATM   13  O   UNL     1      -9.482   9.858  62.638  1.00  0.00    -0.275 OA 
HETATM   14  O   UNL     1      -8.310   7.703  64.232  1.00  0.00    -0.346 OA 
HETATM   15  C   UNL     1      -7.595   9.979  64.148  1.00  0.00    -0.140 C  
HETATM   16  C   UNL     1      -9.890  10.147  65.023  1.00  0.00    -0.392 C  
HETATM   17  H   UNL     1      -7.614   7.392  63.665  1.00  0.00     0.000 HD 
HETATM   18  C   UNL     1      -8.989  10.507  63.814  1.00  0.00    -0.215 C  
BRANCH  16  19
HETATM   19  C   UNL     1     -10.486  11.366  65.690  1.00  0.00    -0.316 C  
HETATM   20  C   UNL     1     -11.440  12.151  65.159  1.00  0.00    -0.376 C  
BRANCH  20  21
HETATM   21  C   UNL     1     -11.994  13.406  65.777  1.00  0.00    -0.407 C  
HETATM   22  O   UNL     1     -13.209  13.777  65.136  1.00  0.00    -0.757 OA 
HETATM   23  H   UNL     1     -13.558  14.569  65.526  1.00  0.00     0.000 HD 
BRANCH  21  24
HETATM   24  C   UNL     1     -12.273  13.226  67.274  1.00  0.00    -0.258 C  
BRANCH  24  25
HETATM   25  C   UNL     1     -11.699  14.322  68.179  1.00  0.00    -0.385 C  
BRANCH  25  26
HETATM   26  C   UNL     1     -10.743  15.260  67.445  1.00  0.00    -0.293 C  
BRANCH  26  27
HETATM   27  C   UNL     1      -9.881  16.060  68.420  1.00  0.00    -0.213 C  
HETATM   28  C   UNL     1     -10.126  17.551  68.263  1.00  0.00    -0.346 C  
ENDBRANCH  26  27
ENDBRANCH  25  26
ENDBRANCH  24  25
ENDBRANCH  21  24
ENDBRANCH  20  21
ENDBRANCH  16  19
ENDBRANCH   9  10
ENDBRANCH   2   9
TORSDOF 11
ENDMDL
MODEL      208
REMARK 921   NORMALIZED FREE ENERGY PREDICTED BY IDOCK:   -3.73 KCAL/MOL
REMARK 922        TOTAL FREE ENERGY PREDICTED BY IDOCK:   -8.52 KCAL/MOL
REMARK 923 INTER-LIGAND FREE ENERGY PREDICTED BY IDOCK:   -7.21 KCAL/MOL
REMARK 924 INTRA-LIGAND FREE ENERGY PREDICTED BY IDOCK:   -1.31 KCAL/MOL
REMARK 927      BINDING AFFINITY PREDICTED BY RF-SCORE:    0.00 PKD
ROOT
HETATM    1  C   UNL     1      -9.409  13.194  67.719  1.00  0.00    -0.206 C  
HETATM    2  C   UNL     1      -8.394  12.477  68.222  1.00  0.00    -0.167 C  
ENDROOT
BRANCH   1   3
HETATM    3  C   UNL     1     -10.855  12.785  67.669  1.00  0.00    -0.252 C  
BRANCH   3   4
HETATM    4  C   UNL     1     -11.767  13.969  67.343  1.00  0.00    -0.421 C  
BRANCH   4   5
HETATM    5  C   UNL     1     -10.981  15.266  67.149  1.00  0.00    -0.331 C  
HETATM    6  O   UNL     1     -10.014  16.701  65.519  1.00  0.00    -0.552 OA 
HETATM    7  C   UNL     1     -10.698  15.546  65.694  1.00  0.00    -0.366 C  
HETATM    8  O   UNL     1     -11.041  14.841  64.758  1.00  0.00    -0.387 OA 
ENDBRANCH   4   5
ENDBRANCH   3   4
ENDBRANCH   1   3
BRANCH   2   9
HETATM    9  C   UNL     1      -8.479  11.085  68.788  1.00  0.00    -0.144 C  
BRANCH   9  10
HETATM   10  C   UNL     1      -9.257  10.062  67.944  1.00  0.00    -0.145 C  
HETATM   11  H   UNL     1      -8.025   6.386  68.252  1.00  0.00     0.000 HD 
HETATM   12  C   UNL     1      -8.580   9.827  66.584  1.00  0.00    -0.128 C  
HETATM   13  O   UNL     1      -8.005   6.924  67.469  1.00  0.00    -0.110 OA 
HETATM   14  O   UNL     1      -7.174   9.629  66.725  1.00  0.00    -0.089 OA 
HETATM   15  C   UNL     1      -9.197   8.525  66.101  1.00  0.00    -0.269 C  
HETATM   16  C   UNL     1      -9.357   8.637  68.556  1.00  0.00    -0.138 C  
HETATM   17  H   UNL     1      -6.756   9.484  65.884  1.00  0.00     0.000 HD 
HETATM   18  C   UNL     1      -9.228   7.659  67.359  1.00  0.00    -0.132 C  
BRANCH  16  19
HETATM   19  C   UNL     1     -10.614   8.409  69.362  1.00  0.00    -0.204 C  
HETATM   20  C   UNL     1     -10.700   8.483  70.702  1.00  0.00    -0.251 C  
BRANCH  20  21
HETATM   21  C   UNL     1     -11.925   8.191  71.525  1.00  0.00    -0.298 C  
HETATM   22  O   UNL     1     -11.590   7.358  72.629  1.00  0.00    -0.429 OA 
HETATM   23  H   UNL     1     -12.363   7.174  73.149  1.00  0.00     0.000 HD 
BRANCH  21  24
HETATM   24  C   UNL     1     -12.564   9.475  72.066  1.00  0.00    -0.456 C  
BRANCH  24  25
HETATM   25  C   UNL     1     -13.097  10.436  70.997  1.00  0.00    -0.450 C  
BRANCH  25  26
HETATM   26  C   UNL     1     -12.162  11.617  70.739  1.00  0.00    -0.443 C  
BRANCH  26  27
HETATM   27  C   UNL     1     -12.854  12.951  71.015  1.00  0.00    -0.268 C  
HETATM   28  C   UNL     1     -13.474  12.964  72.402  1.00  0.00    -0.573 C  
ENDBRANCH  26  27
ENDBRANCH  25  26
ENDBRANCH  24  25
ENDBRANCH  21  24
ENDBRANCH  20  21
ENDBRANCH  16  19
ENDBRANCH   9  10
ENDBRANCH   2   9
TORSDOF 11
ENDMDL
MODEL      209
REMARK 921   NORMALIZED FREE ENERGY PREDICTED BY IDOCK:   -3.72 KCAL/MOL
REMARK 922        TOTAL FREE ENERGY PREDICTED BY IDOCK:   -8.51 KCAL/MOL
REMARK 923 INTER-LIGAND FREE ENERGY PREDICTED BY IDOCK:   -6.22 KCAL/MOL
REMARK 924 INTRA-LIGAND FREE ENERGY PREDICTED BY IDOCK:   -2.29 KCAL/MOL
REMARK 927      BINDING AFFINITY PREDICTED BY RF-SCORE:    0.00 PKD
ROOT
HETATM    1  C   UNL     1     -10.101  15.620  67.193  1.00  0.00    -0.256 C  
HETATM    2  C   UNL     1      -8.993  15.038  66.710  1.00  0.00    -0.293 C  
ENDROOT
BRANCH   1   3
HETATM    3  C   UNL     1     -10.444  15.829  68.642  1.00  0.00    -0.231 C  
BRANCH   3   4
HETATM    4  C   UNL     1     -11.766  15.156  69.013  1.00  0.00    -0.358 C  
BRANCH   4   5
HETATM    5  C   UNL     1     -11.900  13.765  68.391  1.00  0.00    -0.411 C  
HETATM    6  O   UNL     1     -12.193  11.459  68.888  1.00  0.00    -0.458 OA 
HETATM    7  C   UNL     1     -12.061  12.690  69.436  1.00  0.00    -0.179 C  
HETATM    8  O   UNL     1     -12.085  12.874  70.644  1.00  0.00    -0.349 OA 
ENDBRANCH   4   5
ENDBRANCH   3   4
ENDBRANCH   1   3
BRANCH   2   9
HETATM    9  C   UNL     1      -7.887  14.418  67.520  1.00  0.00    -0.207 C  
BRANCH   9  10
HETATM   10  C   UNL     1      -7.619  12.926  67.262  1.00  0.00    -0.104 C  
HETATM   11  H   UNL     1     -10.066  10.477  69.033  1.00  0.00     0.000 HD 
HETATM   12  C   UNL     1      -6.736  12.318  68.364  1.00  0.00    -0.064 C  
HETATM   13  O   UNL     1      -9.133  10.554  69.191  1.00  0.00    -0.178 OA 
HETATM   14  O   UNL     1      -7.189  12.688  69.665  1.00  0.00    -0.308 OA 
HETATM   15  C   UNL     1      -6.942  10.821  68.197  1.00  0.00    -0.072 C  
HETATM   16  C   UNL     1      -8.879  12.017  67.258  1.00  0.00    -0.183 C  
HETATM   17  H   UNL     1      -6.643  12.312  70.345  1.00  0.00     0.000 HD 
HETATM   18  C   UNL     1      -8.444  10.697  67.945  1.00  0.00    -0.120 C  
BRANCH  16  19
HETATM   19  C   UNL     1      -9.462  11.794  65.882  1.00  0.00    -0.239 C  
HETATM   20  C   UNL     1     -10.761  11.932  65.558  1.00  0.00    -0.329 C  
BRANCH  20  21
HETATM   21  C   UNL     1     -11.369  11.647  64.212  1.00  0.00    -0.284 C  
HETATM   22  O   UNL     1     -12.418  12.569  63.941  1.00  0.00    -0.554 OA 
HETATM   23  H   UNL     1     -12.802  12.389  63.091  1.00  0.00     0.000 HD 
BRANCH  21  24
HETATM   24  C   UNL     1     -10.332  11.751  63.088  1.00  0.00    -0.364 C  
BRANCH  24  25
HETATM   25  C   UNL     1      -9.659  10.429  62.700  1.00  0.00    -0.274 C  
BRANCH  25  26
HETATM   26  C   UNL     1      -8.134  10.522  62.674  1.00  0.00    -0.183 C  
BRANCH  26  27
HETATM   27  C   UNL     1      -7.498   9.609  63.721  1.00  0.00    -0.122 C  
HETATM   28  C   UNL     1      -6.356  10.315  64.433  1.00  0.00    -0.099 C  
ENDBRANCH  26  27
ENDBRANCH  25  26
ENDBRANCH  24  25
ENDBRANCH  21  24
ENDBRANCH  20  21
ENDBRANCH  16  19
ENDBRANCH   9  10
ENDBRANCH   2   9
TORSDOF 11
ENDMDL
MODEL      210
REMARK 921   NORMALIZED FREE ENERGY PREDICTED BY IDOCK:   -3.72 KCAL/MOL
REMARK 922        TOTAL FREE ENERGY PREDICTED BY IDOCK:   -8.50 KCAL/MOL
REMARK 923 INTER-LIGAND FREE ENERGY PREDICTED BY IDOCK:   -6.77 KCAL/MOL
REMARK 924 INTRA-LIGAND FREE ENERGY PREDICTED BY IDOCK:   -1.73 KCAL/MOL
REMARK 927      BINDING AFFINITY PREDICTED BY RF-SCORE:    0.00 PKD
ROOT
HETATM    1  C   UNL     1     -11.927   9.706  71.594  1.00  0.00    -0.470 C  
HETATM    2  C   UNL     1     -11.331  10.148  70.477  1.00  0.00    -0.416 C  
ENDROOT
BRANCH   1   3
HETATM    3  C   UNL     1     -12.244   8.275  71.933  1.00  0.00    -0.383 C  
BRANCH   3   4
HETATM    4  C   UNL     1     -11.241   7.697  72.933  1.00  0.00    -0.426 C  
BRANCH   4   5
HETATM    5  C   UNL     1      -9.822   8.210  72.691  1.00  0.00    -0.364 C  
HETATM    6  O   UNL     1      -7.803   7.791  71.508  1.00  0.00    -0.082 OA 
HETATM    7  C   UNL     1      -9.056   7.332  71.734  1.00  0.00    -0.130 C  
HETATM    8  O   UNL     1      -9.489   6.322  71.199  1.00  0.00    -0.169 OA 
ENDBRANCH   4   5
ENDBRANCH   3   4
ENDBRANCH   1   3
BRANCH   2   9
HETATM    9  C   UNL     1     -10.909   9.311  69.300  1.00  0.00    -0.170 C  
BRANCH   9  10
HETATM   10  C   UNL     1      -9.706   9.835  68.498  1.00  0.00    -0.164 C  
HETATM   11  H   UNL     1     -10.010   9.478  64.637  1.00  0.00     0.000 HD 
HETATM   12  C   UNL     1      -8.706   8.708  68.192  1.00  0.00    -0.142 C  
HETATM   13  O   UNL     1      -9.373   9.048  65.196  1.00  0.00    -0.176 OA 
HETATM   14  O   UNL     1      -9.363   7.540  67.702  1.00  0.00    -0.136 OA 
HETATM   15  C   UNL     1      -7.858   9.282  67.068  1.00  0.00    -0.098 C  
HETATM   16  C   UNL     1     -10.044  10.416  67.098  1.00  0.00    -0.254 C  
HETATM   17  H   UNL     1      -8.744   6.844  67.513  1.00  0.00     0.000 HD 
HETATM   18  C   UNL     1      -8.883   9.974  66.170  1.00  0.00    -0.148 C  
BRANCH  16  19
HETATM   19  C   UNL     1     -10.254  11.912  67.096  1.00  0.00    -0.230 C  
HETATM   20  C   UNL     1     -10.054  12.724  68.150  1.00  0.00    -0.239 C  
BRANCH  20  21
HETATM   21  C   UNL     1     -10.324  14.204  68.187  1.00  0.00    -0.239 C  
HETATM   22  O   UNL     1      -9.608  14.809  69.257  1.00  0.00    -0.346 OA 
HETATM   23  H   UNL     1      -9.778  15.743  69.281  1.00  0.00     0.000 HD 
BRANCH  21  24
HETATM   24  C   UNL     1      -9.909  14.889  66.880  1.00  0.00    -0.246 C  
BRANCH  24  25
HETATM   25  C   UNL     1     -11.059  15.204  65.917  1.00  0.00    -0.319 C  
BRANCH  25  26
HETATM   26  C   UNL     1     -10.944  14.459  64.588  1.00  0.00    -0.367 C  
BRANCH  26  27
HETATM   27  C   UNL     1     -12.218  13.677  64.270  1.00  0.00    -0.445 C  
HETATM   28  C   UNL     1     -11.889  12.355  63.597  1.00  0.00    -0.610 C  
ENDBRANCH  26  27
ENDBRANCH  25  26
ENDBRANCH  24  25
ENDBRANCH  21  24
ENDBRANCH  20  21
ENDBRANCH  16  19
ENDBRANCH   9  10
ENDBRANCH   2   9
TORSDOF 11
ENDMDL
MODEL      211
REMARK 921   NORMALIZED FREE ENERGY PREDICTED BY IDOCK:   -3.71 KCAL/MOL
REMARK 922        TOTAL FREE ENERGY PREDICTED BY IDOCK:   -8.49 KCAL/MOL
REMARK 923 INTER-LIGAND FREE ENERGY PREDICTED BY IDOCK:   -7.25 KCAL/MOL
REMARK 924 INTRA-LIGAND FREE ENERGY PREDICTED BY IDOCK:   -1.24 KCAL/MOL
REMARK 927      BINDING AFFINITY PREDICTED BY RF-SCORE:    0.00 PKD
ROOT
HETATM    1  C   UNL     1      -7.548   9.926  65.298  1.00  0.00    -0.130 C  
HETATM    2  C   UNL     1      -8.642  10.155  64.556  1.00  0.00    -0.198 C  
ENDROOT
BRANCH   1   3
HETATM    3  C   UNL     1      -7.470   9.921  66.799  1.00  0.00    -0.095 C  
BRANCH   3   4
HETATM    4  C   UNL     1      -7.732  11.310  67.384  1.00  0.00    -0.128 C  
BRANCH   4   5
HETATM    5  C   UNL     1      -6.664  11.722  68.397  1.00  0.00    -0.065 C  
HETATM    6  O   UNL     1      -5.674  11.156  70.483  1.00  0.00    -0.120 OA 
HETATM    7  C   UNL     1      -6.628  10.801  69.590  1.00  0.00    -0.114 C  
HETATM    8  O   UNL     1      -7.353   9.832  69.759  1.00  0.00    -0.084 OA 
ENDBRANCH   4   5
ENDBRANCH   3   4
ENDBRANCH   1   3
BRANCH   2   9
HETATM    9  C   UNL     1     -10.009  10.515  65.071  1.00  0.00    -0.388 C  
BRANCH   9  10
HETATM   10  C   UNL     1     -10.230  11.996  65.418  1.00  0.00    -0.295 C  
HETATM   11  H   UNL     1     -13.930  13.188  65.301  1.00  0.00     0.000 HD 
HETATM   12  C   UNL     1     -10.255  12.869  64.153  1.00  0.00    -0.286 C  
HETATM   13  O   UNL     1     -13.222  13.488  64.742  1.00  0.00    -0.555 OA 
HETATM   14  O   UNL     1     -11.082  12.302  63.139  1.00  0.00    -0.669 OA 
HETATM   15  C   UNL     1     -10.901  14.161  64.626  1.00  0.00    -0.401 C  
HETATM   16  C   UNL     1     -11.581  12.320  66.114  1.00  0.00    -0.450 C  
HETATM   17  H   UNL     1     -11.097  12.842  62.357  1.00  0.00     0.000 HD 
HETATM   18  C   UNL     1     -12.040  13.679  65.524  1.00  0.00    -0.411 C  
BRANCH  16  19
HETATM   19  C   UNL     1     -11.497  12.338  67.622  1.00  0.00    -0.401 C  
HETATM   20  C   UNL     1     -11.432  11.249  68.409  1.00  0.00    -0.377 C  
BRANCH  20  21
HETATM   21  C   UNL     1     -11.419  11.246  69.913  1.00  0.00    -0.293 C  
HETATM   22  O   UNL     1     -12.352  12.195  70.415  1.00  0.00    -0.303 OA 
HETATM   23  H   UNL     1     -12.344  12.194  71.365  1.00  0.00     0.000 HD 
BRANCH  21  24
HETATM   24  C   UNL     1     -11.778   9.868  70.481  1.00  0.00    -0.373 C  
BRANCH  24  25
HETATM   25  C   UNL     1     -10.612   8.877  70.568  1.00  0.00    -0.262 C  
BRANCH  25  26
HETATM   26  C   UNL     1     -10.892   7.563  69.839  1.00  0.00    -0.250 C  
BRANCH  26  27
HETATM   27  C   UNL     1     -10.385   7.601  68.399  1.00  0.00    -0.228 C  
HETATM   28  C   UNL     1     -11.155   6.622  67.528  1.00  0.00    -0.374 C  
ENDBRANCH  26  27
ENDBRANCH  25  26
ENDBRANCH  24  25
ENDBRANCH  21  24
ENDBRANCH  20  21
ENDBRANCH  16  19
ENDBRANCH   9  10
ENDBRANCH   2   9
TORSDOF 11
ENDMDL
MODEL      212
REMARK 921   NORMALIZED FREE ENERGY PREDICTED BY IDOCK:   -3.70 KCAL/MOL
REMARK 922        TOTAL FREE ENERGY PREDICTED BY IDOCK:   -8.47 KCAL/MOL
REMARK 923 INTER-LIGAND FREE ENERGY PREDICTED BY IDOCK:   -7.03 KCAL/MOL
REMARK 924 INTRA-LIGAND FREE ENERGY PREDICTED BY IDOCK:   -1.43 KCAL/MOL
REMARK 927      BINDING AFFINITY PREDICTED BY RF-SCORE:    0.00 PKD
ROOT
HETATM    1  C   UNL     1      -8.336   8.007  71.742  1.00  0.00    -0.159 C  
HETATM    2  C   UNL     1      -9.269   8.447  72.599  1.00  0.00    -0.325 C  
ENDROOT
BRANCH   1   3
HETATM    3  C   UNL     1      -8.528   6.984  70.657  1.00  0.00    -0.139 C  
BRANCH   3   4
HETATM    4  C   UNL     1      -7.797   5.679  70.976  1.00  0.00    -0.105 C  
BRANCH   4   5
HETATM    5  C   UNL     1      -8.177   5.124  72.349  1.00  0.00    -0.117 C  
HETATM    6  O   UNL     1      -9.768   3.792  73.509  1.00  0.00    -0.106 OA 
HETATM    7  C   UNL     1      -9.436   4.296  72.297  1.00  0.00    -0.132 C  
HETATM    8  O   UNL     1     -10.098   4.075  71.294  1.00  0.00    -0.163 OA 
ENDBRANCH   4   5
ENDBRANCH   3   4
ENDBRANCH   1   3
BRANCH   2   9
HETATM    9  C   UNL     1     -10.691   7.963  72.695  1.00  0.00    -0.411 C  
BRANCH   9  10
HETATM   10  C   UNL     1     -11.639   8.435  71.581  1.00  0.00    -0.348 C  
HETATM   11  H   UNL     1     -12.759  12.152  71.828  1.00  0.00     0.000 HD 
HETATM   12  C   UNL     1     -13.111   8.308  72.008  1.00  0.00    -0.327 C  
HETATM   13  O   UNL     1     -13.320  11.387  71.897  1.00  0.00    -0.435 OA 
HETATM   14  O   UNL     1     -13.325   8.830  73.318  1.00  0.00    -0.915 OA 
HETATM   15  C   UNL     1     -13.845   9.196  71.016  1.00  0.00    -0.017 C  
HETATM   16  C   UNL     1     -11.501   9.931  71.182  1.00  0.00    -0.459 C  
HETATM   17  H   UNL     1     -14.235   8.751  73.581  1.00  0.00     0.000 HD 
HETATM   18  C   UNL     1     -12.945  10.425  70.907  1.00  0.00    -0.387 C  
BRANCH  16  19
HETATM   19  C   UNL     1     -10.572  10.163  70.014  1.00  0.00    -0.338 C  
HETATM   20  C   UNL     1     -10.702  11.145  69.103  1.00  0.00    -0.262 C  
BRANCH  20  21
HETATM   21  C   UNL     1      -9.829  11.349  67.895  1.00  0.00    -0.179 C  
HETATM   22  O   UNL     1     -10.305  10.569  66.805  1.00  0.00    -0.228 OA 
HETATM   23  H   UNL     1      -9.754  10.698  66.043  1.00  0.00     0.000 HD 
BRANCH  21  24
HETATM   24  C   UNL     1      -9.797  12.819  67.460  1.00  0.00    -0.211 C  
BRANCH  24  25
HETATM   25  C   UNL     1     -10.760  13.741  68.216  1.00  0.00    -0.264 C  
BRANCH  25  26
HETATM   26  C   UNL     1     -11.786  14.409  67.301  1.00  0.00    -0.434 C  
BRANCH  26  27
HETATM   27  C   UNL     1     -11.762  13.809  65.897  1.00  0.00    -0.370 C  
HETATM   28  C   UNL     1     -13.114  13.958  65.220  1.00  0.00    -0.205 C  
ENDBRANCH  26  27
ENDBRANCH  25  26
ENDBRANCH  24  25
ENDBRANCH  21  24
ENDBRANCH  20  21
ENDBRANCH  16  19
ENDBRANCH   9  10
ENDBRANCH   2   9
TORSDOF 11
ENDMDL
MODEL      213
REMARK 921   NORMALIZED FREE ENERGY PREDICTED BY IDOCK:   -3.69 KCAL/MOL
REMARK 922        TOTAL FREE ENERGY PREDICTED BY IDOCK:   -8.45 KCAL/MOL
REMARK 923 INTER-LIGAND FREE ENERGY PREDICTED BY IDOCK:   -6.74 KCAL/MOL
REMARK 924 INTRA-LIGAND FREE ENERGY PREDICTED BY IDOCK:   -1.71 KCAL/MOL
REMARK 927      BINDING AFFINITY PREDICTED BY RF-SCORE:    0.00 PKD
ROOT
HETATM    1  C   UNL     1      -8.033  14.283  68.595  1.00  0.00    -0.139 C  
HETATM    2  C   UNL     1      -8.278  13.695  67.415  1.00  0.00    -0.187 C  
ENDROOT
BRANCH   1   3
HETATM    3  C   UNL     1      -8.680  15.535  69.122  1.00  0.00    -0.247 C  
BRANCH   3   4
HETATM    4  C   UNL     1      -8.189  16.779  68.380  1.00  0.00    -0.224 C  
BRANCH   4   5
HETATM    5  C   UNL     1      -6.979  17.418  69.061  1.00  0.00    -0.238 C  
HETATM    6  O   UNL     1      -5.923  19.491  69.553  1.00  0.00    -0.241 OA 
HETATM    7  C   UNL     1      -6.987  18.921  68.939  1.00  0.00    -0.311 C  
HETATM    8  O   UNL     1      -7.844  19.581  68.371  1.00  0.00    -0.319 OA 
ENDBRANCH   4   5
ENDBRANCH   3   4
ENDBRANCH   1   3
BRANCH   2   9
HETATM    9  C   UNL     1      -9.206  14.198  66.343  1.00  0.00    -0.209 C  
BRANCH   9  10
HETATM   10  C   UNL     1     -10.598  13.547  66.298  1.00  0.00    -0.288 C  
HETATM   11  H   UNL     1     -11.823  12.507  62.756  1.00  0.00     0.000 HD 
HETATM   12  C   UNL     1     -11.693  14.587  66.010  1.00  0.00    -0.345 C  
HETATM   13  O   UNL     1     -12.216  13.164  63.319  1.00  0.00    -0.660 OA 
HETATM   14  O   UNL     1     -11.333  15.443  64.927  1.00  0.00    -0.390 OA 
HETATM   15  C   UNL     1     -12.879  13.742  65.574  1.00  0.00    -0.464 C  
HETATM   16  C   UNL     1     -10.798  12.485  65.181  1.00  0.00    -0.323 C  
HETATM   17  H   UNL     1     -12.010  16.086  64.749  1.00  0.00     0.000 HD 
HETATM   18  C   UNL     1     -12.247  12.686  64.667  1.00  0.00    -0.452 C  
BRANCH  16  19
HETATM   19  C   UNL     1     -10.532  11.069  65.636  1.00  0.00    -0.293 C  
HETATM   20  C   UNL     1     -10.730  10.605  66.883  1.00  0.00    -0.297 C  
BRANCH  20  21
HETATM   21  C   UNL     1     -10.405   9.219  67.370  1.00  0.00    -0.263 C  
HETATM   22  O   UNL     1     -10.339   8.315  66.274  1.00  0.00    -0.439 OA 
HETATM   23  H   UNL     1     -10.134   7.440  66.581  1.00  0.00     0.000 HD 
BRANCH  21  24
HETATM   24  C   UNL     1      -9.065   9.178  68.112  1.00  0.00    -0.134 C  
BRANCH  24  25
HETATM   25  C   UNL     1      -7.875   8.690  67.278  1.00  0.00    -0.097 C  
BRANCH  25  26
HETATM   26  C   UNL     1      -7.064   9.835  66.672  1.00  0.00    -0.086 C  
BRANCH  26  27
HETATM   27  C   UNL     1      -6.427  10.707  67.752  1.00  0.00    -0.060 C  
HETATM   28  C   UNL     1      -5.449   9.902  68.591  1.00  0.00    -0.035 C  
ENDBRANCH  26  27
ENDBRANCH  25  26
ENDBRANCH  24  25
ENDBRANCH  21  24
ENDBRANCH  20  21
ENDBRANCH  16  19
ENDBRANCH   9  10
ENDBRANCH   2   9
TORSDOF 11
ENDMDL
MODEL      214
REMARK 921   NORMALIZED FREE ENERGY PREDICTED BY IDOCK:   -3.69 KCAL/MOL
REMARK 922        TOTAL FREE ENERGY PREDICTED BY IDOCK:   -8.45 KCAL/MOL
REMARK 923 INTER-LIGAND FREE ENERGY PREDICTED BY IDOCK:   -6.91 KCAL/MOL
REMARK 924 INTRA-LIGAND FREE ENERGY PREDICTED BY IDOCK:   -1.54 KCAL/MOL
REMARK 927      BINDING AFFINITY PREDICTED BY RF-SCORE:    0.00 PKD
ROOT
HETATM    1  C   UNL     1     -11.144  10.768  67.646  1.00  0.00    -0.384 C  
HETATM    2  C   UNL     1     -10.769  10.050  68.715  1.00  0.00    -0.250 C  
ENDROOT
BRANCH   1   3
HETATM    3  C   UNL     1     -11.648  12.185  67.653  1.00  0.00    -0.413 C  
BRANCH   3   4
HETATM    4  C   UNL     1     -10.944  13.040  66.597  1.00  0.00    -0.301 C  
BRANCH   4   5
HETATM    5  C   UNL     1     -10.824  12.318  65.255  1.00  0.00    -0.332 C  
HETATM    6  O   UNL     1     -11.948  11.866  63.210  1.00  0.00    -0.445 OA 
HETATM    7  C   UNL     1     -12.057  12.493  64.404  1.00  0.00    -0.424 C  
HETATM    8  O   UNL     1     -13.050  13.130  64.720  1.00  0.00    -0.728 OA 
ENDBRANCH   4   5
ENDBRANCH   3   4
ENDBRANCH   1   3
BRANCH   2   9
HETATM    9  C   UNL     1     -10.833  10.490  70.153  1.00  0.00    -0.291 C  
BRANCH   9  10
HETATM   10  C   UNL     1     -10.672   9.380  71.205  1.00  0.00    -0.417 C  
HETATM   11  H   UNL     1     -11.991   5.882  70.133  1.00  0.00     0.000 HD 
HETATM   12  C   UNL     1     -11.941   9.231  72.060  1.00  0.00    -0.321 C  
HETATM   13  O   UNL     1     -12.327   6.420  70.841  1.00  0.00    -0.184 OA 
HETATM   14  O   UNL     1     -13.118   9.206  71.254  1.00  0.00    -0.428 OA 
HETATM   15  C   UNL     1     -11.776   7.864  72.703  1.00  0.00    -0.398 C  
HETATM   16  C   UNL     1     -10.444   7.953  70.634  1.00  0.00    -0.216 C  
HETATM   17  H   UNL     1     -13.902   9.114  71.782  1.00  0.00     0.000 HD 
HETATM   18  C   UNL     1     -11.237   6.999  71.564  1.00  0.00    -0.249 C  
BRANCH  16  19
HETATM   19  C   UNL     1      -8.987   7.573  70.514  1.00  0.00    -0.152 C  
HETATM   20  C   UNL     1      -8.498   6.624  69.696  1.00  0.00    -0.132 C  
BRANCH  20  21
HETATM   21  C   UNL     1      -7.061   6.184  69.615  1.00  0.00    -0.073 C  
HETATM   22  O   UNL     1      -6.788   5.208  70.613  1.00  0.00    -0.041 OA 
HETATM   23  H   UNL     1      -5.881   4.930  70.562  1.00  0.00     0.000 HD 
BRANCH  21  24
HETATM   24  C   UNL     1      -6.730   5.581  68.245  1.00  0.00    -0.054 C  
BRANCH  24  25
HETATM   25  C   UNL     1      -7.939   5.319  67.340  1.00  0.00    -0.100 C  
BRANCH  25  26
HETATM   26  C   UNL     1      -7.930   6.172  66.073  1.00  0.00    -0.110 C  
BRANCH  26  27
HETATM   27  C   UNL     1      -8.922   7.329  66.167  1.00  0.00    -0.179 C  
HETATM   28  C   UNL     1     -10.155   6.923  66.957  1.00  0.00    -0.287 C  
ENDBRANCH  26  27
ENDBRANCH  25  26
ENDBRANCH  24  25
ENDBRANCH  21  24
ENDBRANCH  20  21
ENDBRANCH  16  19
ENDBRANCH   9  10
ENDBRANCH   2   9
TORSDOF 11
ENDMDL
MODEL      215
REMARK 921   NORMALIZED FREE ENERGY PREDICTED BY IDOCK:   -3.68 KCAL/MOL
REMARK 922        TOTAL FREE ENERGY PREDICTED BY IDOCK:   -8.45 KCAL/MOL
REMARK 923 INTER-LIGAND FREE ENERGY PREDICTED BY IDOCK:   -6.79 KCAL/MOL
REMARK 924 INTRA-LIGAND FREE ENERGY PREDICTED BY IDOCK:   -1.66 KCAL/MOL
REMARK 927      BINDING AFFINITY PREDICTED BY RF-SCORE:    0.00 PKD
ROOT
HETATM    1  C   UNL     1     -11.868  12.790  67.942  1.00  0.00    -0.392 C  
HETATM    2  C   UNL     1     -11.054  11.819  68.383  1.00  0.00    -0.286 C  
ENDROOT
BRANCH   1   3
HETATM    3  C   UNL     1     -11.927  13.343  66.545  1.00  0.00    -0.452 C  
BRANCH   3   4
HETATM    4  C   UNL     1     -11.725  14.859  66.529  1.00  0.00    -0.204 C  
BRANCH   4   5
HETATM    5  C   UNL     1     -10.432  15.262  65.819  1.00  0.00    -0.365 C  
HETATM    6  O   UNL     1      -8.543  16.700  65.940  1.00  0.00    -0.473 OA 
HETATM    7  C   UNL     1      -9.695  16.350  66.559  1.00  0.00    -0.269 C  
HETATM    8  O   UNL     1     -10.060  16.870  67.602  1.00  0.00    -0.262 OA 
ENDBRANCH   4   5
ENDBRANCH   3   4
ENDBRANCH   1   3
BRANCH   2   9
HETATM    9  C   UNL     1      -9.984  11.123  67.586  1.00  0.00    -0.195 C  
BRANCH   9  10
HETATM   10  C   UNL     1      -9.815   9.619  67.857  1.00  0.00    -0.182 C  
HETATM   11  H   UNL     1      -6.592   8.025  66.374  1.00  0.00     0.000 HD 
HETATM   12  C   UNL     1     -10.368   8.776  66.697  1.00  0.00    -0.228 C  
HETATM   13  O   UNL     1      -7.487   7.818  66.132  1.00  0.00    -0.076 OA 
HETATM   14  O   UNL     1      -9.929   9.269  65.432  1.00  0.00    -0.438 OA 
HETATM   15  C   UNL     1      -9.739   7.410  66.919  1.00  0.00    -0.265 C  
HETATM   16  C   UNL     1      -8.346   9.131  67.996  1.00  0.00    -0.120 C  
HETATM   17  H   UNL     1     -10.271   8.748  64.715  1.00  0.00     0.000 HD 
HETATM   18  C   UNL     1      -8.299   7.743  67.307  1.00  0.00    -0.118 C  
BRANCH  16  19
HETATM   19  C   UNL     1      -7.853   9.091  69.424  1.00  0.00    -0.094 C  
HETATM   20  C   UNL     1      -8.175   8.149  70.329  1.00  0.00    -0.122 C  
BRANCH  20  21
HETATM   21  C   UNL     1      -7.751   8.131  71.772  1.00  0.00    -0.102 C  
HETATM   22  O   UNL     1      -6.981   9.289  72.074  1.00  0.00    -0.313 OA 
HETATM   23  H   UNL     1      -6.713   9.278  72.985  1.00  0.00     0.000 HD 
BRANCH  21  24
HETATM   24  C   UNL     1      -8.956   8.092  72.718  1.00  0.00    -0.313 C  
BRANCH  24  25
HETATM   25  C   UNL     1     -10.295   8.484  72.081  1.00  0.00    -0.409 C  
BRANCH  25  26
HETATM   26  C   UNL     1     -11.324   7.355  72.116  1.00  0.00    -0.311 C  
BRANCH  26  27
HETATM   27  C   UNL     1     -11.858   7.039  70.721  1.00  0.00    -0.401 C  
HETATM   28  C   UNL     1     -11.113   5.864  70.108  1.00  0.00    -0.395 C  
ENDBRANCH  26  27
ENDBRANCH  25  26
ENDBRANCH  24  25
ENDBRANCH  21  24
ENDBRANCH  20  21
ENDBRANCH  16  19
ENDBRANCH   9  10
ENDBRANCH   2   9
TORSDOF 11
ENDMDL
MODEL      216
REMARK 921   NORMALIZED FREE ENERGY PREDICTED BY IDOCK:   -3.68 KCAL/MOL
REMARK 922        TOTAL FREE ENERGY PREDICTED BY IDOCK:   -8.45 KCAL/MOL
REMARK 923 INTER-LIGAND FREE ENERGY PREDICTED BY IDOCK:   -6.78 KCAL/MOL
REMARK 924 INTRA-LIGAND FREE ENERGY PREDICTED BY IDOCK:   -1.67 KCAL/MOL
REMARK 927      BINDING AFFINITY PREDICTED BY RF-SCORE:    0.00 PKD
ROOT
HETATM    1  C   UNL     1      -9.624  11.072  66.936  1.00  0.00    -0.205 C  
HETATM    2  C   UNL     1      -9.708  11.022  68.274  1.00  0.00    -0.181 C  
ENDROOT
BRANCH   1   3
HETATM    3  C   UNL     1     -10.656  10.585  65.956  1.00  0.00    -0.164 C  
BRANCH   3   4
HETATM    4  C   UNL     1     -10.574  11.341  64.628  1.00  0.00    -0.392 C  
BRANCH   4   5
HETATM    5  C   UNL     1     -10.989  12.805  64.771  1.00  0.00    -0.334 C  
HETATM    6  O   UNL     1     -12.846  14.289  64.728  1.00  0.00    -0.671 OA 
HETATM    7  C   UNL     1     -12.474  12.995  64.589  1.00  0.00    -0.400 C  
HETATM    8  O   UNL     1     -13.278  12.105  64.354  1.00  0.00    -0.758 OA 
ENDBRANCH   4   5
ENDBRANCH   3   4
ENDBRANCH   1   3
BRANCH   2   9
HETATM    9  C   UNL     1     -10.827  10.414  69.075  1.00  0.00    -0.273 C  
BRANCH   9  10
HETATM   10  C   UNL     1     -10.440   9.241  69.990  1.00  0.00    -0.254 C  
HETATM   11  H   UNL     1     -13.121   6.442  70.314  1.00  0.00     0.000 HD 
HETATM   12  C   UNL     1     -10.963   9.450  71.420  1.00  0.00    -0.373 C  
HETATM   13  O   UNL     1     -12.808   7.008  71.010  1.00  0.00    -0.349 OA 
HETATM   14  O   UNL     1     -12.328   9.863  71.425  1.00  0.00    -0.346 OA 
HETATM   15  C   UNL     1     -10.885   8.061  72.033  1.00  0.00    -0.333 C  
HETATM   16  C   UNL     1     -11.027   7.861  69.583  1.00  0.00    -0.114 C  
HETATM   17  H   UNL     1     -12.652   9.993  72.309  1.00  0.00     0.000 HD 
HETATM   18  C   UNL     1     -11.388   7.151  70.913  1.00  0.00    -0.286 C  
BRANCH  16  19
HETATM   19  C   UNL     1     -10.100   7.039  68.717  1.00  0.00    -0.170 C  
HETATM   20  C   UNL     1     -10.262   6.817  67.400  1.00  0.00    -0.254 C  
BRANCH  20  21
HETATM   21  C   UNL     1      -9.389   5.946  66.539  1.00  0.00    -0.153 C  
HETATM   22  O   UNL     1      -8.078   6.492  66.454  1.00  0.00    -0.107 OA 
HETATM   23  H   UNL     1      -7.527   5.942  65.911  1.00  0.00     0.000 HD 
BRANCH  21  24
HETATM   24  C   UNL     1      -9.284   4.521  67.095  1.00  0.00    -0.148 C  
BRANCH  24  25
HETATM   25  C   UNL     1      -7.867   4.073  67.471  1.00  0.00    -0.090 C  
BRANCH  25  26
HETATM   26  C   UNL     1      -7.744   3.650  68.934  1.00  0.00    -0.052 C  
BRANCH  26  27
HETATM   27  C   UNL     1      -9.109   3.344  69.547  1.00  0.00    -0.202 C  
HETATM   28  C   UNL     1      -9.201   1.886  69.965  1.00  0.00    -0.173 C  
ENDBRANCH  26  27
ENDBRANCH  25  26
ENDBRANCH  24  25
ENDBRANCH  21  24
ENDBRANCH  20  21
ENDBRANCH  16  19
ENDBRANCH   9  10
ENDBRANCH   2   9
TORSDOF 11
ENDMDL
MODEL      217
REMARK 921   NORMALIZED FREE ENERGY PREDICTED BY IDOCK:   -3.68 KCAL/MOL
REMARK 922        TOTAL FREE ENERGY PREDICTED BY IDOCK:   -8.45 KCAL/MOL
REMARK 923 INTER-LIGAND FREE ENERGY PREDICTED BY IDOCK:   -6.80 KCAL/MOL
REMARK 924 INTRA-LIGAND FREE ENERGY PREDICTED BY IDOCK:   -1.65 KCAL/MOL
REMARK 927      BINDING AFFINITY PREDICTED BY RF-SCORE:    0.00 PKD
ROOT
HETATM    1  C   UNL     1      -8.929   4.815  68.169  1.00  0.00    -0.129 C  
HETATM    2  C   UNL     1      -8.248   5.220  69.251  1.00  0.00    -0.092 C  
ENDROOT
BRANCH   1   3
HETATM    3  C   UNL     1     -10.242   5.362  67.681  1.00  0.00    -0.236 C  
BRANCH   3   4
HETATM    4  C   UNL     1     -10.047   6.601  66.805  1.00  0.00    -0.240 C  
BRANCH   4   5
HETATM    5  C   UNL     1     -10.753   7.831  67.378  1.00  0.00    -0.300 C  
HETATM    6  O   UNL     1     -10.398   9.978  68.335  1.00  0.00    -0.173 OA 
HETATM    7  C   UNL     1      -9.775   8.883  67.839  1.00  0.00    -0.160 C  
HETATM    8  O   UNL     1      -8.558   8.795  67.775  1.00  0.00    -0.128 OA 
ENDBRANCH   4   5
ENDBRANCH   3   4
ENDBRANCH   1   3
BRANCH   2   9
HETATM    9  C   UNL     1      -8.685   6.266  70.240  1.00  0.00    -0.142 C  
BRANCH   9  10
HETATM   10  C   UNL     1      -9.938   5.931  71.065  1.00  0.00    -0.239 C  
HETATM   11  H   UNL     1     -10.125   7.640  74.554  1.00  0.00     0.000 HD 
HETATM   12  C   UNL     1      -9.680   4.756  72.022  1.00  0.00    -0.162 C  
HETATM   13  O   UNL     1     -10.062   6.707  74.385  1.00  0.00    -0.343 OA 
HETATM   14  O   UNL     1      -8.451   4.913  72.728  1.00  0.00    -0.114 OA 
HETATM   15  C   UNL     1     -10.820   4.856  73.023  1.00  0.00    -0.331 C  
HETATM   16  C   UNL     1     -10.437   7.065  72.003  1.00  0.00    -0.232 C  
HETATM   17  H   UNL     1      -8.291   4.186  73.319  1.00  0.00     0.000 HD 
HETATM   18  C   UNL     1     -10.920   6.356  73.295  1.00  0.00    -0.190 C  
BRANCH  16  19
HETATM   19  C   UNL     1     -11.502   7.940  71.385  1.00  0.00    -0.293 C  
HETATM   20  C   UNL     1     -11.541   9.282  71.456  1.00  0.00    -0.452 C  
BRANCH  20  21
HETATM   21  C   UNL     1     -12.630  10.164  70.907  1.00  0.00    -0.360 C  
HETATM   22  O   UNL     1     -13.899   9.735  71.387  1.00  0.00    -0.240 OA 
HETATM   23  H   UNL     1     -14.587  10.291  71.041  1.00  0.00     0.000 HD 
BRANCH  21  24
HETATM   24  C   UNL     1     -12.431  11.629  71.310  1.00  0.00    -0.371 C  
BRANCH  24  25
HETATM   25  C   UNL     1     -13.552  12.226  72.168  1.00  0.00    -0.348 C  
BRANCH  25  26
HETATM   26  C   UNL     1     -13.491  13.750  72.251  1.00  0.00    -0.638 C  
BRANCH  26  27
HETATM   27  C   UNL     1     -12.715  14.346  71.078  1.00  0.00    -0.416 C  
HETATM   28  C   UNL     1     -11.839  15.499  71.538  1.00  0.00    -0.472 C  
ENDBRANCH  26  27
ENDBRANCH  25  26
ENDBRANCH  24  25
ENDBRANCH  21  24
ENDBRANCH  20  21
ENDBRANCH  16  19
ENDBRANCH   9  10
ENDBRANCH   2   9
TORSDOF 11
ENDMDL
MODEL      218
REMARK 921   NORMALIZED FREE ENERGY PREDICTED BY IDOCK:   -3.67 KCAL/MOL
REMARK 922        TOTAL FREE ENERGY PREDICTED BY IDOCK:   -8.42 KCAL/MOL
REMARK 923 INTER-LIGAND FREE ENERGY PREDICTED BY IDOCK:   -6.76 KCAL/MOL
REMARK 924 INTRA-LIGAND FREE ENERGY PREDICTED BY IDOCK:   -1.66 KCAL/MOL
REMARK 927      BINDING AFFINITY PREDICTED BY RF-SCORE:    0.00 PKD
ROOT
HETATM    1  C   UNL     1      -7.709  10.256  67.048  1.00  0.00    -0.100 C  
HETATM    2  C   UNL     1      -8.078  10.446  65.773  1.00  0.00    -0.155 C  
ENDROOT
BRANCH   1   3
HETATM    3  C   UNL     1      -8.622   9.999  68.215  1.00  0.00    -0.115 C  
BRANCH   3   4
HETATM    4  C   UNL     1      -8.285   8.683  68.918  1.00  0.00    -0.123 C  
BRANCH   4   5
HETATM    5  C   UNL     1      -9.208   7.544  68.482  1.00  0.00    -0.143 C  
HETATM    6  O   UNL     1     -11.043   6.192  69.159  1.00  0.00    -0.350 OA 
HETATM    7  C   UNL     1     -10.216   7.192  69.547  1.00  0.00    -0.195 C  
HETATM    8  O   UNL     1     -10.312   7.733  70.638  1.00  0.00    -0.200 OA 
ENDBRANCH   4   5
ENDBRANCH   3   4
ENDBRANCH   1   3
BRANCH   2   9
HETATM    9  C   UNL     1      -9.489  10.504  65.252  1.00  0.00    -0.281 C  
BRANCH   9  10
HETATM   10  C   UNL     1     -10.031  11.907  64.930  1.00  0.00    -0.269 C  
HETATM   11  H   UNL     1     -13.853  12.368  65.479  1.00  0.00     0.000 HD 
HETATM   12  C   UNL     1     -10.563  11.984  63.490  1.00  0.00    -0.465 C  
HETATM   13  O   UNL     1     -13.391  12.424  64.651  1.00  0.00    -0.778 OA 
HETATM   14  O   UNL     1     -11.398  10.870  63.178  1.00  0.00    -0.535 OA 
HETATM   15  C   UNL     1     -11.425  13.236  63.498  1.00  0.00    -0.200 C  
HETATM   16  C   UNL     1     -11.239  12.365  65.793  1.00  0.00    -0.370 C  
HETATM   17  H   UNL     1     -11.727  10.918  62.288  1.00  0.00     0.000 HD 
HETATM   18  C   UNL     1     -12.169  13.146  64.829  1.00  0.00    -0.425 C  
BRANCH  16  19
HETATM   19  C   UNL     1     -10.845  13.174  67.007  1.00  0.00    -0.278 C  
HETATM   20  C   UNL     1      -9.673  13.814  67.166  1.00  0.00    -0.244 C  
BRANCH  20  21
HETATM   21  C   UNL     1      -9.237  14.565  68.394  1.00  0.00    -0.196 C  
HETATM   22  O   UNL     1      -8.421  13.737  69.214  1.00  0.00    -0.302 OA 
HETATM   23  H   UNL     1      -8.145  14.211  69.990  1.00  0.00     0.000 HD 
BRANCH  21  24
HETATM   24  C   UNL     1      -8.441  15.826  68.036  1.00  0.00    -0.161 C  
BRANCH  24  25
HETATM   25  C   UNL     1      -7.231  15.593  67.125  1.00  0.00    -0.230 C  
BRANCH  25  26
HETATM   26  C   UNL     1      -6.421  16.864  66.875  1.00  0.00    -0.249 C  
BRANCH  26  27
HETATM   27  C   UNL     1      -6.639  17.896  67.980  1.00  0.00    -0.194 C  
HETATM   28  C   UNL     1      -5.943  19.205  67.645  1.00  0.00    -0.204 C  
ENDBRANCH  26  27
ENDBRANCH  25  26
ENDBRANCH  24  25
ENDBRANCH  21  24
ENDBRANCH  20  21
ENDBRANCH  16  19
ENDBRANCH   9  10
ENDBRANCH   2   9
TORSDOF 11
ENDMDL
MODEL      219
REMARK 921   NORMALIZED FREE ENERGY PREDICTED BY IDOCK:   -3.67 KCAL/MOL
REMARK 922        TOTAL FREE ENERGY PREDICTED BY IDOCK:   -8.42 KCAL/MOL
REMARK 923 INTER-LIGAND FREE ENERGY PREDICTED BY IDOCK:   -6.74 KCAL/MOL
REMARK 924 INTRA-LIGAND FREE ENERGY PREDICTED BY IDOCK:   -1.68 KCAL/MOL
REMARK 927      BINDING AFFINITY PREDICTED BY RF-SCORE:    0.00 PKD
ROOT
HETATM    1  C   UNL     1     -12.595  12.702  71.463  1.00  0.00    -0.256 C  
HETATM    2  C   UNL     1     -13.154  11.541  71.835  1.00  0.00    -0.492 C  
ENDROOT
BRANCH   1   3
HETATM    3  C   UNL     1     -11.897  12.982  70.161  1.00  0.00    -0.324 C  
BRANCH   3   4
HETATM    4  C   UNL     1     -12.072  14.439  69.729  1.00  0.00    -0.386 C  
BRANCH   4   5
HETATM    5  C   UNL     1     -10.836  15.285  70.035  1.00  0.00    -0.303 C  
HETATM    6  O   UNL     1      -8.864  16.218  69.091  1.00  0.00    -0.249 OA 
HETATM    7  C   UNL     1      -9.953  15.458  68.825  1.00  0.00    -0.208 C  
HETATM    8  O   UNL     1     -10.170  14.991  67.718  1.00  0.00    -0.234 OA 
ENDBRANCH   4   5
ENDBRANCH   3   4
ENDBRANCH   1   3
BRANCH   2   9
HETATM    9  C   UNL     1     -13.148  10.256  71.051  1.00  0.00    -0.458 C  
BRANCH   9  10
HETATM   10  C   UNL     1     -12.137   9.192  71.509  1.00  0.00    -0.422 C  
HETATM   11  H   UNL     1     -11.211   6.530  68.829  1.00  0.00     0.000 HD 
HETATM   12  C   UNL     1     -12.848   7.935  72.035  1.00  0.00    -0.263 C  
HETATM   13  O   UNL     1     -11.658   6.371  69.652  1.00  0.00    -0.417 OA 
HETATM   14  O   UNL     1     -13.891   7.515  71.157  1.00  0.00    -0.605 OA 
HETATM   15  C   UNL     1     -11.756   6.877  72.017  1.00  0.00    -0.336 C  
HETATM   16  C   UNL     1     -11.200   8.646  70.397  1.00  0.00    -0.236 C  
HETATM   17  H   UNL     1     -14.330   6.737  71.483  1.00  0.00     0.000 HD 
HETATM   18  C   UNL     1     -11.038   7.132  70.693  1.00  0.00    -0.267 C  
BRANCH  16  19
HETATM   19  C   UNL     1      -9.876   9.368  70.310  1.00  0.00    -0.290 C  
HETATM   20  C   UNL     1      -8.671   8.805  70.510  1.00  0.00    -0.196 C  
BRANCH  20  21
HETATM   21  C   UNL     1      -7.348   9.522  70.496  1.00  0.00    -0.138 C  
HETATM   22  O   UNL     1      -6.289   8.599  70.269  1.00  0.00    -0.036 OA 
HETATM   23  H   UNL     1      -5.455   9.052  70.261  1.00  0.00     0.000 HD 
BRANCH  21  24
HETATM   24  C   UNL     1      -7.297  10.596  69.403  1.00  0.00    -0.133 C  
BRANCH  24  25
HETATM   25  C   UNL     1      -6.454  10.232  68.175  1.00  0.00    -0.057 C  
BRANCH  25  26
HETATM   26  C   UNL     1      -7.257  10.255  66.875  1.00  0.00    -0.093 C  
BRANCH  26  27
HETATM   27  C   UNL     1      -8.377   9.217  66.888  1.00  0.00    -0.123 C  
HETATM   28  C   UNL     1      -8.701   8.751  65.478  1.00  0.00    -0.217 C  
ENDBRANCH  26  27
ENDBRANCH  25  26
ENDBRANCH  24  25
ENDBRANCH  21  24
ENDBRANCH  20  21
ENDBRANCH  16  19
ENDBRANCH   9  10
ENDBRANCH   2   9
TORSDOF 11
ENDMDL
MODEL      220
REMARK 921   NORMALIZED FREE ENERGY PREDICTED BY IDOCK:   -3.66 KCAL/MOL
REMARK 922        TOTAL FREE ENERGY PREDICTED BY IDOCK:   -8.41 KCAL/MOL
REMARK 923 INTER-LIGAND FREE ENERGY PREDICTED BY IDOCK:   -6.63 KCAL/MOL
REMARK 924 INTRA-LIGAND FREE ENERGY PREDICTED BY IDOCK:   -1.78 KCAL/MOL
REMARK 927      BINDING AFFINITY PREDICTED BY RF-SCORE:    0.00 PKD
ROOT
HETATM    1  C   UNL     1      -8.440  11.510  67.577  1.00  0.00    -0.143 C  
HETATM    2  C   UNL     1      -8.335  12.681  66.930  1.00  0.00    -0.078 C  
ENDROOT
BRANCH   1   3
HETATM    3  C   UNL     1      -8.628  11.319  69.056  1.00  0.00     0.015 C  
BRANCH   3   4
HETATM    4  C   UNL     1      -9.018   9.879  69.395  1.00  0.00    -0.204 C  
BRANCH   4   5
HETATM    5  C   UNL     1     -10.164   9.370  68.520  1.00  0.00    -0.223 C  
HETATM    6  O   UNL     1     -10.761   7.749  66.888  1.00  0.00    -0.345 OA 
HETATM    7  C   UNL     1      -9.744   8.210  67.653  1.00  0.00    -0.159 C  
HETATM    8  O   UNL     1      -8.629   7.712  67.628  1.00  0.00    -0.116 OA 
ENDBRANCH   4   5
ENDBRANCH   3   4
ENDBRANCH   1   3
BRANCH   2   9
HETATM    9  C   UNL     1      -8.323  14.048  67.558  1.00  0.00    -0.200 C  
BRANCH   9  10
HETATM   10  C   UNL     1      -9.698  14.639  67.911  1.00  0.00    -0.216 C  
HETATM   11  H   UNL     1      -9.824  18.521  68.119  1.00  0.00     0.000 HD 
HETATM   12  C   UNL     1      -9.831  14.884  69.423  1.00  0.00    -0.118 C  
HETATM   13  O   UNL     1      -9.971  17.912  68.834  1.00  0.00    -0.359 OA 
HETATM   14  O   UNL     1      -8.680  15.538  69.952  1.00  0.00    -0.239 OA 
HETATM   15  C   UNL     1     -11.009  15.839  69.525  1.00  0.00    -0.295 C  
HETATM   16  C   UNL     1     -10.002  16.029  67.286  1.00  0.00    -0.242 C  
HETATM   17  H   UNL     1      -8.762  15.689  70.887  1.00  0.00     0.000 HD 
HETATM   18  C   UNL     1     -10.772  16.818  68.377  1.00  0.00    -0.362 C  
BRANCH  16  19
HETATM   19  C   UNL     1     -10.755  15.956  65.979  1.00  0.00    -0.289 C  
HETATM   20  C   UNL     1     -11.745  15.088  65.702  1.00  0.00    -0.123 C  
BRANCH  20  21
HETATM   21  C   UNL     1     -12.458  14.954  64.383  1.00  0.00    -0.207 C  
HETATM   22  O   UNL     1     -12.133  16.049  63.535  1.00  0.00    -1.088 OA 
HETATM   23  H   UNL     1     -12.582  15.965  62.702  1.00  0.00     0.000 HD 
BRANCH  21  24
HETATM   24  C   UNL     1     -12.078  13.655  63.663  1.00  0.00    -0.397 C  
BRANCH  24  25
HETATM   25  C   UNL     1     -12.198  12.383  64.510  1.00  0.00    -0.509 C  
BRANCH  25  26
HETATM   26  C   UNL     1     -10.854  11.898  65.049  1.00  0.00    -0.351 C  
BRANCH  26  27
HETATM   27  C   UNL     1     -10.478  10.533  64.476  1.00  0.00    -0.151 C  
HETATM   28  C   UNL     1      -9.014  10.500  64.069  1.00  0.00    -0.235 C  
ENDBRANCH  26  27
ENDBRANCH  25  26
ENDBRANCH  24  25
ENDBRANCH  21  24
ENDBRANCH  20  21
ENDBRANCH  16  19
ENDBRANCH   9  10
ENDBRANCH   2   9
TORSDOF 11
ENDMDL
MODEL      221
REMARK 921   NORMALIZED FREE ENERGY PREDICTED BY IDOCK:   -3.66 KCAL/MOL
REMARK 922        TOTAL FREE ENERGY PREDICTED BY IDOCK:   -8.41 KCAL/MOL
REMARK 923 INTER-LIGAND FREE ENERGY PREDICTED BY IDOCK:   -7.17 KCAL/MOL
REMARK 924 INTRA-LIGAND FREE ENERGY PREDICTED BY IDOCK:   -1.24 KCAL/MOL
REMARK 927      BINDING AFFINITY PREDICTED BY RF-SCORE:    0.00 PKD
ROOT
HETATM    1  C   UNL     1     -10.086  10.007  65.872  1.00  0.00    -0.319 C  
HETATM    2  C   UNL     1      -9.393   8.860  65.928  1.00  0.00    -0.301 C  
ENDROOT
BRANCH   1   3
HETATM    3  C   UNL     1     -10.397  10.923  67.023  1.00  0.00    -0.276 C  
BRANCH   3   4
HETATM    4  C   UNL     1     -11.290  12.088  66.593  1.00  0.00    -0.399 C  
BRANCH   4   5
HETATM    5  C   UNL     1     -11.258  12.313  65.081  1.00  0.00    -0.369 C  
HETATM    6  O   UNL     1     -12.341  13.426  63.281  1.00  0.00    -0.714 OA 
HETATM    7  C   UNL     1     -12.374  13.216  64.618  1.00  0.00    -0.405 C  
HETATM    8  O   UNL     1     -13.219  13.723  65.340  1.00  0.00    -0.722 OA 
ENDBRANCH   4   5
ENDBRANCH   3   4
ENDBRANCH   1   3
BRANCH   2   9
HETATM    9  C   UNL     1      -8.834   8.217  67.169  1.00  0.00    -0.138 C  
BRANCH   9  10
HETATM   10  C   UNL     1      -9.378   6.819  67.506  1.00  0.00    -0.129 C  
HETATM   11  H   UNL     1      -6.672   4.090  68.098  1.00  0.00     0.000 HD 
HETATM   12  C   UNL     1      -9.507   5.949  66.245  1.00  0.00    -0.139 C  
HETATM   13  O   UNL     1      -7.315   4.104  67.399  1.00  0.00    -0.067 OA 
HETATM   14  O   UNL     1      -8.334   6.019  65.436  1.00  0.00    -0.141 OA 
HETATM   15  C   UNL     1      -9.619   4.538  66.798  1.00  0.00    -0.206 C  
HETATM   16  C   UNL     1      -8.483   5.969  68.449  1.00  0.00    -0.112 C  
HETATM   17  H   UNL     1      -8.414   5.482  64.657  1.00  0.00     0.000 HD 
HETATM   18  C   UNL     1      -8.583   4.514  67.921  1.00  0.00    -0.102 C  
BRANCH  16  19
HETATM   19  C   UNL     1      -8.855   6.086  69.908  1.00  0.00    -0.138 C  
HETATM   20  C   UNL     1      -9.931   5.519  70.482  1.00  0.00    -0.276 C  
BRANCH  20  21
HETATM   21  C   UNL     1     -10.354   5.682  71.917  1.00  0.00    -0.215 C  
HETATM   22  O   UNL     1      -9.316   6.300  72.669  1.00  0.00    -0.146 OA 
HETATM   23  H   UNL     1      -9.583   6.403  73.575  1.00  0.00     0.000 HD 
BRANCH  21  24
HETATM   24  C   UNL     1     -11.618   6.542  72.041  1.00  0.00    -0.354 C  
BRANCH  24  25
HETATM   25  C   UNL     1     -12.113   7.163  70.730  1.00  0.00    -0.331 C  
BRANCH  25  26
HETATM   26  C   UNL     1     -11.531   8.552  70.472  1.00  0.00    -0.198 C  
BRANCH  26  27
HETATM   27  C   UNL     1     -11.779   9.492  71.650  1.00  0.00    -0.460 C  
HETATM   28  C   UNL     1     -13.043  10.308  71.436  1.00  0.00    -0.512 C  
ENDBRANCH  26  27
ENDBRANCH  25  26
ENDBRANCH  24  25
ENDBRANCH  21  24
ENDBRANCH  20  21
ENDBRANCH  16  19
ENDBRANCH   9  10
ENDBRANCH   2   9
TORSDOF 11
ENDMDL
MODEL      222
REMARK 921   NORMALIZED FREE ENERGY PREDICTED BY IDOCK:   -3.66 KCAL/MOL
REMARK 922        TOTAL FREE ENERGY PREDICTED BY IDOCK:   -8.40 KCAL/MOL
REMARK 923 INTER-LIGAND FREE ENERGY PREDICTED BY IDOCK:   -7.20 KCAL/MOL
REMARK 924 INTRA-LIGAND FREE ENERGY PREDICTED BY IDOCK:   -1.21 KCAL/MOL
REMARK 927      BINDING AFFINITY PREDICTED BY RF-SCORE:    0.00 PKD
ROOT
HETATM    1  C   UNL     1      -7.491  19.910  67.265  1.00  0.00    -0.297 C  
HETATM    2  C   UNL     1      -7.273  19.432  68.499  1.00  0.00    -0.356 C  
ENDROOT
BRANCH   1   3
HETATM    3  C   UNL     1      -8.385  19.307  66.217  1.00  0.00    -0.327 C  
BRANCH   3   4
HETATM    4  C   UNL     1      -9.748  18.918  66.792  1.00  0.00    -0.362 C  
BRANCH   4   5
HETATM    5  C   UNL     1     -10.761  18.580  65.698  1.00  0.00    -0.089 C  
HETATM    6  O   UNL     1     -11.463  16.883  64.189  1.00  0.00    -1.174 OA 
HETATM    7  C   UNL     1     -10.559  17.190  65.148  1.00  0.00     0.047 C  
HETATM    8  O   UNL     1      -9.698  16.403  65.512  1.00  0.00    -0.505 OA 
ENDBRANCH   4   5
ENDBRANCH   3   4
ENDBRANCH   1   3
BRANCH   2   9
HETATM    9  C   UNL     1      -7.830  18.157  69.073  1.00  0.00    -0.107 C  
BRANCH   9  10
HETATM   10  C   UNL     1      -7.211  16.853  68.543  1.00  0.00    -0.199 C  
HETATM   11  H   UNL     1      -6.998  13.955  71.128  1.00  0.00     0.000 HD 
HETATM   12  C   UNL     1      -5.704  16.787  68.841  1.00  0.00    -0.145 C  
HETATM   13  O   UNL     1      -6.266  14.398  70.715  1.00  0.00    -0.198 OA 
HETATM   14  O   UNL     1      -5.419  17.149  70.191  1.00  0.00    -0.206 OA 
HETATM   15  C   UNL     1      -5.371  15.315  68.663  1.00  0.00    -0.092 C  
HETATM   16  C   UNL     1      -7.768  15.549  69.179  1.00  0.00    -0.210 C  
HETATM   17  H   UNL     1      -4.488  17.108  70.375  1.00  0.00     0.000 HD 
HETATM   18  C   UNL     1      -6.548  14.603  69.328  1.00  0.00    -0.128 C  
BRANCH  16  19
HETATM   19  C   UNL     1      -8.897  14.925  68.393  1.00  0.00    -0.178 C  
HETATM   20  C   UNL     1      -8.994  13.621  68.077  1.00  0.00    -0.188 C  
BRANCH  20  21
HETATM   21  C   UNL     1     -10.074  12.995  67.237  1.00  0.00    -0.235 C  
HETATM   22  O   UNL     1     -10.853  14.004  66.604  1.00  0.00    -0.293 OA 
HETATM   23  H   UNL     1     -11.535  13.609  66.074  1.00  0.00     0.000 HD 
BRANCH  21  24
HETATM   24  C   UNL     1      -9.491  12.084  66.151  1.00  0.00    -0.241 C  
BRANCH  24  25
HETATM   25  C   UNL     1     -10.526  11.397  65.253  1.00  0.00    -0.340 C  
BRANCH  25  26
HETATM   26  C   UNL     1     -10.429  11.831  63.791  1.00  0.00    -0.466 C  
BRANCH  26  27
HETATM   27  C   UNL     1     -11.636  12.667  63.372  1.00  0.00    -0.536 C  
HETATM   28  C   UNL     1     -12.889  12.218  64.105  1.00  0.00    -0.371 C  
ENDBRANCH  26  27
ENDBRANCH  25  26
ENDBRANCH  24  25
ENDBRANCH  21  24
ENDBRANCH  20  21
ENDBRANCH  16  19
ENDBRANCH   9  10
ENDBRANCH   2   9
TORSDOF 11
ENDMDL
MODEL      223
REMARK 921   NORMALIZED FREE ENERGY PREDICTED BY IDOCK:   -3.65 KCAL/MOL
REMARK 922        TOTAL FREE ENERGY PREDICTED BY IDOCK:   -8.39 KCAL/MOL
REMARK 923 INTER-LIGAND FREE ENERGY PREDICTED BY IDOCK:   -7.27 KCAL/MOL
REMARK 924 INTRA-LIGAND FREE ENERGY PREDICTED BY IDOCK:   -1.12 KCAL/MOL
REMARK 927      BINDING AFFINITY PREDICTED BY RF-SCORE:    0.00 PKD
ROOT
HETATM    1  C   UNL     1     -12.613  12.351  70.967  1.00  0.00    -0.349 C  
HETATM    2  C   UNL     1     -11.986  11.210  70.646  1.00  0.00    -0.459 C  
ENDROOT
BRANCH   1   3
HETATM    3  C   UNL     1     -13.605  12.544  72.080  1.00  0.00    -0.458 C  
BRANCH   3   4
HETATM    4  C   UNL     1     -14.152  13.972  72.108  1.00  0.00    -0.641 C  
BRANCH   4   5
HETATM    5  C   UNL     1     -13.177  14.976  71.491  1.00  0.00    -0.484 C  
HETATM    6  O   UNL     1     -11.680  16.755  71.988  1.00  0.00    -0.302 OA 
HETATM    7  C   UNL     1     -12.553  15.873  72.530  1.00  0.00    -0.457 C  
HETATM    8  O   UNL     1     -12.778  15.830  73.730  1.00  0.00    -0.509 OA 
ENDBRANCH   4   5
ENDBRANCH   3   4
ENDBRANCH   1   3
BRANCH   2   9
HETATM    9  C   UNL     1     -12.191   9.867  71.294  1.00  0.00    -0.480 C  
BRANCH   9  10
HETATM   10  C   UNL     1     -10.946   8.969  71.390  1.00  0.00    -0.394 C  
HETATM   11  H   UNL     1     -11.254   5.522  69.616  1.00  0.00     0.000 HD 
HETATM   12  C   UNL     1     -11.049   7.996  72.576  1.00  0.00    -0.375 C  
HETATM   13  O   UNL     1     -11.144   5.669  70.548  1.00  0.00    -0.258 OA 
HETATM   14  O   UNL     1     -12.324   7.359  72.624  1.00  0.00    -0.521 OA 
HETATM   15  C   UNL     1     -10.001   6.941  72.261  1.00  0.00    -0.176 C  
HETATM   16  C   UNL     1     -10.705   8.037  70.171  1.00  0.00    -0.244 C  
HETATM   17  H   UNL     1     -12.387   6.758  73.358  1.00  0.00     0.000 HD 
HETATM   18  C   UNL     1     -10.179   6.703  70.762  1.00  0.00    -0.196 C  
BRANCH  16  19
HETATM   19  C   UNL     1      -9.776   8.622  69.134  1.00  0.00    -0.173 C  
HETATM   20  C   UNL     1      -8.596   8.093  68.762  1.00  0.00    -0.127 C  
BRANCH  20  21
HETATM   21  C   UNL     1      -7.627   8.698  67.783  1.00  0.00    -0.098 C  
HETATM   22  O   UNL     1      -6.387   8.973  68.425  1.00  0.00    -0.053 OA 
HETATM   23  H   UNL     1      -5.775   9.355  67.807  1.00  0.00     0.000 HD 
BRANCH  21  24
HETATM   24  C   UNL     1      -7.361   7.764  66.597  1.00  0.00    -0.088 C  
BRANCH  24  25
HETATM   25  C   UNL     1      -8.023   6.385  66.695  1.00  0.00    -0.109 C  
BRANCH  25  26
HETATM   26  C   UNL     1      -8.868   6.042  65.469  1.00  0.00    -0.083 C  
BRANCH  26  27
HETATM   27  C   UNL     1      -8.449   4.710  64.851  1.00  0.00    -0.135 C  
HETATM   28  C   UNL     1      -8.040   4.890  63.399  1.00  0.00    -0.100 C  
ENDBRANCH  26  27
ENDBRANCH  25  26
ENDBRANCH  24  25
ENDBRANCH  21  24
ENDBRANCH  20  21
ENDBRANCH  16  19
ENDBRANCH   9  10
ENDBRANCH   2   9
TORSDOF 11
ENDMDL
MODEL      224
REMARK 921   NORMALIZED FREE ENERGY PREDICTED BY IDOCK:   -3.65 KCAL/MOL
REMARK 922        TOTAL FREE ENERGY PREDICTED BY IDOCK:   -8.39 KCAL/MOL
REMARK 923 INTER-LIGAND FREE ENERGY PREDICTED BY IDOCK:   -6.56 KCAL/MOL
REMARK 924 INTRA-LIGAND FREE ENERGY PREDICTED BY IDOCK:   -1.83 KCAL/MOL
REMARK 927      BINDING AFFINITY PREDICTED BY RF-SCORE:    0.00 PKD
ROOT
HETATM    1  C   UNL     1     -11.250  15.541  67.230  1.00  0.00    -0.226 C  
HETATM    2  C   UNL     1     -10.504  15.349  68.329  1.00  0.00    -0.241 C  
ENDROOT
BRANCH   1   3
HETATM    3  C   UNL     1     -10.759  15.566  65.809  1.00  0.00    -0.362 C  
BRANCH   3   4
HETATM    4  C   UNL     1     -10.591  14.154  65.244  1.00  0.00    -0.387 C  
BRANCH   4   5
HETATM    5  C   UNL     1     -11.816  13.701  64.449  1.00  0.00    -0.460 C  
HETATM    6  O   UNL     1     -13.576  12.104  64.376  1.00  0.00    -0.513 OA 
HETATM    7  C   UNL     1     -12.484  12.500  65.071  1.00  0.00    -0.420 C  
HETATM    8  O   UNL     1     -12.115  11.933  66.088  1.00  0.00    -0.519 OA 
ENDBRANCH   4   5
ENDBRANCH   3   4
ENDBRANCH   1   3
BRANCH   2   9
HETATM    9  C   UNL     1      -9.009  15.180  68.374  1.00  0.00    -0.183 C  
BRANCH   9  10
HETATM   10  C   UNL     1      -8.470  13.830  67.875  1.00  0.00    -0.176 C  
HETATM   11  H   UNL     1      -6.804  11.608  70.598  1.00  0.00     0.000 HD 
HETATM   12  C   UNL     1      -6.979  13.923  67.510  1.00  0.00    -0.144 C  
HETATM   13  O   UNL     1      -6.375  11.989  69.841  1.00  0.00    -0.141 OA 
HETATM   14  O   UNL     1      -6.232  14.596  68.522  1.00  0.00    -0.080 OA 
HETATM   15  C   UNL     1      -6.531  12.472  67.475  1.00  0.00    -0.153 C  
HETATM   16  C   UNL     1      -8.522  12.672  68.910  1.00  0.00     0.294 C  
HETATM   17  H   UNL     1      -5.311  14.654  68.296  1.00  0.00     0.000 HD 
HETATM   18  C   UNL     1      -7.219  11.859  68.693  1.00  0.00    -0.109 C  
BRANCH  16  19
HETATM   19  C   UNL     1      -9.765  11.820  68.805  1.00  0.00    -0.079 C  
HETATM   20  C   UNL     1     -10.943  12.092  69.394  1.00  0.00    -0.128 C  
BRANCH  20  21
HETATM   21  C   UNL     1     -12.169  11.220  69.358  1.00  0.00    -0.247 C  
HETATM   22  O   UNL     1     -12.001  10.173  68.410  1.00  0.00    -0.623 OA 
HETATM   23  H   UNL     1     -12.775   9.623  68.387  1.00  0.00     0.000 HD 
BRANCH  21  24
HETATM   24  C   UNL     1     -12.459  10.591  70.726  1.00  0.00    -0.472 C  
BRANCH  24  25
HETATM   25  C   UNL     1     -12.090   9.109  70.851  1.00  0.00    -0.270 C  
BRANCH  25  26
HETATM   26  C   UNL     1     -10.782   8.882  71.608  1.00  0.00    -0.418 C  
BRANCH  26  27
HETATM   27  C   UNL     1      -9.954   7.764  70.978  1.00  0.00    -0.191 C  
HETATM   28  C   UNL     1     -10.796   6.514  70.776  1.00  0.00    -0.311 C  
ENDBRANCH  26  27
ENDBRANCH  25  26
ENDBRANCH  24  25
ENDBRANCH  21  24
ENDBRANCH  20  21
ENDBRANCH  16  19
ENDBRANCH   9  10
ENDBRANCH   2   9
TORSDOF 11
ENDMDL
MODEL      225
REMARK 921   NORMALIZED FREE ENERGY PREDICTED BY IDOCK:   -3.63 KCAL/MOL
REMARK 922        TOTAL FREE ENERGY PREDICTED BY IDOCK:   -8.37 KCAL/MOL
REMARK 923 INTER-LIGAND FREE ENERGY PREDICTED BY IDOCK:   -7.47 KCAL/MOL
REMARK 924 INTRA-LIGAND FREE ENERGY PREDICTED BY IDOCK:   -0.89 KCAL/MOL
REMARK 927      BINDING AFFINITY PREDICTED BY RF-SCORE:    0.00 PKD
ROOT
HETATM    1  C   UNL     1     -10.552  14.798  68.447  1.00  0.00    -0.242 C  
HETATM    2  C   UNL     1     -10.727  14.156  67.282  1.00  0.00    -0.279 C  
ENDROOT
BRANCH   1   3
HETATM    3  C   UNL     1     -11.618  15.477  69.262  1.00  0.00    -0.369 C  
BRANCH   3   4
HETATM    4  C   UNL     1     -12.527  14.464  69.960  1.00  0.00    -0.353 C  
BRANCH   4   5
HETATM    5  C   UNL     1     -12.020  14.099  71.356  1.00  0.00    -0.203 C  
HETATM    6  O   UNL     1     -12.028  14.766  73.638  1.00  0.00    -0.289 OA 
HETATM    7  C   UNL     1     -12.465  15.094  72.399  1.00  0.00    -0.352 C  
HETATM    8  O   UNL     1     -13.149  16.083  72.187  1.00  0.00    -0.429 OA 
ENDBRANCH   4   5
ENDBRANCH   3   4
ENDBRANCH   1   3
BRANCH   2   9
HETATM    9  C   UNL     1     -12.016  14.033  66.515  1.00  0.00    -0.470 C  
BRANCH   9  10
HETATM   10  C   UNL     1     -12.139  12.807  65.597  1.00  0.00    -0.514 C  
HETATM   11  H   UNL     1      -8.982  12.011  63.470  1.00  0.00     0.000 HD 
HETATM   12  C   UNL     1     -12.585  13.210  64.182  1.00  0.00    -0.184 C  
HETATM   13  O   UNL     1      -9.835  12.267  63.139  1.00  0.00    -0.373 OA 
HETATM   14  O   UNL     1     -11.840  14.324  63.693  1.00  0.00    -0.717 OA 
HETATM   15  C   UNL     1     -12.231  11.995  63.339  1.00  0.00    -0.627 C  
HETATM   16  C   UNL     1     -10.819  12.024  65.356  1.00  0.00    -0.336 C  
HETATM   17  H   UNL     1     -12.116  14.573  62.819  1.00  0.00     0.000 HD 
HETATM   18  C   UNL     1     -10.858  11.584  63.869  1.00  0.00    -0.401 C  
BRANCH  16  19
HETATM   19  C   UNL     1     -10.621  10.862  66.302  1.00  0.00    -0.276 C  
HETATM   20  C   UNL     1      -9.432  10.338  66.648  1.00  0.00    -0.203 C  
BRANCH  20  21
HETATM   21  C   UNL     1      -9.220   9.139  67.533  1.00  0.00    -0.128 C  
HETATM   22  O   UNL     1     -10.470   8.545  67.864  1.00  0.00    -0.250 OA 
HETATM   23  H   UNL     1     -10.337   7.788  68.422  1.00  0.00     0.000 HD 
BRANCH  21  24
HETATM   24  C   UNL     1      -8.346   8.080  66.852  1.00  0.00    -0.116 C  
BRANCH  24  25
HETATM   25  C   UNL     1      -8.122   8.288  65.350  1.00  0.00    -0.135 C  
BRANCH  25  26
HETATM   26  C   UNL     1      -6.844   9.065  65.041  1.00  0.00    -0.076 C  
BRANCH  26  27
HETATM   27  C   UNL     1      -5.951   8.311  64.058  1.00  0.00    -0.066 C  
HETATM   28  C   UNL     1      -5.678   9.150  62.820  1.00  0.00    -0.085 C  
ENDBRANCH  26  27
ENDBRANCH  25  26
ENDBRANCH  24  25
ENDBRANCH  21  24
ENDBRANCH  20  21
ENDBRANCH  16  19
ENDBRANCH   9  10
ENDBRANCH   2   9
TORSDOF 11
ENDMDL
MODEL      226
REMARK 921   NORMALIZED FREE ENERGY PREDICTED BY IDOCK:   -3.63 KCAL/MOL
REMARK 922        TOTAL FREE ENERGY PREDICTED BY IDOCK:   -8.36 KCAL/MOL
REMARK 923 INTER-LIGAND FREE ENERGY PREDICTED BY IDOCK:   -6.55 KCAL/MOL
REMARK 924 INTRA-LIGAND FREE ENERGY PREDICTED BY IDOCK:   -1.82 KCAL/MOL
REMARK 927      BINDING AFFINITY PREDICTED BY RF-SCORE:    0.00 PKD
ROOT
HETATM    1  C   UNL     1      -7.328  16.585  68.062  1.00  0.00    -0.151 C  
HETATM    2  C   UNL     1      -8.632  16.315  68.223  1.00  0.00    -0.196 C  
ENDROOT
BRANCH   1   3
HETATM    3  C   UNL     1      -6.598  16.724  66.754  1.00  0.00    -0.247 C  
BRANCH   3   4
HETATM    4  C   UNL     1      -7.071  17.950  65.972  1.00  0.00    -0.340 C  
BRANCH   4   5
HETATM    5  C   UNL     1      -6.624  19.259  66.624  1.00  0.00    -0.197 C  
HETATM    6  O   UNL     1      -7.397  21.317  67.528  1.00  0.00    -0.452 OA 
HETATM    7  C   UNL     1      -7.789  20.163  66.939  1.00  0.00    -0.315 C  
HETATM    8  O   UNL     1      -8.963  19.910  66.714  1.00  0.00    -0.328 OA 
ENDBRANCH   4   5
ENDBRANCH   3   4
ENDBRANCH   1   3
BRANCH   2   9
HETATM    9  C   UNL     1      -9.627  16.035  67.129  1.00  0.00    -0.224 C  
BRANCH   9  10
HETATM   10  C   UNL     1     -10.167  14.597  67.062  1.00  0.00    -0.261 C  
HETATM   11  H   UNL     1      -9.310  12.662  63.799  1.00  0.00     0.000 HD 
HETATM   12  C   UNL     1     -11.526  14.543  66.344  1.00  0.00    -0.360 C  
HETATM   13  O   UNL     1     -10.178  12.908  64.098  1.00  0.00    -0.391 OA 
HETATM   14  O   UNL     1     -11.511  15.297  65.133  1.00  0.00    -0.333 OA 
HETATM   15  C   UNL     1     -11.680  13.074  65.988  1.00  0.00    -0.442 C  
HETATM   16  C   UNL     1      -9.289  13.597  66.260  1.00  0.00    -0.153 C  
HETATM   17  H   UNL     1     -12.351  15.263  64.691  1.00  0.00     0.000 HD 
HETATM   18  C   UNL     1     -10.285  12.678  65.506  1.00  0.00    -0.281 C  
BRANCH  16  19
HETATM   19  C   UNL     1      -8.316  12.822  67.118  1.00  0.00    -0.164 C  
HETATM   20  C   UNL     1      -8.594  11.675  67.764  1.00  0.00    -0.144 C  
BRANCH  20  21
HETATM   21  C   UNL     1      -7.661  10.928  68.677  1.00  0.00    -0.114 C  
HETATM   22  O   UNL     1      -6.874  11.842  69.432  1.00  0.00    -0.198 OA 
HETATM   23  H   UNL     1      -6.284  11.371  70.008  1.00  0.00     0.000 HD 
BRANCH  21  24
HETATM   24  C   UNL     1      -8.423  10.026  69.653  1.00  0.00    -0.193 C  
BRANCH  24  25
HETATM   25  C   UNL     1      -9.401   9.042  69.001  1.00  0.00    -0.140 C  
BRANCH  25  26
HETATM   26  C   UNL     1     -10.850   9.270  69.430  1.00  0.00    -0.184 C  
BRANCH  26  27
HETATM   27  C   UNL     1     -10.967  10.425  70.423  1.00  0.00    -0.320 C  
HETATM   28  C   UNL     1     -11.775  11.569  69.833  1.00  0.00    -0.420 C  
ENDBRANCH  26  27
ENDBRANCH  25  26
ENDBRANCH  24  25
ENDBRANCH  21  24
ENDBRANCH  20  21
ENDBRANCH  16  19
ENDBRANCH   9  10
ENDBRANCH   2   9
TORSDOF 11
ENDMDL
MODEL      227
REMARK 921   NORMALIZED FREE ENERGY PREDICTED BY IDOCK:   -3.63 KCAL/MOL
REMARK 922        TOTAL FREE ENERGY PREDICTED BY IDOCK:   -8.36 KCAL/MOL
REMARK 923 INTER-LIGAND FREE ENERGY PREDICTED BY IDOCK:   -6.86 KCAL/MOL
REMARK 924 INTRA-LIGAND FREE ENERGY PREDICTED BY IDOCK:   -1.50 KCAL/MOL
REMARK 927      BINDING AFFINITY PREDICTED BY RF-SCORE:    0.00 PKD
ROOT
HETATM    1  C   UNL     1      -8.846   5.305  69.137  1.00  0.00    -0.113 C  
HETATM    2  C   UNL     1      -9.966   5.408  69.867  1.00  0.00    -0.294 C  
ENDROOT
BRANCH   1   3
HETATM    3  C   UNL     1      -8.598   5.918  67.787  1.00  0.00    -0.105 C  
BRANCH   3   4
HETATM    4  C   UNL     1      -8.287   7.412  67.894  1.00  0.00    -0.119 C  
BRANCH   4   5
HETATM    5  C   UNL     1      -8.182   8.080  66.523  1.00  0.00    -0.115 C  
HETATM    6  O   UNL     1      -9.401   9.283  64.874  1.00  0.00    -0.211 OA 
HETATM    7  C   UNL     1      -9.494   8.680  66.083  1.00  0.00    -0.240 C  
HETATM    8  O   UNL     1     -10.535   8.652  66.721  1.00  0.00    -0.291 OA 
ENDBRANCH   4   5
ENDBRANCH   3   4
ENDBRANCH   1   3
BRANCH   2   9
HETATM    9  C   UNL     1     -11.234   6.111  69.461  1.00  0.00    -0.482 C  
BRANCH   9  10
HETATM   10  C   UNL     1     -11.676   7.276  70.361  1.00  0.00    -0.219 C  
HETATM   11  H   UNL     1      -9.077   8.375  73.038  1.00  0.00     0.000 HD 
HETATM   12  C   UNL     1     -12.310   6.766  71.665  1.00  0.00    -0.362 C  
HETATM   13  O   UNL     1      -9.935   8.003  73.204  1.00  0.00    -0.293 OA 
HETATM   14  O   UNL     1     -11.527   5.735  72.263  1.00  0.00    -0.288 OA 
HETATM   15  C   UNL     1     -12.272   7.982  72.577  1.00  0.00    -0.294 C  
HETATM   16  C   UNL     1     -10.532   8.207  70.850  1.00  0.00    -0.229 C  
HETATM   17  H   UNL     1     -11.919   5.420  73.069  1.00  0.00     0.000 HD 
HETATM   18  C   UNL     1     -10.892   8.581  72.311  1.00  0.00    -0.348 C  
BRANCH  16  19
HETATM   19  C   UNL     1     -10.321   9.420  69.973  1.00  0.00    -0.265 C  
HETATM   20  C   UNL     1     -11.272  10.312  69.641  1.00  0.00    -0.322 C  
BRANCH  20  21
HETATM   21  C   UNL     1     -11.096  11.484  68.715  1.00  0.00    -0.233 C  
HETATM   22  O   UNL     1     -11.863  11.295  67.531  1.00  0.00    -0.613 OA 
HETATM   23  H   UNL     1     -11.753  12.035  66.946  1.00  0.00     0.000 HD 
BRANCH  21  24
HETATM   24  C   UNL     1     -11.537  12.797  69.372  1.00  0.00    -0.361 C  
BRANCH  24  25
HETATM   25  C   UNL     1     -12.087  13.854  68.407  1.00  0.00    -0.327 C  
BRANCH  25  26
HETATM   26  C   UNL     1     -11.042  14.895  68.006  1.00  0.00    -0.301 C  
BRANCH  26  27
HETATM   27  C   UNL     1      -9.653  14.524  68.522  1.00  0.00    -0.220 C  
HETATM   28  C   UNL     1      -8.693  14.283  67.369  1.00  0.00    -0.217 C  
ENDBRANCH  26  27
ENDBRANCH  25  26
ENDBRANCH  24  25
ENDBRANCH  21  24
ENDBRANCH  20  21
ENDBRANCH  16  19
ENDBRANCH   9  10
ENDBRANCH   2   9
TORSDOF 11
ENDMDL
MODEL      228
REMARK 921   NORMALIZED FREE ENERGY PREDICTED BY IDOCK:   -3.63 KCAL/MOL
REMARK 922        TOTAL FREE ENERGY PREDICTED BY IDOCK:   -8.36 KCAL/MOL
REMARK 923 INTER-LIGAND FREE ENERGY PREDICTED BY IDOCK:   -6.73 KCAL/MOL
REMARK 924 INTRA-LIGAND FREE ENERGY PREDICTED BY IDOCK:   -1.63 KCAL/MOL
REMARK 927      BINDING AFFINITY PREDICTED BY RF-SCORE:    0.00 PKD
ROOT
HETATM    1  C   UNL     1     -12.191  13.155  66.445  1.00  0.00    -0.396 C  
HETATM    2  C   UNL     1     -11.408  13.175  65.357  1.00  0.00    -0.323 C  
ENDROOT
BRANCH   1   3
HETATM    3  C   UNL     1     -11.803  12.682  67.819  1.00  0.00    -0.381 C  
BRANCH   3   4
HETATM    4  C   UNL     1     -11.033  13.756  68.589  1.00  0.00    -0.287 C  
BRANCH   4   5
HETATM    5  C   UNL     1     -11.935  14.909  69.031  1.00  0.00    -0.307 C  
HETATM    6  O   UNL     1     -13.393  15.655  70.755  1.00  0.00    -0.535 OA 
HETATM    7  C   UNL     1     -12.604  14.630  70.354  1.00  0.00    -0.343 C  
HETATM    8  O   UNL     1     -12.463  13.615  71.019  1.00  0.00    -0.354 OA 
ENDBRANCH   4   5
ENDBRANCH   3   4
ENDBRANCH   1   3
BRANCH   2   9
HETATM    9  C   UNL     1      -9.992  12.672  65.268  1.00  0.00    -0.215 C  
BRANCH   9  10
HETATM   10  C   UNL     1      -9.824  11.212  64.819  1.00  0.00    -0.326 C  
HETATM   11  H   UNL     1      -6.145  10.045  64.336  1.00  0.00     0.000 HD 
HETATM   12  C   UNL     1      -9.709  11.106  63.289  1.00  0.00    -0.371 C  
HETATM   13  O   UNL     1      -6.809  10.111  63.661  1.00  0.00    -0.130 OA 
HETATM   14  O   UNL     1      -8.793  12.065  62.763  1.00  0.00    -0.514 OA 
HETATM   15  C   UNL     1      -9.124   9.721  63.072  1.00  0.00    -0.271 C  
HETATM   16  C   UNL     1      -8.539  10.504  65.332  1.00  0.00    -0.188 C  
HETATM   17  H   UNL     1      -8.723  12.000  61.818  1.00  0.00     0.000 HD 
HETATM   18  C   UNL     1      -8.055   9.614  64.158  1.00  0.00    -0.151 C  
BRANCH  16  19
HETATM   19  C   UNL     1      -8.745   9.724  66.609  1.00  0.00    -0.142 C  
HETATM   20  C   UNL     1      -7.907   8.789  67.091  1.00  0.00    -0.096 C  
BRANCH  20  21
HETATM   21  C   UNL     1      -8.131   7.954  68.322  1.00  0.00    -0.123 C  
HETATM   22  O   UNL     1      -7.768   8.687  69.487  1.00  0.00    -0.086 OA 
HETATM   23  H   UNL     1      -7.909   8.160  70.264  1.00  0.00     0.000 HD 
BRANCH  21  24
HETATM   24  C   UNL     1      -9.596   7.525  68.458  1.00  0.00    -0.150 C  
BRANCH  24  25
HETATM   25  C   UNL     1     -10.239   7.829  69.816  1.00  0.00    -0.211 C  
BRANCH  25  26
HETATM   26  C   UNL     1     -11.338   8.887  69.730  1.00  0.00     0.072 C  
BRANCH  26  27
HETATM   27  C   UNL     1     -11.319   9.817  70.941  1.00  0.00    -0.439 C  
HETATM   28  C   UNL     1     -12.469   9.505  71.884  1.00  0.00    -0.465 C  
ENDBRANCH  26  27
ENDBRANCH  25  26
ENDBRANCH  24  25
ENDBRANCH  21  24
ENDBRANCH  20  21
ENDBRANCH  16  19
ENDBRANCH   9  10
ENDBRANCH   2   9
TORSDOF 11
ENDMDL
MODEL      229
REMARK 921   NORMALIZED FREE ENERGY PREDICTED BY IDOCK:   -3.63 KCAL/MOL
REMARK 922        TOTAL FREE ENERGY PREDICTED BY IDOCK:   -8.36 KCAL/MOL
REMARK 923 INTER-LIGAND FREE ENERGY PREDICTED BY IDOCK:   -7.22 KCAL/MOL
REMARK 924 INTRA-LIGAND FREE ENERGY PREDICTED BY IDOCK:   -1.14 KCAL/MOL
REMARK 927      BINDING AFFINITY PREDICTED BY RF-SCORE:    0.00 PKD
ROOT
HETATM    1  C   UNL     1     -11.521  10.433  69.956  1.00  0.00    -0.382 C  
HETATM    2  C   UNL     1     -11.277  10.849  68.704  1.00  0.00    -0.326 C  
ENDROOT
BRANCH   1   3
HETATM    3  C   UNL     1     -11.366   9.032  70.479  1.00  0.00    -0.282 C  
BRANCH   3   4
HETATM    4  C   UNL     1     -10.074   8.869  71.282  1.00  0.00    -0.365 C  
BRANCH   4   5
HETATM    5  C   UNL     1      -8.856   8.666  70.380  1.00  0.00    -0.170 C  
HETATM    6  O   UNL     1      -6.480   8.588  70.349  1.00  0.00    -0.035 OA 
HETATM    7  C   UNL     1      -7.560   8.781  71.143  1.00  0.00    -0.115 C  
HETATM    8  O   UNL     1      -7.460   9.010  72.338  1.00  0.00    -0.340 OA 
ENDBRANCH   4   5
ENDBRANCH   3   4
ENDBRANCH   1   3
BRANCH   2   9
HETATM    9  C   UNL     1     -10.853   9.988  67.545  1.00  0.00    -0.326 C  
BRANCH   9  10
HETATM   10  C   UNL     1      -9.731  10.556  66.659  1.00  0.00    -0.232 C  
HETATM   11  H   UNL     1     -10.463  10.518  62.840  1.00  0.00     0.000 HD 
HETATM   12  C   UNL     1      -8.798   9.442  66.156  1.00  0.00    -0.151 C  
HETATM   13  O   UNL     1      -9.780  10.034  63.288  1.00  0.00    -0.197 OA 
HETATM   14  O   UNL     1      -9.533   8.328  65.652  1.00  0.00    -0.429 OA 
HETATM   15  C   UNL     1      -8.065  10.093  64.994  1.00  0.00    -0.149 C  
HETATM   16  C   UNL     1     -10.206  11.253  65.355  1.00  0.00    -0.323 C  
HETATM   17  H   UNL     1      -8.956   7.640  65.342  1.00  0.00     0.000 HD 
HETATM   18  C   UNL     1      -9.164  10.870  64.272  1.00  0.00    -0.197 C  
BRANCH  16  19
HETATM   19  C   UNL     1     -10.379  12.748  65.494  1.00  0.00    -0.301 C  
HETATM   20  C   UNL     1     -11.280  13.354  66.289  1.00  0.00    -0.322 C  
BRANCH  20  21
HETATM   21  C   UNL     1     -11.512  14.837  66.387  1.00  0.00    -0.319 C  
HETATM   22  O   UNL     1     -11.718  15.214  67.744  1.00  0.00    -0.331 OA 
HETATM   23  H   UNL     1     -11.865  16.150  67.807  1.00  0.00     0.000 HD 
BRANCH  21  24
HETATM   24  C   UNL     1     -10.323  15.635  65.840  1.00  0.00    -0.368 C  
BRANCH  24  25
HETATM   25  C   UNL     1      -9.865  16.805  66.719  1.00  0.00    -0.282 C  
BRANCH  25  26
HETATM   26  C   UNL     1     -10.281  18.166  66.163  1.00  0.00    -0.372 C  
BRANCH  26  27
HETATM   27  C   UNL     1      -9.171  19.202  66.324  1.00  0.00    -0.335 C  
HETATM   28  C   UNL     1      -9.553  20.251  67.355  1.00  0.00    -0.569 C  
ENDBRANCH  26  27
ENDBRANCH  25  26
ENDBRANCH  24  25
ENDBRANCH  21  24
ENDBRANCH  20  21
ENDBRANCH  16  19
ENDBRANCH   9  10
ENDBRANCH   2   9
TORSDOF 11
ENDMDL
MODEL      230
REMARK 921   NORMALIZED FREE ENERGY PREDICTED BY IDOCK:   -3.63 KCAL/MOL
REMARK 922        TOTAL FREE ENERGY PREDICTED BY IDOCK:   -8.35 KCAL/MOL
REMARK 923 INTER-LIGAND FREE ENERGY PREDICTED BY IDOCK:   -6.44 KCAL/MOL
REMARK 924 INTRA-LIGAND FREE ENERGY PREDICTED BY IDOCK:   -1.92 KCAL/MOL
REMARK 927      BINDING AFFINITY PREDICTED BY RF-SCORE:    0.00 PKD
ROOT
HETATM    1  C   UNL     1     -10.340   8.343  69.652  1.00  0.00    -0.218 C  
HETATM    2  C   UNL     1     -10.576   9.631  69.360  1.00  0.00    -0.243 C  
ENDROOT
BRANCH   1   3
HETATM    3  C   UNL     1     -10.669   7.155  68.792  1.00  0.00    -0.199 C  
BRANCH   3   4
HETATM    4  C   UNL     1      -9.482   6.740  67.921  1.00  0.00    -0.118 C  
BRANCH   4   5
HETATM    5  C   UNL     1      -9.156   5.253  68.058  1.00  0.00    -0.118 C  
HETATM    6  O   UNL     1      -9.503   3.113  67.083  1.00  0.00    -0.189 OA 
HETATM    7  C   UNL     1      -9.800   4.429  66.972  1.00  0.00    -0.194 C  
HETATM    8  O   UNL     1     -10.504   4.867  66.074  1.00  0.00    -0.282 OA 
ENDBRANCH   4   5
ENDBRANCH   3   4
ENDBRANCH   1   3
BRANCH   2   9
HETATM    9  C   UNL     1     -11.277  10.153  68.135  1.00  0.00    -0.245 C  
BRANCH   9  10
HETATM   10  C   UNL     1     -10.457  11.098  67.241  1.00  0.00    -0.263 C  
HETATM   11  H   UNL     1     -11.983  11.792  63.732  1.00  0.00     0.000 HD 
HETATM   12  C   UNL     1      -9.517  10.313  66.312  1.00  0.00    -0.177 C  
HETATM   13  O   UNL     1     -11.161  11.350  63.913  1.00  0.00    -0.386 OA 
HETATM   14  O   UNL     1     -10.190   9.228  65.676  1.00  0.00    -0.343 OA 
HETATM   15  C   UNL     1      -9.142  11.330  65.246  1.00  0.00    -0.141 C  
HETATM   16  C   UNL     1     -11.289  11.975  66.265  1.00  0.00    -0.415 C  
HETATM   17  H   UNL     1      -9.609   8.743  65.102  1.00  0.00     0.000 HD 
HETATM   18  C   UNL     1     -10.463  12.040  64.954  1.00  0.00    -0.285 C  
BRANCH  16  19
HETATM   19  C   UNL     1     -11.621  13.343  66.813  1.00  0.00    -0.404 C  
HETATM   20  C   UNL     1     -12.006  13.601  68.076  1.00  0.00    -0.385 C  
BRANCH  20  21
HETATM   21  C   UNL     1     -12.407  14.945  68.619  1.00  0.00     0.058 C  
HETATM   22  O   UNL     1     -12.909  14.812  69.943  1.00  0.00    -0.585 OA 
HETATM   23  H   UNL     1     -13.163  15.660  70.286  1.00  0.00     0.000 HD 
BRANCH  21  24
HETATM   24  C   UNL     1     -11.226  15.922  68.646  1.00  0.00    -0.360 C  
BRANCH  24  25
HETATM   25  C   UNL     1     -10.198  15.668  69.756  1.00  0.00    -0.303 C  
BRANCH  25  26
HETATM   26  C   UNL     1      -8.760  15.642  69.240  1.00  0.00    -0.267 C  
BRANCH  26  27
HETATM   27  C   UNL     1      -8.477  14.381  68.426  1.00  0.00    -0.165 C  
HETATM   28  C   UNL     1      -8.208  14.724  66.971  1.00  0.00    -0.211 C  
ENDBRANCH  26  27
ENDBRANCH  25  26
ENDBRANCH  24  25
ENDBRANCH  21  24
ENDBRANCH  20  21
ENDBRANCH  16  19
ENDBRANCH   9  10
ENDBRANCH   2   9
TORSDOF 11
ENDMDL
MODEL      231
REMARK 921   NORMALIZED FREE ENERGY PREDICTED BY IDOCK:   -3.62 KCAL/MOL
REMARK 922        TOTAL FREE ENERGY PREDICTED BY IDOCK:   -8.34 KCAL/MOL
REMARK 923 INTER-LIGAND FREE ENERGY PREDICTED BY IDOCK:   -7.09 KCAL/MOL
REMARK 924 INTRA-LIGAND FREE ENERGY PREDICTED BY IDOCK:   -1.25 KCAL/MOL
REMARK 927      BINDING AFFINITY PREDICTED BY RF-SCORE:    0.00 PKD
ROOT
HETATM    1  C   UNL     1      -9.352  11.207  68.926  1.00  0.00    -0.117 C  
HETATM    2  C   UNL     1      -8.874  11.328  67.678  1.00  0.00    -0.138 C  
ENDROOT
BRANCH   1   3
HETATM    3  C   UNL     1     -10.792  11.020  69.318  1.00  0.00    -0.285 C  
BRANCH   3   4
HETATM    4  C   UNL     1     -11.114   9.552  69.604  1.00  0.00    -0.196 C  
BRANCH   4   5
HETATM    5  C   UNL     1     -11.271   9.277  71.100  1.00  0.00    -0.413 C  
HETATM    6  O   UNL     1     -10.397   8.033  72.927  1.00  0.00    -0.315 OA 
HETATM    7  C   UNL     1     -10.267   8.269  71.600  1.00  0.00    -0.221 C  
HETATM    8  O   UNL     1      -9.416   7.719  70.918  1.00  0.00    -0.159 OA 
ENDBRANCH   4   5
ENDBRANCH   3   4
ENDBRANCH   1   3
BRANCH   2   9
HETATM    9  C   UNL     1      -9.686  11.363  66.412  1.00  0.00    -0.231 C  
BRANCH   9  10
HETATM   10  C   UNL     1     -10.121  12.757  65.930  1.00  0.00    -0.286 C  
HETATM   11  H   UNL     1     -11.336  15.168  68.730  1.00  0.00     0.000 HD 
HETATM   12  C   UNL     1     -11.637  12.814  65.681  1.00  0.00    -0.370 C  
HETATM   13  O   UNL     1     -11.858  14.825  68.015  1.00  0.00    -0.336 OA 
HETATM   14  O   UNL     1     -12.369  12.233  66.759  1.00  0.00    -0.438 OA 
HETATM   15  C   UNL     1     -11.936  14.304  65.653  1.00  0.00    -0.390 C  
HETATM   16  C   UNL     1      -9.871  13.914  66.936  1.00  0.00    -0.268 C  
HETATM   17  H   UNL     1     -13.306  12.268  66.605  1.00  0.00     0.000 HD 
HETATM   18  C   UNL     1     -11.096  14.855  66.804  1.00  0.00    -0.335 C  
BRANCH  16  19
HETATM   19  C   UNL     1      -8.559  14.631  66.722  1.00  0.00    -0.195 C  
HETATM   20  C   UNL     1      -8.360  15.951  66.889  1.00  0.00    -0.281 C  
BRANCH  20  21
HETATM   21  C   UNL     1      -7.081  16.693  66.613  1.00  0.00    -0.222 C  
HETATM   22  O   UNL     1      -7.291  17.683  65.613  1.00  0.00    -0.487 OA 
HETATM   23  H   UNL     1      -6.483  18.151  65.438  1.00  0.00     0.000 HD 
BRANCH  21  24
HETATM   24  C   UNL     1      -6.543  17.384  67.871  1.00  0.00    -0.171 C  
BRANCH  24  25
HETATM   25  C   UNL     1      -7.605  18.061  68.745  1.00  0.00    -0.277 C  
BRANCH  25  26
HETATM   26  C   UNL     1      -7.231  19.489  69.137  1.00  0.00    -0.382 C  
BRANCH  26  27
HETATM   27  C   UNL     1      -6.292  20.126  68.114  1.00  0.00    -0.308 C  
HETATM   28  C   UNL     1      -6.983  21.260  67.376  1.00  0.00    -0.271 C  
ENDBRANCH  26  27
ENDBRANCH  25  26
ENDBRANCH  24  25
ENDBRANCH  21  24
ENDBRANCH  20  21
ENDBRANCH  16  19
ENDBRANCH   9  10
ENDBRANCH   2   9
TORSDOF 11
ENDMDL
MODEL      232
REMARK 921   NORMALIZED FREE ENERGY PREDICTED BY IDOCK:   -3.60 KCAL/MOL
REMARK 922        TOTAL FREE ENERGY PREDICTED BY IDOCK:   -8.32 KCAL/MOL
REMARK 923 INTER-LIGAND FREE ENERGY PREDICTED BY IDOCK:   -6.84 KCAL/MOL
REMARK 924 INTRA-LIGAND FREE ENERGY PREDICTED BY IDOCK:   -1.47 KCAL/MOL
REMARK 927      BINDING AFFINITY PREDICTED BY RF-SCORE:    0.00 PKD
ROOT
HETATM    1  C   UNL     1      -7.432  10.510  68.162  1.00  0.00    -0.090 C  
HETATM    2  C   UNL     1      -7.961  11.402  67.311  1.00  0.00    -0.149 C  
ENDROOT
BRANCH   1   3
HETATM    3  C   UNL     1      -7.866  10.260  69.580  1.00  0.00    -0.168 C  
BRANCH   3   4
HETATM    4  C   UNL     1      -8.761   9.025  69.687  1.00  0.00    -0.143 C  
BRANCH   4   5
HETATM    5  C   UNL     1      -8.990   8.357  68.331  1.00  0.00    -0.136 C  
HETATM    6  O   UNL     1     -10.485   8.212  66.489  1.00  0.00    -0.252 OA 
HETATM    7  C   UNL     1     -10.286   8.792  67.696  1.00  0.00    -0.254 C  
HETATM    8  O   UNL     1     -11.082   9.581  68.180  1.00  0.00    -0.140 OA 
ENDBRANCH   4   5
ENDBRANCH   3   4
ENDBRANCH   1   3
BRANCH   2   9
HETATM    9  C   UNL     1      -9.061  12.383  67.617  1.00  0.00    -0.186 C  
BRANCH   9  10
HETATM   10  C   UNL     1      -9.444  13.342  66.479  1.00  0.00    -0.252 C  
HETATM   11  H   UNL     1     -13.058  14.767  66.663  1.00  0.00     0.000 HD 
HETATM   12  C   UNL     1     -10.150  12.597  65.334  1.00  0.00    -0.261 C  
HETATM   13  O   UNL     1     -12.708  14.200  65.985  1.00  0.00    -0.469 OA 
HETATM   14  O   UNL     1     -11.163  11.721  65.823  1.00  0.00    -0.322 OA 
HETATM   15  C   UNL     1     -10.823  13.711  64.549  1.00  0.00    -0.416 C  
HETATM   16  C   UNL     1     -10.450  14.461  66.864  1.00  0.00    -0.269 C  
HETATM   17  H   UNL     1     -11.600  11.261  65.116  1.00  0.00     0.000 HD 
HETATM   18  C   UNL     1     -11.386  14.622  65.639  1.00  0.00    -0.338 C  
BRANCH  16  19
HETATM   19  C   UNL     1      -9.790  15.758  67.268  1.00  0.00    -0.230 C  
HETATM   20  C   UNL     1      -8.560  16.153  66.893  1.00  0.00    -0.253 C  
BRANCH  20  21
HETATM   21  C   UNL     1      -7.860  17.407  67.341  1.00  0.00    -0.196 C  
HETATM   22  O   UNL     1      -6.821  17.089  68.260  1.00  0.00    -0.161 OA 
HETATM   23  H   UNL     1      -6.379  17.881  68.543  1.00  0.00     0.000 HD 
BRANCH  21  24
HETATM   24  C   UNL     1      -7.245  18.166  66.160  1.00  0.00    -0.316 C  
BRANCH  24  25
HETATM   25  C   UNL     1      -7.805  19.574  65.929  1.00  0.00    -0.264 C  
BRANCH  25  26
HETATM   26  C   UNL     1      -8.363  20.209  67.201  1.00  0.00    -0.391 C  
BRANCH  26  27
HETATM   27  C   UNL     1      -9.876  20.401  67.117  1.00  0.00    -0.601 C  
HETATM   28  C   UNL     1     -10.441  19.724  65.880  1.00  0.00    -0.587 C  
ENDBRANCH  26  27
ENDBRANCH  25  26
ENDBRANCH  24  25
ENDBRANCH  21  24
ENDBRANCH  20  21
ENDBRANCH  16  19
ENDBRANCH   9  10
ENDBRANCH   2   9
TORSDOF 11
ENDMDL
MODEL      233
REMARK 921   NORMALIZED FREE ENERGY PREDICTED BY IDOCK:   -3.60 KCAL/MOL
REMARK 922        TOTAL FREE ENERGY PREDICTED BY IDOCK:   -8.31 KCAL/MOL
REMARK 923 INTER-LIGAND FREE ENERGY PREDICTED BY IDOCK:   -6.41 KCAL/MOL
REMARK 924 INTRA-LIGAND FREE ENERGY PREDICTED BY IDOCK:   -1.90 KCAL/MOL
REMARK 927      BINDING AFFINITY PREDICTED BY RF-SCORE:    0.00 PKD
ROOT
HETATM    1  C   UNL     1     -11.830  11.826  68.406  1.00  0.00    -0.347 C  
HETATM    2  C   UNL     1     -11.919  12.516  67.259  1.00  0.00    -0.286 C  
ENDROOT
BRANCH   1   3
HETATM    3  C   UNL     1     -11.685  12.401  69.787  1.00  0.00    -0.361 C  
BRANCH   3   4
HETATM    4  C   UNL     1     -12.415  11.555  70.831  1.00  0.00    -0.464 C  
BRANCH   4   5
HETATM    5  C   UNL     1     -11.985  10.089  70.791  1.00  0.00    -0.426 C  
HETATM    6  O   UNL     1     -12.499   7.913  71.598  1.00  0.00    -0.301 OA 
HETATM    7  C   UNL     1     -12.870   9.214  71.643  1.00  0.00    -0.363 C  
HETATM    8  O   UNL     1     -13.825   9.600  72.300  1.00  0.00    -0.380 OA 
ENDBRANCH   4   5
ENDBRANCH   3   4
ENDBRANCH   1   3
BRANCH   2   9
HETATM    9  C   UNL     1     -11.829  14.011  67.108  1.00  0.00    -0.444 C  
BRANCH   9  10
HETATM   10  C   UNL     1     -10.520  14.550  66.510  1.00  0.00    -0.285 C  
HETATM   11  H   UNL     1      -7.817  15.582  69.109  1.00  0.00     0.000 HD 
HETATM   12  C   UNL     1     -10.539  16.084  66.414  1.00  0.00    -0.284 C  
HETATM   13  O   UNL     1      -8.261  16.158  68.498  1.00  0.00    -0.168 OA 
HETATM   14  O   UNL     1     -11.003  16.681  67.624  1.00  0.00    -0.296 OA 
HETATM   15  C   UNL     1      -9.074  16.447  66.237  1.00  0.00    -0.362 C  
HETATM   16  C   UNL     1      -9.240  14.251  67.338  1.00  0.00    -0.200 C  
HETATM   17  H   UNL     1     -11.015  17.629  67.564  1.00  0.00     0.000 HD 
HETATM   18  C   UNL     1      -8.359  15.521  67.220  1.00  0.00    -0.193 C  
BRANCH  16  19
HETATM   19  C   UNL     1      -8.516  12.997  66.904  1.00  0.00    -0.087 C  
HETATM   20  C   UNL     1      -8.107  12.014  67.725  1.00  0.00    -0.149 C  
BRANCH  20  21
HETATM   21  C   UNL     1      -7.325  10.794  67.320  1.00  0.00    -0.097 C  
HETATM   22  O   UNL     1      -6.182  10.643  68.153  1.00  0.00    -0.056 OA 
HETATM   23  H   UNL     1      -5.688   9.874  67.898  1.00  0.00     0.000 HD 
BRANCH  21  24
HETATM   24  C   UNL     1      -8.169   9.519  67.423  1.00  0.00    -0.114 C  
BRANCH  24  25
HETATM   25  C   UNL     1      -7.673   8.492  68.448  1.00  0.00    -0.101 C  
BRANCH  25  26
HETATM   26  C   UNL     1      -8.651   8.283  69.603  1.00  0.00    -0.129 C  
BRANCH  26  27
HETATM   27  C   UNL     1      -8.276   9.130  70.817  1.00  0.00    -0.226 C  
HETATM   28  C   UNL     1      -8.959   8.612  72.072  1.00  0.00    -0.286 C  
ENDBRANCH  26  27
ENDBRANCH  25  26
ENDBRANCH  24  25
ENDBRANCH  21  24
ENDBRANCH  20  21
ENDBRANCH  16  19
ENDBRANCH   9  10
ENDBRANCH   2   9
TORSDOF 11
ENDMDL
MODEL      234
REMARK 921   NORMALIZED FREE ENERGY PREDICTED BY IDOCK:   -3.58 KCAL/MOL
REMARK 922        TOTAL FREE ENERGY PREDICTED BY IDOCK:   -8.28 KCAL/MOL
REMARK 923 INTER-LIGAND FREE ENERGY PREDICTED BY IDOCK:   -6.15 KCAL/MOL
REMARK 924 INTRA-LIGAND FREE ENERGY PREDICTED BY IDOCK:   -2.13 KCAL/MOL
REMARK 927      BINDING AFFINITY PREDICTED BY RF-SCORE:    0.00 PKD
ROOT
HETATM    1  C   UNL     1      -7.378   9.665  65.764  1.00  0.00    -0.100 C  
HETATM    2  C   UNL     1      -8.322  10.066  64.899  1.00  0.00    -0.160 C  
ENDROOT
BRANCH   1   3
HETATM    3  C   UNL     1      -7.561   9.412  67.235  1.00  0.00    -0.091 C  
BRANCH   3   4
HETATM    4  C   UNL     1      -7.503   7.919  67.563  1.00  0.00    -0.093 C  
BRANCH   4   5
HETATM    5  C   UNL     1      -8.756   7.177  67.098  1.00  0.00    -0.121 C  
HETATM    6  O   UNL     1     -10.420   5.613  67.760  1.00  0.00    -0.208 OA 
HETATM    7  C   UNL     1      -9.303   6.262  68.165  1.00  0.00    -0.115 C  
HETATM    8  O   UNL     1      -8.825   6.110  69.279  1.00  0.00    -0.124 OA 
ENDBRANCH   4   5
ENDBRANCH   3   4
ENDBRANCH   1   3
BRANCH   2   9
HETATM    9  C   UNL     1      -9.749  10.407  65.232  1.00  0.00    -0.339 C  
BRANCH   9  10
HETATM   10  C   UNL     1      -9.954  11.614  66.163  1.00  0.00    -0.252 C  
HETATM   11  H   UNL     1     -13.569  13.046  66.241  1.00  0.00     0.000 HD 
HETATM   12  C   UNL     1      -9.800  12.940  65.401  1.00  0.00    -0.118 C  
HETATM   13  O   UNL     1     -12.791  13.494  65.932  1.00  0.00    -0.375 OA 
HETATM   14  O   UNL     1     -10.524  12.928  64.172  1.00  0.00    -0.403 OA 
HETATM   15  C   UNL     1     -10.449  13.958  66.324  1.00  0.00    -0.287 C  
HETATM   16  C   UNL     1     -11.364  11.723  66.807  1.00  0.00    -0.385 C  
HETATM   17  H   UNL     1     -10.428  13.748  63.701  1.00  0.00     0.000 HD 
HETATM   18  C   UNL     1     -11.701  13.237  66.821  1.00  0.00    -0.385 C  
BRANCH  16  19
HETATM   19  C   UNL     1     -11.455  11.092  68.176  1.00  0.00    -0.374 C  
HETATM   20  C   UNL     1     -10.901   9.918  68.528  1.00  0.00    -0.257 C  
BRANCH  20  21
HETATM   21  C   UNL     1     -11.041   9.242  69.865  1.00  0.00    -0.181 C  
HETATM   22  O   UNL     1     -11.408   7.878  69.691  1.00  0.00    -0.454 OA 
HETATM   23  H   UNL     1     -11.496   7.451  70.535  1.00  0.00     0.000 HD 
BRANCH  21  24
HETATM   24  C   UNL     1      -9.734   9.292  70.665  1.00  0.00    -0.334 C  
BRANCH  24  25
HETATM   25  C   UNL     1      -9.816   8.707  72.080  1.00  0.00    -0.396 C  
BRANCH  25  26
HETATM   26  C   UNL     1      -8.685   7.726  72.384  1.00  0.00    -0.184 C  
BRANCH  26  27
HETATM   27  C   UNL     1      -9.217   6.420  72.969  1.00  0.00    -0.137 C  
HETATM   28  C   UNL     1     -10.735   6.379  72.914  1.00  0.00    -0.276 C  
ENDBRANCH  26  27
ENDBRANCH  25  26
ENDBRANCH  24  25
ENDBRANCH  21  24
ENDBRANCH  20  21
ENDBRANCH  16  19
ENDBRANCH   9  10
ENDBRANCH   2   9
TORSDOF 11
ENDMDL
MODEL      235
REMARK 921   NORMALIZED FREE ENERGY PREDICTED BY IDOCK:   -3.57 KCAL/MOL
REMARK 922        TOTAL FREE ENERGY PREDICTED BY IDOCK:   -8.26 KCAL/MOL
REMARK 923 INTER-LIGAND FREE ENERGY PREDICTED BY IDOCK:   -6.98 KCAL/MOL
REMARK 924 INTRA-LIGAND FREE ENERGY PREDICTED BY IDOCK:   -1.27 KCAL/MOL
REMARK 927      BINDING AFFINITY PREDICTED BY RF-SCORE:    0.00 PKD
ROOT
HETATM    1  C   UNL     1     -10.661  12.498  64.684  1.00  0.00    -0.343 C  
HETATM    2  C   UNL     1     -10.091  11.329  65.012  1.00  0.00    -0.331 C  
ENDROOT
BRANCH   1   3
HETATM    3  C   UNL     1     -12.098  12.884  64.897  1.00  0.00    -0.479 C  
BRANCH   3   4
HETATM    4  C   UNL     1     -12.230  14.055  65.873  1.00  0.00    -0.481 C  
BRANCH   4   5
HETATM    5  C   UNL     1     -10.928  14.328  66.626  1.00  0.00    -0.310 C  
HETATM    6  O   UNL     1      -9.099  15.835  66.816  1.00  0.00    -0.213 OA 
HETATM    7  C   UNL     1     -10.246  15.584  66.142  1.00  0.00    -0.306 C  
HETATM    8  O   UNL     1     -10.658  16.317  65.256  1.00  0.00    -0.508 OA 
ENDBRANCH   4   5
ENDBRANCH   3   4
ENDBRANCH   1   3
BRANCH   2   9
HETATM    9  C   UNL     1     -10.786  10.134  65.607  1.00  0.00     0.172 C  
BRANCH   9  10
HETATM   10  C   UNL     1     -10.008   9.375  66.694  1.00  0.00    -0.326 C  
HETATM   11  H   UNL     1      -6.459  10.768  67.463  1.00  0.00     0.000 HD 
HETATM   12  C   UNL     1      -9.093   8.303  66.081  1.00  0.00    -0.189 C  
HETATM   13  O   UNL     1      -6.663   9.914  67.100  1.00  0.00    -0.073 OA 
HETATM   14  O   UNL     1      -8.349   8.815  64.977  1.00  0.00    -0.152 OA 
HETATM   15  C   UNL     1      -8.119   7.984  67.203  1.00  0.00    -0.117 C  
HETATM   16  C   UNL     1      -9.038  10.243  67.543  1.00  0.00    -0.146 C  
HETATM   17  H   UNL     1      -7.784   8.151  64.598  1.00  0.00     0.000 HD 
HETATM   18  C   UNL     1      -7.788   9.357  67.786  1.00  0.00    -0.095 C  
BRANCH  16  19
HETATM   19  C   UNL     1      -9.647  10.755  68.827  1.00  0.00    -0.194 C  
HETATM   20  C   UNL     1     -10.962  10.944  69.040  1.00  0.00    -0.285 C  
BRANCH  20  21
HETATM   21  C   UNL     1     -11.581  11.518  70.285  1.00  0.00    -0.214 C  
HETATM   22  O   UNL     1     -11.698  12.932  70.170  1.00  0.00    -0.488 OA 
HETATM   23  H   UNL     1     -12.088  13.295  70.956  1.00  0.00     0.000 HD 
BRANCH  21  24
HETATM   24  C   UNL     1     -12.975  10.938  70.545  1.00  0.00    -0.212 C  
BRANCH  24  25
HETATM   25  C   UNL     1     -13.283  10.617  72.012  1.00  0.00    -0.473 C  
BRANCH  25  26
HETATM   26  C   UNL     1     -13.050   9.149  72.362  1.00  0.00    -0.493 C  
BRANCH  26  27
HETATM   27  C   UNL     1     -13.998   8.230  71.593  1.00  0.00    -0.461 C  
HETATM   28  C   UNL     1     -13.385   6.852  71.406  1.00  0.00    -0.267 C  
ENDBRANCH  26  27
ENDBRANCH  25  26
ENDBRANCH  24  25
ENDBRANCH  21  24
ENDBRANCH  20  21
ENDBRANCH  16  19
ENDBRANCH   9  10
ENDBRANCH   2   9
TORSDOF 11
ENDMDL
MODEL      236
REMARK 921   NORMALIZED FREE ENERGY PREDICTED BY IDOCK:   -3.56 KCAL/MOL
REMARK 922        TOTAL FREE ENERGY PREDICTED BY IDOCK:   -8.25 KCAL/MOL
REMARK 923 INTER-LIGAND FREE ENERGY PREDICTED BY IDOCK:   -7.16 KCAL/MOL
REMARK 924 INTRA-LIGAND FREE ENERGY PREDICTED BY IDOCK:   -1.09 KCAL/MOL
REMARK 927      BINDING AFFINITY PREDICTED BY RF-SCORE:    0.00 PKD
ROOT
HETATM    1  C   UNL     1     -12.649  10.301  71.532  1.00  0.00    -0.544 C  
HETATM    2  C   UNL     1     -12.155  10.940  70.460  1.00  0.00    -0.464 C  
ENDROOT
BRANCH   1   3
HETATM    3  C   UNL     1     -12.996   8.840  71.621  1.00  0.00    -0.390 C  
BRANCH   3   4
HETATM    4  C   UNL     1     -11.756   7.979  71.869  1.00  0.00    -0.351 C  
BRANCH   4   5
HETATM    5  C   UNL     1     -10.597   8.789  72.449  1.00  0.00    -0.214 C  
HETATM    6  O   UNL     1      -8.479   8.620  73.516  1.00  0.00    -0.370 OA 
HETATM    7  C   UNL     1      -9.513   7.905  73.013  1.00  0.00    -0.271 C  
HETATM    8  O   UNL     1      -9.529   6.684  73.021  1.00  0.00    -0.141 OA 
ENDBRANCH   4   5
ENDBRANCH   3   4
ENDBRANCH   1   3
BRANCH   2   9
HETATM    9  C   UNL     1     -11.903  10.341  69.103  1.00  0.00    -0.039 C  
BRANCH   9  10
HETATM   10  C   UNL     1     -10.537  10.657  68.471  1.00  0.00    -0.229 C  
HETATM   11  H   UNL     1      -9.614   8.504  65.367  1.00  0.00     0.000 HD 
HETATM   12  C   UNL     1      -9.438   9.735  69.025  1.00  0.00    -0.173 C  
HETATM   13  O   UNL     1      -9.161   8.514  66.202  1.00  0.00    -0.187 OA 
HETATM   14  O   UNL     1      -9.855   8.371  69.040  1.00  0.00    -0.174 OA 
HETATM   15  C   UNL     1      -8.314   9.877  68.013  1.00  0.00    -0.113 C  
HETATM   16  C   UNL     1     -10.453  10.446  66.934  1.00  0.00    -0.300 C  
HETATM   17  H   UNL     1      -9.176   7.802  69.382  1.00  0.00     0.000 HD 
HETATM   18  C   UNL     1      -9.042   9.860  66.669  1.00  0.00    -0.147 C  
BRANCH  16  19
HETATM   19  C   UNL     1     -10.723  11.699  66.135  1.00  0.00    -0.325 C  
HETATM   20  C   UNL     1     -11.000  12.908  66.656  1.00  0.00    -0.302 C  
BRANCH  20  21
HETATM   21  C   UNL     1     -11.340  14.148  65.876  1.00  0.00    -0.323 C  
HETATM   22  O   UNL     1     -12.637  14.615  66.233  1.00  0.00    -0.306 OA 
HETATM   23  H   UNL     1     -12.851  15.398  65.740  1.00  0.00     0.000 HD 
BRANCH  21  24
HETATM   24  C   UNL     1     -10.334  15.275  66.135  1.00  0.00    -0.314 C  
BRANCH  24  25
HETATM   25  C   UNL     1     -10.799  16.673  65.711  1.00  0.00    -0.107 C  
BRANCH  25  26
HETATM   26  C   UNL     1     -10.563  17.731  66.788  1.00  0.00    -0.235 C  
BRANCH  26  27
HETATM   27  C   UNL     1     -10.374  19.119  66.180  1.00  0.00    -0.561 C  
HETATM   28  C   UNL     1      -9.847  20.098  67.216  1.00  0.00    -0.580 C  
ENDBRANCH  26  27
ENDBRANCH  25  26
ENDBRANCH  24  25
ENDBRANCH  21  24
ENDBRANCH  20  21
ENDBRANCH  16  19
ENDBRANCH   9  10
ENDBRANCH   2   9
TORSDOF 11
ENDMDL
MODEL      237
REMARK 921   NORMALIZED FREE ENERGY PREDICTED BY IDOCK:   -3.56 KCAL/MOL
REMARK 922        TOTAL FREE ENERGY PREDICTED BY IDOCK:   -8.25 KCAL/MOL
REMARK 923 INTER-LIGAND FREE ENERGY PREDICTED BY IDOCK:   -7.06 KCAL/MOL
REMARK 924 INTRA-LIGAND FREE ENERGY PREDICTED BY IDOCK:   -1.19 KCAL/MOL
REMARK 927      BINDING AFFINITY PREDICTED BY RF-SCORE:    0.00 PKD
ROOT
HETATM    1  C   UNL     1      -7.327  13.750  68.367  1.00  0.00    -0.117 C  
HETATM    2  C   UNL     1      -7.965  13.232  67.307  1.00  0.00    -0.134 C  
ENDROOT
BRANCH   1   3
HETATM    3  C   UNL     1      -7.532  15.120  68.954  1.00  0.00    -0.143 C  
BRANCH   3   4
HETATM    4  C   UNL     1      -6.821  16.197  68.134  1.00  0.00    -0.132 C  
BRANCH   4   5
HETATM    5  C   UNL     1      -7.034  17.597  68.711  1.00  0.00    -0.245 C  
HETATM    6  O   UNL     1      -8.435  19.516  68.628  1.00  0.00    -0.357 OA 
HETATM    7  C   UNL     1      -8.236  18.281  68.109  1.00  0.00    -0.283 C  
HETATM    8  O   UNL     1      -8.972  17.802  67.260  1.00  0.00    -0.240 OA 
ENDBRANCH   4   5
ENDBRANCH   3   4
ENDBRANCH   1   3
BRANCH   2   9
HETATM    9  C   UNL     1      -8.977  13.937  66.444  1.00  0.00    -0.017 C  
BRANCH   9  10
HETATM   10  C   UNL     1     -10.345  13.247  66.310  1.00  0.00    -0.290 C  
HETATM   11  H   UNL     1     -12.118  13.742  62.884  1.00  0.00     0.000 HD 
HETATM   12  C   UNL     1     -11.492  14.205  66.669  1.00  0.00    -0.366 C  
HETATM   13  O   UNL     1     -12.425  14.050  63.729  1.00  0.00    -0.753 OA 
HETATM   14  O   UNL     1     -11.333  15.475  66.038  1.00  0.00    -0.189 OA 
HETATM   15  C   UNL     1     -12.717  13.530  66.074  1.00  0.00    -0.307 C  
HETATM   16  C   UNL     1     -10.705  12.762  64.879  1.00  0.00    -0.329 C  
HETATM   17  H   UNL     1     -12.042  16.067  66.260  1.00  0.00     0.000 HD 
HETATM   18  C   UNL     1     -12.223  13.035  64.715  1.00  0.00    -0.435 C  
BRANCH  16  19
HETATM   19  C   UNL     1     -10.341  11.319  64.617  1.00  0.00    -0.373 C  
HETATM   20  C   UNL     1      -9.709  10.509  65.485  1.00  0.00    -0.298 C  
BRANCH  20  21
HETATM   21  C   UNL     1      -9.276   9.094  65.216  1.00  0.00    -0.179 C  
HETATM   22  O   UNL     1      -8.010   9.080  64.566  1.00  0.00    -0.117 OA 
HETATM   23  H   UNL     1      -7.737   8.187  64.396  1.00  0.00     0.000 HD 
BRANCH  21  24
HETATM   24  C   UNL     1      -9.163   8.280  66.510  1.00  0.00    -0.236 C  
BRANCH  24  25
HETATM   25  C   UNL     1     -10.424   8.267  67.383  1.00  0.00    -0.353 C  
BRANCH  25  26
HETATM   26  C   UNL     1     -11.113   6.904  67.412  1.00  0.00    -0.322 C  
BRANCH  26  27
HETATM   27  C   UNL     1     -10.681   6.081  68.624  1.00  0.00    -0.363 C  
HETATM   28  C   UNL     1     -11.503   6.447  69.849  1.00  0.00    -0.483 C  
ENDBRANCH  26  27
ENDBRANCH  25  26
ENDBRANCH  24  25
ENDBRANCH  21  24
ENDBRANCH  20  21
ENDBRANCH  16  19
ENDBRANCH   9  10
ENDBRANCH   2   9
TORSDOF 11
ENDMDL
MODEL      238
REMARK 921   NORMALIZED FREE ENERGY PREDICTED BY IDOCK:   -3.56 KCAL/MOL
REMARK 922        TOTAL FREE ENERGY PREDICTED BY IDOCK:   -8.24 KCAL/MOL
REMARK 923 INTER-LIGAND FREE ENERGY PREDICTED BY IDOCK:   -7.55 KCAL/MOL
REMARK 924 INTRA-LIGAND FREE ENERGY PREDICTED BY IDOCK:   -0.69 KCAL/MOL
REMARK 927      BINDING AFFINITY PREDICTED BY RF-SCORE:    0.00 PKD
ROOT
HETATM    1  C   UNL     1     -10.304  11.412  68.460  1.00  0.00    -0.219 C  
HETATM    2  C   UNL     1      -9.848  11.394  67.199  1.00  0.00    -0.212 C  
ENDROOT
BRANCH   1   3
HETATM    3  C   UNL     1     -11.706  11.103  68.909  1.00  0.00    -0.406 C  
BRANCH   3   4
HETATM    4  C   UNL     1     -11.913  11.442  70.386  1.00  0.00    -0.465 C  
BRANCH   4   5
HETATM    5  C   UNL     1     -12.584  10.300  71.152  1.00  0.00    -0.501 C  
HETATM    6  O   UNL     1     -12.168   8.324  72.406  1.00  0.00    -0.361 OA 
HETATM    7  C   UNL     1     -11.578   9.329  71.716  1.00  0.00    -0.388 C  
HETATM    8  O   UNL     1     -10.366   9.414  71.594  1.00  0.00    -0.309 OA 
ENDBRANCH   4   5
ENDBRANCH   3   4
ENDBRANCH   1   3
BRANCH   2   9
HETATM    9  C   UNL     1     -10.659  11.121  65.961  1.00  0.00    -0.298 C  
BRANCH   9  10
HETATM   10  C   UNL     1     -10.764  12.280  64.956  1.00  0.00    -0.336 C  
HETATM   11  H   UNL     1     -13.362  15.027  65.867  1.00  0.00     0.000 HD 
HETATM   12  C   UNL     1     -11.881  12.030  63.930  1.00  0.00    -0.448 C  
HETATM   13  O   UNL     1     -13.391  14.451  65.112  1.00  0.00    -0.542 OA 
HETATM   14  O   UNL     1     -13.085  11.595  64.559  1.00  0.00     0.004 OA 
HETATM   15  C   UNL     1     -12.128  13.406  63.333  1.00  0.00    -0.437 C  
HETATM   16  C   UNL     1     -11.132  13.659  65.570  1.00  0.00    -0.301 C  
HETATM   17  H   UNL     1     -13.775  11.440  63.924  1.00  0.00     0.000 HD 
HETATM   18  C   UNL     1     -12.082  14.332  64.547  1.00  0.00    -0.480 C  
BRANCH  16  19
HETATM   19  C   UNL     1      -9.932  14.514  65.902  1.00  0.00    -0.352 C  
HETATM   20  C   UNL     1      -9.100  14.315  66.941  1.00  0.00    -0.268 C  
BRANCH  20  21
HETATM   21  C   UNL     1      -7.944  15.196  67.327  1.00  0.00    -0.205 C  
HETATM   22  O   UNL     1      -8.250  16.559  67.054  1.00  0.00    -0.167 OA 
HETATM   23  H   UNL     1      -7.520  17.115  67.297  1.00  0.00     0.000 HD 
BRANCH  21  24
HETATM   24  C   UNL     1      -7.604  15.067  68.816  1.00  0.00    -0.137 C  
BRANCH  24  25
HETATM   25  C   UNL     1      -6.113  15.177  69.154  1.00  0.00    -0.101 C  
BRANCH  25  26
HETATM   26  C   UNL     1      -5.757  16.489  69.853  1.00  0.00    -0.201 C  
BRANCH  26  27
HETATM   27  C   UNL     1      -5.406  17.584  68.847  1.00  0.00    -0.156 C  
HETATM   28  C   UNL     1      -6.133  18.877  69.177  1.00  0.00    -0.265 C  
ENDBRANCH  26  27
ENDBRANCH  25  26
ENDBRANCH  24  25
ENDBRANCH  21  24
ENDBRANCH  20  21
ENDBRANCH  16  19
ENDBRANCH   9  10
ENDBRANCH   2   9
TORSDOF 11
ENDMDL
MODEL      239
REMARK 921   NORMALIZED FREE ENERGY PREDICTED BY IDOCK:   -3.55 KCAL/MOL
REMARK 922        TOTAL FREE ENERGY PREDICTED BY IDOCK:   -8.23 KCAL/MOL
REMARK 923 INTER-LIGAND FREE ENERGY PREDICTED BY IDOCK:   -7.14 KCAL/MOL
REMARK 924 INTRA-LIGAND FREE ENERGY PREDICTED BY IDOCK:   -1.09 KCAL/MOL
REMARK 927      BINDING AFFINITY PREDICTED BY RF-SCORE:    0.00 PKD
ROOT
HETATM    1  C   UNL     1     -11.342  10.797  67.671  1.00  0.00    -0.328 C  
HETATM    2  C   UNL     1     -10.639   9.927  68.411  1.00  0.00    -0.258 C  
ENDROOT
BRANCH   1   3
HETATM    3  C   UNL     1     -11.752  12.187  68.072  1.00  0.00    -0.409 C  
BRANCH   3   4
HETATM    4  C   UNL     1     -11.130  13.245  67.159  1.00  0.00    -0.308 C  
BRANCH   4   5
HETATM    5  C   UNL     1     -11.004  12.759  65.714  1.00  0.00    -0.306 C  
HETATM    6  O   UNL     1     -12.022  12.832  63.567  1.00  0.00    -0.489 OA 
HETATM    7  C   UNL     1     -12.138  13.250  64.850  1.00  0.00    -0.397 C  
HETATM    8  O   UNL     1     -13.063  13.953  65.227  1.00  0.00    -0.777 OA 
ENDBRANCH   4   5
ENDBRANCH   3   4
ENDBRANCH   1   3
BRANCH   2   9
HETATM    9  C   UNL     1     -10.165  10.137  69.824  1.00  0.00    -0.286 C  
BRANCH   9  10
HETATM   10  C   UNL     1     -10.284   8.925  70.762  1.00  0.00    -0.282 C  
HETATM   11  H   UNL     1     -13.302   6.577  70.052  1.00  0.00     0.000 HD 
HETATM   12  C   UNL     1     -11.219   9.223  71.945  1.00  0.00    -0.261 C  
HETATM   13  O   UNL     1     -13.161   7.092  70.838  1.00  0.00    -0.240 OA 
HETATM   14  O   UNL     1     -12.430   9.843  71.516  1.00  0.00    -0.353 OA 
HETATM   15  C   UNL     1     -11.557   7.844  72.487  1.00  0.00    -0.443 C  
HETATM   16  C   UNL     1     -10.899   7.649  70.122  1.00  0.00    -0.255 C  
HETATM   17  H   UNL     1     -13.007  10.027  72.248  1.00  0.00     0.000 HD 
HETATM   18  C   UNL     1     -11.785   7.014  71.224  1.00  0.00    -0.317 C  
BRANCH  16  19
HETATM   19  C   UNL     1      -9.869   6.688  69.576  1.00  0.00    -0.162 C  
HETATM   20  C   UNL     1     -10.144   5.538  68.935  1.00  0.00    -0.266 C  
BRANCH  20  21
HETATM   21  C   UNL     1      -9.133   4.536  68.448  1.00  0.00    -0.124 C  
HETATM   22  O   UNL     1      -9.625   3.213  68.627  1.00  0.00    -0.164 OA 
HETATM   23  H   UNL     1      -8.987   2.580  68.319  1.00  0.00     0.000 HD 
BRANCH  21  24
HETATM   24  C   UNL     1      -8.809   4.734  66.962  1.00  0.00    -0.107 C  
BRANCH  24  25
HETATM   25  C   UNL     1      -9.363   3.653  66.027  1.00  0.00    -0.171 C  
BRANCH  25  26
HETATM   26  C   UNL     1      -8.449   3.372  64.835  1.00  0.00    -0.101 C  
BRANCH  26  27
HETATM   27  C   UNL     1      -9.106   3.773  63.516  1.00  0.00    -0.109 C  
HETATM   28  C   UNL     1     -10.478   3.135  63.377  1.00  0.00    -0.224 C  
ENDBRANCH  26  27
ENDBRANCH  25  26
ENDBRANCH  24  25
ENDBRANCH  21  24
ENDBRANCH  20  21
ENDBRANCH  16  19
ENDBRANCH   9  10
ENDBRANCH   2   9
TORSDOF 11
ENDMDL
MODEL      240
REMARK 921   NORMALIZED FREE ENERGY PREDICTED BY IDOCK:   -3.54 KCAL/MOL
REMARK 922        TOTAL FREE ENERGY PREDICTED BY IDOCK:   -8.22 KCAL/MOL
REMARK 923 INTER-LIGAND FREE ENERGY PREDICTED BY IDOCK:   -6.24 KCAL/MOL
REMARK 924 INTRA-LIGAND FREE ENERGY PREDICTED BY IDOCK:   -1.98 KCAL/MOL
REMARK 927      BINDING AFFINITY PREDICTED BY RF-SCORE:    0.00 PKD
ROOT
HETATM    1  C   UNL     1     -10.576  12.174  63.495  1.00  0.00    -0.501 C  
HETATM    2  C   UNL     1      -9.646  11.208  63.450  1.00  0.00    -0.355 C  
ENDROOT
BRANCH   1   3
HETATM    3  C   UNL     1     -11.905  12.105  64.194  1.00  0.00    -0.490 C  
BRANCH   3   4
HETATM    4  C   UNL     1     -11.763  12.330  65.701  1.00  0.00    -0.440 C  
BRANCH   4   5
HETATM    5  C   UNL     1     -12.078  13.771  66.102  1.00  0.00    -0.477 C  
HETATM    6  O   UNL     1     -11.138  15.767  66.987  1.00  0.00    -0.270 OA 
HETATM    7  C   UNL     1     -10.865  14.486  66.644  1.00  0.00    -0.311 C  
HETATM    8  O   UNL     1      -9.751  14.001  66.762  1.00  0.00    -0.259 OA 
ENDBRANCH   4   5
ENDBRANCH   3   4
ENDBRANCH   1   3
BRANCH   2   9
HETATM    9  C   UNL     1      -9.765   9.828  64.038  1.00  0.00     0.159 C  
BRANCH   9  10
HETATM   10  C   UNL     1      -8.535   9.315  64.805  1.00  0.00    -0.189 C  
HETATM   11  H   UNL     1      -5.366  11.553  64.533  1.00  0.00     0.000 HD 
HETATM   12  C   UNL     1      -7.618   8.479  63.898  1.00  0.00    -0.129 C  
HETATM   13  O   UNL     1      -5.459  10.664  64.211  1.00  0.00    -0.151 OA 
HETATM   14  O   UNL     1      -7.390   9.122  62.645  1.00  0.00    -0.099 OA 
HETATM   15  C   UNL     1      -6.304   8.441  64.660  1.00  0.00    -0.065 C  
HETATM   16  C   UNL     1      -7.593  10.419  65.361  1.00  0.00    -0.131 C  
HETATM   17  H   UNL     1      -6.823   8.605  62.085  1.00  0.00     0.000 HD 
HETATM   18  C   UNL     1      -6.154   9.871  65.178  1.00  0.00    -0.097 C  
BRANCH  16  19
HETATM   19  C   UNL     1      -7.891  10.807  66.791  1.00  0.00    -0.135 C  
HETATM   20  C   UNL     1      -9.112  10.809  67.355  1.00  0.00    -0.148 C  
BRANCH  20  21
HETATM   21  C   UNL     1      -9.436  11.259  68.754  1.00  0.00    -0.139 C  
HETATM   22  O   UNL     1      -8.866  12.538  69.005  1.00  0.00    -0.342 OA 
HETATM   23  H   UNL     1      -9.071  12.822  69.887  1.00  0.00     0.000 HD 
BRANCH  21  24
HETATM   24  C   UNL     1     -10.949  11.350  68.984  1.00  0.00    -0.288 C  
BRANCH  24  25
HETATM   25  C   UNL     1     -11.501  10.407  70.059  1.00  0.00    -0.382 C  
BRANCH  25  26
HETATM   26  C   UNL     1     -10.411   9.596  70.757  1.00  0.00    -0.356 C  
BRANCH  26  27
HETATM   27  C   UNL     1     -10.962   8.296  71.338  1.00  0.00    -0.301 C  
HETATM   28  C   UNL     1     -12.475   8.359  71.469  1.00  0.00    -0.342 C  
ENDBRANCH  26  27
ENDBRANCH  25  26
ENDBRANCH  24  25
ENDBRANCH  21  24
ENDBRANCH  20  21
ENDBRANCH  16  19
ENDBRANCH   9  10
ENDBRANCH   2   9
TORSDOF 11
ENDMDL
MODEL      241
REMARK 921   NORMALIZED FREE ENERGY PREDICTED BY IDOCK:   -3.54 KCAL/MOL
REMARK 922        TOTAL FREE ENERGY PREDICTED BY IDOCK:   -8.21 KCAL/MOL
REMARK 923 INTER-LIGAND FREE ENERGY PREDICTED BY IDOCK:   -5.81 KCAL/MOL
REMARK 924 INTRA-LIGAND FREE ENERGY PREDICTED BY IDOCK:   -2.40 KCAL/MOL
REMARK 927      BINDING AFFINITY PREDICTED BY RF-SCORE:    0.00 PKD
ROOT
HETATM    1  C   UNL     1      -8.837   4.948  71.354  1.00  0.00    -0.153 C  
HETATM    2  C   UNL     1     -10.122   4.963  70.970  1.00  0.00    -0.288 C  
ENDROOT
BRANCH   1   3
HETATM    3  C   UNL     1      -8.264   5.583  72.591  1.00  0.00    -0.113 C  
BRANCH   3   4
HETATM    4  C   UNL     1      -7.877   7.043  72.348  1.00  0.00    -0.094 C  
BRANCH   4   5
HETATM    5  C   UNL     1      -7.012   7.211  71.099  1.00  0.00    -0.061 C  
HETATM    6  O   UNL     1      -6.206   8.795  69.520  1.00  0.00    -0.039 OA 
HETATM    7  C   UNL     1      -6.981   8.640  70.619  1.00  0.00    -0.047 C  
HETATM    8  O   UNL     1      -7.566   9.576  71.143  1.00  0.00    -0.328 OA 
ENDBRANCH   4   5
ENDBRANCH   3   4
ENDBRANCH   1   3
BRANCH   2   9
HETATM    9  C   UNL     1     -11.252   5.672  71.667  1.00  0.00    -0.204 C  
BRANCH   9  10
HETATM   10  C   UNL     1     -11.906   6.824  70.888  1.00  0.00    -0.438 C  
HETATM   11  H   UNL     1     -10.043  10.231  71.104  1.00  0.00     0.000 HD 
HETATM   12  C   UNL     1     -12.836   7.652  71.789  1.00  0.00    -0.330 C  
HETATM   13  O   UNL     1     -10.914  10.042  71.433  1.00  0.00    -0.203 OA 
HETATM   14  O   UNL     1     -12.217   7.969  73.034  1.00  0.00    -0.659 OA 
HETATM   15  C   UNL     1     -13.028   8.943  71.011  1.00  0.00    -0.043 C  
HETATM   16  C   UNL     1     -10.920   7.878  70.312  1.00  0.00    -0.249 C  
HETATM   17  H   UNL     1     -12.792   8.480  73.591  1.00  0.00     0.000 HD 
HETATM   18  C   UNL     1     -11.627   9.248  70.481  1.00  0.00    -0.217 C  
BRANCH  16  19
HETATM   19  C   UNL     1     -10.509   7.608  68.884  1.00  0.00    -0.211 C  
HETATM   20  C   UNL     1      -9.505   8.226  68.235  1.00  0.00    -0.146 C  
BRANCH  20  21
HETATM   21  C   UNL     1      -9.127   8.019  66.794  1.00  0.00    -0.155 C  
HETATM   22  O   UNL     1     -10.175   7.352  66.100  1.00  0.00    -0.430 OA 
HETATM   23  H   UNL     1      -9.936   7.221  65.190  1.00  0.00     0.000 HD 
BRANCH  21  24
HETATM   24  C   UNL     1      -8.848   9.349  66.084  1.00  0.00    -0.178 C  
BRANCH  24  25
HETATM   25  C   UNL     1     -10.072  10.011  65.440  1.00  0.00    -0.317 C  
BRANCH  25  26
HETATM   26  C   UNL     1     -10.381  11.388  66.025  1.00  0.00    -0.297 C  
BRANCH  26  27
HETATM   27  C   UNL     1     -11.169  11.280  67.329  1.00  0.00    -0.364 C  
HETATM   28  C   UNL     1     -10.545  12.144  68.412  1.00  0.00    -0.243 C  
ENDBRANCH  26  27
ENDBRANCH  25  26
ENDBRANCH  24  25
ENDBRANCH  21  24
ENDBRANCH  20  21
ENDBRANCH  16  19
ENDBRANCH   9  10
ENDBRANCH   2   9
TORSDOF 11
ENDMDL
MODEL      242
REMARK 921   NORMALIZED FREE ENERGY PREDICTED BY IDOCK:   -3.54 KCAL/MOL
REMARK 922        TOTAL FREE ENERGY PREDICTED BY IDOCK:   -8.20 KCAL/MOL
REMARK 923 INTER-LIGAND FREE ENERGY PREDICTED BY IDOCK:   -7.02 KCAL/MOL
REMARK 924 INTRA-LIGAND FREE ENERGY PREDICTED BY IDOCK:   -1.19 KCAL/MOL
REMARK 927      BINDING AFFINITY PREDICTED BY RF-SCORE:    0.00 PKD
ROOT
HETATM    1  C   UNL     1      -8.436   7.734  71.776  1.00  0.00    -0.134 C  
HETATM    2  C   UNL     1      -9.439   8.366  72.404  1.00  0.00    -0.365 C  
ENDROOT
BRANCH   1   3
HETATM    3  C   UNL     1      -8.537   6.458  70.987  1.00  0.00    -0.131 C  
BRANCH   3   4
HETATM    4  C   UNL     1      -9.606   6.551  69.897  1.00  0.00    -0.163 C  
BRANCH   4   5
HETATM    5  C   UNL     1      -9.120   7.333  68.676  1.00  0.00    -0.133 C  
HETATM    6  O   UNL     1      -7.973   7.141  66.603  1.00  0.00    -0.107 OA 
HETATM    7  C   UNL     1      -8.394   6.453  67.690  1.00  0.00    -0.117 C  
HETATM    8  O   UNL     1      -8.200   5.254  67.821  1.00  0.00    -0.099 OA 
ENDBRANCH   4   5
ENDBRANCH   3   4
ENDBRANCH   1   3
BRANCH   2   9
HETATM    9  C   UNL     1     -10.865   7.896  72.503  1.00  0.00    -0.403 C  
BRANCH   9  10
HETATM   10  C   UNL     1     -11.846   8.505  71.488  1.00  0.00    -0.353 C  
HETATM   11  H   UNL     1     -12.653  12.272  72.022  1.00  0.00     0.000 HD 
HETATM   12  C   UNL     1     -13.291   8.461  72.011  1.00  0.00    -0.343 C  
HETATM   13  O   UNL     1     -13.266  11.548  72.087  1.00  0.00    -0.505 OA 
HETATM   14  O   UNL     1     -13.376   8.917  73.360  1.00  0.00    -0.827 OA 
HETATM   15  C   UNL     1     -14.019   9.459  71.125  1.00  0.00    -0.026 C  
HETATM   16  C   UNL     1     -11.618  10.007  71.164  1.00  0.00    -0.460 C  
HETATM   17  H   UNL     1     -14.269   8.889  73.683  1.00  0.00     0.000 HD 
HETATM   18  C   UNL     1     -13.034  10.623  71.021  1.00  0.00    -0.363 C  
BRANCH  16  19
HETATM   19  C   UNL     1     -10.755  10.241  69.947  1.00  0.00    -0.344 C  
HETATM   20  C   UNL     1     -10.928  11.230  69.052  1.00  0.00    -0.288 C  
BRANCH  20  21
HETATM   21  C   UNL     1     -10.122  11.437  67.798  1.00  0.00    -0.181 C  
HETATM   22  O   UNL     1     -10.728  10.757  66.705  1.00  0.00    -0.255 OA 
HETATM   23  H   UNL     1     -10.219  10.887  65.914  1.00  0.00     0.000 HD 
BRANCH  21  24
HETATM   24  C   UNL     1     -10.003  12.922  67.438  1.00  0.00    -0.217 C  
BRANCH  24  25
HETATM   25  C   UNL     1     -10.741  13.880  68.380  1.00  0.00    -0.267 C  
BRANCH  25  26
HETATM   26  C   UNL     1     -11.266  15.127  67.670  1.00  0.00    -0.329 C  
BRANCH  26  27
HETATM   27  C   UNL     1     -10.238  15.691  66.692  1.00  0.00    -0.283 C  
HETATM   28  C   UNL     1     -10.284  17.210  66.674  1.00  0.00    -0.319 C  
ENDBRANCH  26  27
ENDBRANCH  25  26
ENDBRANCH  24  25
ENDBRANCH  21  24
ENDBRANCH  20  21
ENDBRANCH  16  19
ENDBRANCH   9  10
ENDBRANCH   2   9
TORSDOF 11
ENDMDL
MODEL      243
REMARK 921   NORMALIZED FREE ENERGY PREDICTED BY IDOCK:   -3.53 KCAL/MOL
REMARK 922        TOTAL FREE ENERGY PREDICTED BY IDOCK:   -8.20 KCAL/MOL
REMARK 923 INTER-LIGAND FREE ENERGY PREDICTED BY IDOCK:   -6.74 KCAL/MOL
REMARK 924 INTRA-LIGAND FREE ENERGY PREDICTED BY IDOCK:   -1.46 KCAL/MOL
REMARK 927      BINDING AFFINITY PREDICTED BY RF-SCORE:    0.00 PKD
ROOT
HETATM    1  C   UNL     1     -11.225  11.001  67.842  1.00  0.00    -0.375 C  
HETATM    2  C   UNL     1     -10.866   9.937  68.576  1.00  0.00    -0.257 C  
ENDROOT
BRANCH   1   3
HETATM    3  C   UNL     1     -10.757  12.417  68.030  1.00  0.00    -0.247 C  
BRANCH   3   4
HETATM    4  C   UNL     1     -11.929  13.375  68.249  1.00  0.00    -0.352 C  
BRANCH   4   5
HETATM    5  C   UNL     1     -11.679  14.337  69.411  1.00  0.00    -0.363 C  
HETATM    6  O   UNL     1     -11.934  14.621  71.758  1.00  0.00    -0.345 OA 
HETATM    7  C   UNL     1     -12.165  13.777  70.725  1.00  0.00    -0.363 C  
HETATM    8  O   UNL     1     -12.699  12.689  70.877  1.00  0.00    -0.287 OA 
ENDBRANCH   4   5
ENDBRANCH   3   4
ENDBRANCH   1   3
BRANCH   2   9
HETATM    9  C   UNL     1      -9.966   9.949  69.782  1.00  0.00    -0.275 C  
BRANCH   9  10
HETATM   10  C   UNL     1     -10.160   8.794  70.778  1.00  0.00    -0.261 C  
HETATM   11  H   UNL     1     -13.316   6.603  70.176  1.00  0.00     0.000 HD 
HETATM   12  C   UNL     1     -11.075   9.208  71.942  1.00  0.00    -0.315 C  
HETATM   13  O   UNL     1     -13.143   7.148  70.935  1.00  0.00    -0.240 OA 
HETATM   14  O   UNL     1     -12.245   9.878  71.479  1.00  0.00    -0.369 OA 
HETATM   15  C   UNL     1     -11.497   7.880  72.550  1.00  0.00    -0.455 C  
HETATM   16  C   UNL     1     -10.851   7.529  70.200  1.00  0.00    -0.259 C  
HETATM   17  H   UNL     1     -12.810  10.134  72.198  1.00  0.00     0.000 HD 
HETATM   18  C   UNL     1     -11.776   7.005  71.329  1.00  0.00    -0.317 C  
BRANCH  16  19
HETATM   19  C   UNL     1      -9.882   6.480  69.706  1.00  0.00    -0.182 C  
HETATM   20  C   UNL     1     -10.211   5.225  69.351  1.00  0.00    -0.321 C  
BRANCH  20  21
HETATM   21  C   UNL     1      -9.251   4.148  68.924  1.00  0.00    -0.147 C  
HETATM   22  O   UNL     1      -9.262   3.079  69.863  1.00  0.00    -0.126 OA 
HETATM   23  H   UNL     1      -8.656   2.399  69.594  1.00  0.00     0.000 HD 
BRANCH  21  24
HETATM   24  C   UNL     1      -9.609   3.584  67.545  1.00  0.00    -0.177 C  
BRANCH  24  25
HETATM   25  C   UNL     1      -9.531   4.589  66.391  1.00  0.00    -0.177 C  
BRANCH  25  26
HETATM   26  C   UNL     1     -10.625   4.382  65.345  1.00  0.00    -0.192 C  
BRANCH  26  27
HETATM   27  C   UNL     1     -10.043   3.950  64.000  1.00  0.00    -0.200 C  
HETATM   28  C   UNL     1      -9.870   2.441  63.943  1.00  0.00    -0.140 C  
ENDBRANCH  26  27
ENDBRANCH  25  26
ENDBRANCH  24  25
ENDBRANCH  21  24
ENDBRANCH  20  21
ENDBRANCH  16  19
ENDBRANCH   9  10
ENDBRANCH   2   9
TORSDOF 11
ENDMDL
MODEL      244
REMARK 921   NORMALIZED FREE ENERGY PREDICTED BY IDOCK:   -3.52 KCAL/MOL
REMARK 922        TOTAL FREE ENERGY PREDICTED BY IDOCK:   -8.18 KCAL/MOL
REMARK 923 INTER-LIGAND FREE ENERGY PREDICTED BY IDOCK:   -6.92 KCAL/MOL
REMARK 924 INTRA-LIGAND FREE ENERGY PREDICTED BY IDOCK:   -1.27 KCAL/MOL
REMARK 927      BINDING AFFINITY PREDICTED BY RF-SCORE:    0.00 PKD
ROOT
HETATM    1  C   UNL     1     -10.750   6.818  68.699  1.00  0.00    -0.279 C  
HETATM    2  C   UNL     1     -10.507   7.876  67.911  1.00  0.00    -0.261 C  
ENDROOT
BRANCH   1   3
HETATM    3  C   UNL     1     -10.376   5.389  68.420  1.00  0.00    -0.216 C  
BRANCH   3   4
HETATM    4  C   UNL     1      -9.505   4.804  69.533  1.00  0.00    -0.227 C  
BRANCH   4   5
HETATM    5  C   UNL     1      -8.392   5.763  69.958  1.00  0.00    -0.123 C  
HETATM    6  O   UNL     1      -6.089   6.279  69.675  1.00  0.00    -0.024 OA 
HETATM    7  C   UNL     1      -7.073   5.424  69.310  1.00  0.00    -0.060 C  
HETATM    8  O   UNL     1      -6.882   4.501  68.533  1.00  0.00    -0.049 OA 
ENDBRANCH   4   5
ENDBRANCH   3   4
ENDBRANCH   1   3
BRANCH   2   9
HETATM    9  C   UNL     1      -9.863   7.845  66.551  1.00  0.00    -0.272 C  
BRANCH   9  10
HETATM   10  C   UNL     1      -9.181   9.146  66.099  1.00  0.00    -0.259 C  
HETATM   11  H   UNL     1     -10.732  10.818  62.949  1.00  0.00     0.000 HD 
HETATM   12  C   UNL     1      -8.115   8.876  65.024  1.00  0.00    -0.137 C  
HETATM   13  O   UNL     1      -9.856  10.458  63.023  1.00  0.00    -0.293 OA 
HETATM   14  O   UNL     1      -8.605   8.003  64.007  1.00  0.00    -0.388 OA 
HETATM   15  C   UNL     1      -7.881  10.244  64.405  1.00  0.00    -0.117 C  
HETATM   16  C   UNL     1     -10.119  10.189  65.431  1.00  0.00    -0.342 C  
HETATM   17  H   UNL     1      -7.946   7.836  63.343  1.00  0.00     0.000 HD 
HETATM   18  C   UNL     1      -9.290  10.824  64.285  1.00  0.00    -0.245 C  
BRANCH  16  19
HETATM   19  C   UNL     1     -10.665  11.218  66.394  1.00  0.00    -0.320 C  
HETATM   20  C   UNL     1     -11.135  12.430  66.049  1.00  0.00    -0.344 C  
BRANCH  20  21
HETATM   21  C   UNL     1     -11.617  13.492  66.999  1.00  0.00    -0.359 C  
HETATM   22  O   UNL     1     -12.752  14.158  66.458  1.00  0.00    -0.528 OA 
HETATM   23  H   UNL     1     -13.057  14.829  67.058  1.00  0.00     0.000 HD 
BRANCH  21  24
HETATM   24  C   UNL     1     -12.006  12.902  68.360  1.00  0.00    -0.289 C  
BRANCH  24  25
HETATM   25  C   UNL     1     -12.091  13.915  69.507  1.00  0.00    -0.393 C  
BRANCH  25  26
HETATM   26  C   UNL     1     -12.366  13.260  70.860  1.00  0.00    -0.413 C  
BRANCH  26  27
HETATM   27  C   UNL     1     -12.180  11.745  70.799  1.00  0.00    -0.424 C  
HETATM   28  C   UNL     1     -13.136  11.042  71.748  1.00  0.00    -0.554 C  
ENDBRANCH  26  27
ENDBRANCH  25  26
ENDBRANCH  24  25
ENDBRANCH  21  24
ENDBRANCH  20  21
ENDBRANCH  16  19
ENDBRANCH   9  10
ENDBRANCH   2   9
TORSDOF 11
ENDMDL
MODEL      245
REMARK 921   NORMALIZED FREE ENERGY PREDICTED BY IDOCK:   -3.52 KCAL/MOL
REMARK 922        TOTAL FREE ENERGY PREDICTED BY IDOCK:   -8.17 KCAL/MOL
REMARK 923 INTER-LIGAND FREE ENERGY PREDICTED BY IDOCK:   -6.45 KCAL/MOL
REMARK 924 INTRA-LIGAND FREE ENERGY PREDICTED BY IDOCK:   -1.73 KCAL/MOL
REMARK 927      BINDING AFFINITY PREDICTED BY RF-SCORE:    0.00 PKD
ROOT
HETATM    1  C   UNL     1     -11.063  11.186  67.280  1.00  0.00    -0.366 C  
HETATM    2  C   UNL     1     -11.169  10.541  68.452  1.00  0.00    -0.339 C  
ENDROOT
BRANCH   1   3
HETATM    3  C   UNL     1     -11.363  12.637  67.028  1.00  0.00    -0.377 C  
BRANCH   3   4
HETATM    4  C   UNL     1     -10.093  13.432  66.724  1.00  0.00    -0.260 C  
BRANCH   4   5
HETATM    5  C   UNL     1      -9.903  14.607  67.684  1.00  0.00    -0.218 C  
HETATM    6  O   UNL     1      -8.481  15.503  69.365  1.00  0.00    -0.247 OA 
HETATM    7  C   UNL     1      -8.658  14.458  68.523  1.00  0.00    -0.175 C  
HETATM    8  O   UNL     1      -7.875  13.523  68.467  1.00  0.00    -0.136 OA 
ENDBRANCH   4   5
ENDBRANCH   3   4
ENDBRANCH   1   3
BRANCH   2   9
HETATM    9  C   UNL     1     -11.669  11.121  69.747  1.00  0.00    -0.419 C  
BRANCH   9  10
HETATM   10  C   UNL     1     -11.546  10.214  70.983  1.00  0.00    -0.462 C  
HETATM   11  H   UNL     1     -12.145   6.429  70.321  1.00  0.00     0.000 HD 
HETATM   12  C   UNL     1     -12.915   9.977  71.641  1.00  0.00    -0.449 C  
HETATM   13  O   UNL     1     -12.675   6.997  70.867  1.00  0.00    -0.334 OA 
HETATM   14  O   UNL     1     -13.911   9.642  70.677  1.00  0.00    -0.537 OA 
HETATM   15  C   UNL     1     -12.679   8.762  72.523  1.00  0.00    -0.378 C  
HETATM   16  C   UNL     1     -11.021   8.779  70.702  1.00  0.00    -0.278 C  
HETATM   17  H   UNL     1     -14.757   9.496  71.084  1.00  0.00     0.000 HD 
HETATM   18  C   UNL     1     -11.827   7.847  71.644  1.00  0.00    -0.288 C  
BRANCH  16  19
HETATM   19  C   UNL     1      -9.527   8.634  70.877  1.00  0.00    -0.242 C  
HETATM   20  C   UNL     1      -8.775   7.655  70.344  1.00  0.00    -0.143 C  
BRANCH  20  21
HETATM   21  C   UNL     1      -7.300   7.456  70.565  1.00  0.00    -0.076 C  
HETATM   22  O   UNL     1      -7.079   6.416  71.510  1.00  0.00    -0.074 OA 
HETATM   23  H   UNL     1      -6.149   6.290  71.650  1.00  0.00     0.000 HD 
BRANCH  21  24
HETATM   24  C   UNL     1      -6.576   7.089  69.265  1.00  0.00    -0.045 C  
BRANCH  24  25
HETATM   25  C   UNL     1      -7.476   6.974  68.029  1.00  0.00    -0.099 C  
BRANCH  25  26
HETATM   26  C   UNL     1      -7.126   7.988  66.941  1.00  0.00    -0.081 C  
BRANCH  26  27
HETATM   27  C   UNL     1      -8.273   8.965  66.693  1.00  0.00    -0.111 C  
HETATM   28  C   UNL     1      -9.594   8.227  66.553  1.00  0.00    -0.312 C  
ENDBRANCH  26  27
ENDBRANCH  25  26
ENDBRANCH  24  25
ENDBRANCH  21  24
ENDBRANCH  20  21
ENDBRANCH  16  19
ENDBRANCH   9  10
ENDBRANCH   2   9
TORSDOF 11
ENDMDL
MODEL      246
REMARK 921   NORMALIZED FREE ENERGY PREDICTED BY IDOCK:   -3.51 KCAL/MOL
REMARK 922        TOTAL FREE ENERGY PREDICTED BY IDOCK:   -8.17 KCAL/MOL
REMARK 923 INTER-LIGAND FREE ENERGY PREDICTED BY IDOCK:   -6.65 KCAL/MOL
REMARK 924 INTRA-LIGAND FREE ENERGY PREDICTED BY IDOCK:   -1.52 KCAL/MOL
REMARK 927      BINDING AFFINITY PREDICTED BY RF-SCORE:    0.00 PKD
ROOT
HETATM    1  C   UNL     1     -10.224  11.998  68.274  1.00  0.00    -0.207 C  
HETATM    2  C   UNL     1     -10.119  10.667  68.143  1.00  0.00    -0.179 C  
ENDROOT
BRANCH   1   3
HETATM    3  C   UNL     1     -11.321  12.743  68.983  1.00  0.00    -0.346 C  
BRANCH   3   4
HETATM    4  C   UNL     1     -12.033  13.723  68.049  1.00  0.00    -0.390 C  
BRANCH   4   5
HETATM    5  C   UNL     1     -11.227  14.001  66.780  1.00  0.00    -0.323 C  
HETATM    6  O   UNL     1     -11.135  13.605  64.438  1.00  0.00    -0.375 OA 
HETATM    7  C   UNL     1     -11.840  13.349  65.565  1.00  0.00    -0.363 C  
HETATM    8  O   UNL     1     -12.857  12.674  65.561  1.00  0.00    -0.513 OA 
ENDBRANCH   4   5
ENDBRANCH   3   4
ENDBRANCH   1   3
BRANCH   2   9
HETATM    9  C   UNL     1     -11.109   9.642  68.626  1.00  0.00    -0.085 C  
BRANCH   9  10
HETATM   10  C   UNL     1     -10.791   8.985  69.979  1.00  0.00    -0.247 C  
HETATM   11  H   UNL     1     -13.274   6.204  71.089  1.00  0.00     0.000 HD 
HETATM   12  C   UNL     1     -11.557   9.665  71.125  1.00  0.00    -0.381 C  
HETATM   13  O   UNL     1     -13.123   7.034  71.527  1.00  0.00    -0.380 OA 
HETATM   14  O   UNL     1     -12.932   9.860  70.796  1.00  0.00    -0.514 OA 
HETATM   15  C   UNL     1     -11.478   8.652  72.255  1.00  0.00    -0.423 C  
HETATM   16  C   UNL     1     -11.199   7.490  70.102  1.00  0.00    -0.213 C  
HETATM   17  H   UNL     1     -13.405  10.281  71.505  1.00  0.00     0.000 HD 
HETATM   18  C   UNL     1     -11.721   7.317  71.552  1.00  0.00    -0.289 C  
BRANCH  16  19
HETATM   19  C   UNL     1     -10.084   6.528  69.765  1.00  0.00    -0.207 C  
HETATM   20  C   UNL     1     -10.066   5.220  70.082  1.00  0.00    -0.333 C  
BRANCH  20  21
HETATM   21  C   UNL     1      -8.936   4.264  69.816  1.00  0.00    -0.093 C  
HETATM   22  O   UNL     1      -7.889   4.922  69.113  1.00  0.00    -0.071 OA 
HETATM   23  H   UNL     1      -7.175   4.319  68.945  1.00  0.00     0.000 HD 
BRANCH  21  24
HETATM   24  C   UNL     1      -8.359   3.693  71.117  1.00  0.00    -0.086 C  
BRANCH  24  25
HETATM   25  C   UNL     1      -7.607   4.702  71.993  1.00  0.00    -0.089 C  
BRANCH  25  26
HETATM   26  C   UNL     1      -8.099   4.716  73.440  1.00  0.00    -0.099 C  
BRANCH  26  27
HETATM   27  C   UNL     1      -9.529   5.242  73.542  1.00  0.00    -0.135 C  
HETATM   28  C   UNL     1     -10.424   4.242  74.255  1.00  0.00    -0.307 C  
ENDBRANCH  26  27
ENDBRANCH  25  26
ENDBRANCH  24  25
ENDBRANCH  21  24
ENDBRANCH  20  21
ENDBRANCH  16  19
ENDBRANCH   9  10
ENDBRANCH   2   9
TORSDOF 11
ENDMDL
MODEL      247
REMARK 921   NORMALIZED FREE ENERGY PREDICTED BY IDOCK:   -3.51 KCAL/MOL
REMARK 922        TOTAL FREE ENERGY PREDICTED BY IDOCK:   -8.16 KCAL/MOL
REMARK 923 INTER-LIGAND FREE ENERGY PREDICTED BY IDOCK:   -6.26 KCAL/MOL
REMARK 924 INTRA-LIGAND FREE ENERGY PREDICTED BY IDOCK:   -1.91 KCAL/MOL
REMARK 927      BINDING AFFINITY PREDICTED BY RF-SCORE:    0.00 PKD
ROOT
HETATM    1  C   UNL     1     -10.293  12.336  68.157  1.00  0.00    -0.221 C  
HETATM    2  C   UNL     1     -10.012  11.026  68.221  1.00  0.00    -0.190 C  
ENDROOT
BRANCH   1   3
HETATM    3  C   UNL     1     -11.614  12.984  68.464  1.00  0.00    -0.363 C  
BRANCH   3   4
HETATM    4  C   UNL     1     -12.233  13.623  67.219  1.00  0.00    -0.317 C  
BRANCH   4   5
HETATM    5  C   UNL     1     -11.234  13.731  66.067  1.00  0.00    -0.307 C  
HETATM    6  O   UNL     1     -10.872  13.191  63.781  1.00  0.00    -0.330 OA 
HETATM    7  C   UNL     1     -11.750  13.085  64.806  1.00  0.00    -0.345 C  
HETATM    8  O   UNL     1     -12.833  12.533  64.685  1.00  0.00    -0.716 OA 
ENDBRANCH   4   5
ENDBRANCH   3   4
ENDBRANCH   1   3
BRANCH   2   9
HETATM    9  C   UNL     1     -10.979   9.922  68.556  1.00  0.00    -0.226 C  
BRANCH   9  10
HETATM   10  C   UNL     1     -10.956   9.425  70.010  1.00  0.00    -0.267 C  
HETATM   11  H   UNL     1     -13.556   6.658  70.853  1.00  0.00     0.000 HD 
HETATM   12  C   UNL     1     -11.975  10.183  70.877  1.00  0.00    -0.365 C  
HETATM   13  O   UNL     1     -13.527   7.535  71.217  1.00  0.00    -0.331 OA 
HETATM   14  O   UNL     1     -13.245  10.276  70.235  1.00  0.00    -0.538 OA 
HETATM   15  C   UNL     1     -12.126   9.298  72.103  1.00  0.00    -0.353 C  
HETATM   16  C   UNL     1     -11.345   7.934  70.207  1.00  0.00    -0.158 C  
HETATM   17  H   UNL     1     -13.874  10.745  70.770  1.00  0.00     0.000 HD 
HETATM   18  C   UNL     1     -12.173   7.887  71.517  1.00  0.00    -0.311 C  
BRANCH  16  19
HETATM   19  C   UNL     1     -10.160   6.997  70.233  1.00  0.00    -0.198 C  
HETATM   20  C   UNL     1      -9.088   7.123  71.036  1.00  0.00    -0.151 C  
BRANCH  20  21
HETATM   21  C   UNL     1      -7.870   6.241  71.027  1.00  0.00    -0.111 C  
HETATM   22  O   UNL     1      -8.124   5.058  70.277  1.00  0.00    -0.082 OA 
HETATM   23  H   UNL     1      -7.355   4.500  70.271  1.00  0.00     0.000 HD 
BRANCH  21  24
HETATM   24  C   UNL     1      -6.659   6.951  70.411  1.00  0.00    -0.052 C  
BRANCH  24  25
HETATM   25  C   UNL     1      -6.808   7.326  68.932  1.00  0.00    -0.072 C  
BRANCH  25  26
HETATM   26  C   UNL     1      -6.311   8.738  68.623  1.00  0.00    -0.053 C  
BRANCH  26  27
HETATM   27  C   UNL     1      -7.111   9.794  69.382  1.00  0.00    -0.066 C  
HETATM   28  C   UNL     1      -6.188  10.718  70.159  1.00  0.00    -0.136 C  
ENDBRANCH  26  27
ENDBRANCH  25  26
ENDBRANCH  24  25
ENDBRANCH  21  24
ENDBRANCH  20  21
ENDBRANCH  16  19
ENDBRANCH   9  10
ENDBRANCH   2   9
TORSDOF 11
ENDMDL
MODEL      248
REMARK 921   NORMALIZED FREE ENERGY PREDICTED BY IDOCK:   -3.50 KCAL/MOL
REMARK 922        TOTAL FREE ENERGY PREDICTED BY IDOCK:   -8.15 KCAL/MOL
REMARK 923 INTER-LIGAND FREE ENERGY PREDICTED BY IDOCK:   -6.70 KCAL/MOL
REMARK 924 INTRA-LIGAND FREE ENERGY PREDICTED BY IDOCK:   -1.45 KCAL/MOL
REMARK 927      BINDING AFFINITY PREDICTED BY RF-SCORE:    0.00 PKD
ROOT
HETATM    1  C   UNL     1      -9.582  13.493  67.307  1.00  0.00    -0.235 C  
HETATM    2  C   UNL     1      -8.302  13.178  67.057  1.00  0.00    -0.094 C  
ENDROOT
BRANCH   1   3
HETATM    3  C   UNL     1     -10.640  12.574  67.852  1.00  0.00    -0.233 C  
BRANCH   3   4
HETATM    4  C   UNL     1     -11.903  12.592  66.989  1.00  0.00    -0.415 C  
BRANCH   4   5
HETATM    5  C   UNL     1     -11.989  13.845  66.118  1.00  0.00    -0.449 C  
HETATM    6  O   UNL     1     -12.680  14.666  63.996  1.00  0.00    -0.772 OA 
HETATM    7  C   UNL     1     -12.590  13.555  64.765  1.00  0.00    -0.301 C  
HETATM    8  O   UNL     1     -12.973  12.461  64.380  1.00  0.00    -0.721 OA 
ENDBRANCH   4   5
ENDBRANCH   3   4
ENDBRANCH   1   3
BRANCH   2   9
HETATM    9  C   UNL     1      -7.671  11.821  67.214  1.00  0.00    -0.158 C  
BRANCH   9  10
HETATM   10  C   UNL     1      -8.484  10.634  66.671  1.00  0.00    -0.137 C  
HETATM   11  H   UNL     1      -6.445   7.380  66.053  1.00  0.00     0.000 HD 
HETATM   12  C   UNL     1      -8.423  10.570  65.136  1.00  0.00    -0.166 C  
HETATM   13  O   UNL     1      -6.886   7.904  65.394  1.00  0.00    -0.057 OA 
HETATM   14  O   UNL     1      -7.090  10.727  64.655  1.00  0.00    -0.353 OA 
HETATM   15  C   UNL     1      -8.878   9.154  64.822  1.00  0.00    -0.200 C  
HETATM   16  C   UNL     1      -7.986   9.231  67.116  1.00  0.00    -0.106 C  
HETATM   17  H   UNL     1      -7.053  10.688  63.707  1.00  0.00     0.000 HD 
HETATM   18  C   UNL     1      -8.168   8.311  65.881  1.00  0.00    -0.119 C  
BRANCH  16  19
HETATM   19  C   UNL     1      -8.687   8.701  68.346  1.00  0.00    -0.142 C  
HETATM   20  C   UNL     1     -10.016   8.725  68.552  1.00  0.00    -0.200 C  
BRANCH  20  21
HETATM   21  C   UNL     1     -10.724   8.266  69.797  1.00  0.00    -0.221 C  
HETATM   22  O   UNL     1     -11.900   9.039  70.009  1.00  0.00    -0.455 OA 
HETATM   23  H   UNL     1     -12.347   8.750  70.795  1.00  0.00     0.000 HD 
BRANCH  21  24
HETATM   24  C   UNL     1     -11.126   6.789  69.710  1.00  0.00    -0.368 C  
BRANCH  24  25
HETATM   25  C   UNL     1     -10.797   6.103  68.379  1.00  0.00    -0.382 C  
BRANCH  25  26
HETATM   26  C   UNL     1      -9.644   5.106  68.493  1.00  0.00    -0.190 C  
BRANCH  26  27
HETATM   27  C   UNL     1      -9.247   4.869  69.948  1.00  0.00    -0.178 C  
HETATM   28  C   UNL     1      -7.805   4.401  70.048  1.00  0.00    -0.053 C  
ENDBRANCH  26  27
ENDBRANCH  25  26
ENDBRANCH  24  25
ENDBRANCH  21  24
ENDBRANCH  20  21
ENDBRANCH  16  19
ENDBRANCH   9  10
ENDBRANCH   2   9
TORSDOF 11
ENDMDL
MODEL      249
REMARK 921   NORMALIZED FREE ENERGY PREDICTED BY IDOCK:   -3.50 KCAL/MOL
REMARK 922        TOTAL FREE ENERGY PREDICTED BY IDOCK:   -8.15 KCAL/MOL
REMARK 923 INTER-LIGAND FREE ENERGY PREDICTED BY IDOCK:   -6.50 KCAL/MOL
REMARK 924 INTRA-LIGAND FREE ENERGY PREDICTED BY IDOCK:   -1.65 KCAL/MOL
REMARK 927      BINDING AFFINITY PREDICTED BY RF-SCORE:    0.00 PKD
ROOT
HETATM    1  C   UNL     1     -12.007  13.010  67.027  1.00  0.00    -0.409 C  
HETATM    2  C   UNL     1     -11.883  12.385  65.847  1.00  0.00    -0.467 C  
ENDROOT
BRANCH   1   3
HETATM    3  C   UNL     1     -10.933  13.773  67.753  1.00  0.00    -0.272 C  
BRANCH   3   4
HETATM    4  C   UNL     1     -11.473  15.068  68.362  1.00  0.00    -0.340 C  
BRANCH   4   5
HETATM    5  C   UNL     1     -10.929  15.315  69.769  1.00  0.00    -0.295 C  
HETATM    6  O   UNL     1     -11.533  15.473  72.063  1.00  0.00    -0.423 OA 
HETATM    7  C   UNL     1     -12.015  15.267  70.815  1.00  0.00    -0.339 C  
HETATM    8  O   UNL     1     -13.198  15.058  70.596  1.00  0.00    -0.361 OA 
ENDBRANCH   4   5
ENDBRANCH   3   4
ENDBRANCH   1   3
BRANCH   2   9
HETATM    9  C   UNL     1     -10.625  12.263  65.030  1.00  0.00    -0.322 C  
BRANCH   9  10
HETATM   10  C   UNL     1     -10.213  10.835  64.637  1.00  0.00    -0.419 C  
HETATM   11  H   UNL     1      -6.408  10.078  64.915  1.00  0.00     0.000 HD 
HETATM   12  C   UNL     1      -9.783  10.762  63.163  1.00  0.00    -0.357 C  
HETATM   13  O   UNL     1      -6.926  10.081  64.119  1.00  0.00    -0.123 OA 
HETATM   14  O   UNL     1      -8.889  11.821  62.823  1.00  0.00    -0.647 OA 
HETATM   15  C   UNL     1      -9.019   9.451  63.081  1.00  0.00    -0.166 C  
HETATM   16  C   UNL     1      -8.989  10.264  65.405  1.00  0.00    -0.205 C  
HETATM   17  H   UNL     1      -8.623  11.776  61.912  1.00  0.00     0.000 HD 
HETATM   18  C   UNL     1      -8.185   9.446  64.361  1.00  0.00    -0.147 C  
BRANCH  16  19
HETATM   19  C   UNL     1      -9.362   9.450  66.622  1.00  0.00    -0.211 C  
HETATM   20  C   UNL     1      -9.124   9.807  67.896  1.00  0.00    -0.126 C  
BRANCH  20  21
HETATM   21  C   UNL     1      -9.425   8.978  69.115  1.00  0.00    -0.153 C  
HETATM   22  O   UNL     1     -10.812   8.667  69.169  1.00  0.00    -0.387 OA 
HETATM   23  H   UNL     1     -11.003   8.144  69.938  1.00  0.00     0.000 HD 
BRANCH  21  24
HETATM   24  C   UNL     1      -8.635   7.664  69.117  1.00  0.00    -0.139 C  
BRANCH  24  25
HETATM   25  C   UNL     1      -9.276   6.519  68.324  1.00  0.00    -0.116 C  
BRANCH  25  26
HETATM   26  C   UNL     1      -8.350   5.948  67.251  1.00  0.00    -0.105 C  
BRANCH  26  27
HETATM   27  C   UNL     1      -9.021   5.936  65.878  1.00  0.00    -0.149 C  
HETATM   28  C   UNL     1     -10.534   5.898  66.015  1.00  0.00     0.175 C  
ENDBRANCH  26  27
ENDBRANCH  25  26
ENDBRANCH  24  25
ENDBRANCH  21  24
ENDBRANCH  20  21
ENDBRANCH  16  19
ENDBRANCH   9  10
ENDBRANCH   2   9
TORSDOF 11
ENDMDL
MODEL      250
REMARK 921   NORMALIZED FREE ENERGY PREDICTED BY IDOCK:   -3.49 KCAL/MOL
REMARK 922        TOTAL FREE ENERGY PREDICTED BY IDOCK:   -8.13 KCAL/MOL
REMARK 923 INTER-LIGAND FREE ENERGY PREDICTED BY IDOCK:   -6.86 KCAL/MOL
REMARK 924 INTRA-LIGAND FREE ENERGY PREDICTED BY IDOCK:   -1.28 KCAL/MOL
REMARK 927      BINDING AFFINITY PREDICTED BY RF-SCORE:    0.00 PKD
ROOT
HETATM    1  C   UNL     1     -10.991   6.525  67.897  1.00  0.00    -0.382 C  
HETATM    2  C   UNL     1     -10.553   7.216  66.834  1.00  0.00    -0.371 C  
ENDROOT
BRANCH   1   3
HETATM    3  C   UNL     1     -10.211   5.512  68.689  1.00  0.00    -0.261 C  
BRANCH   3   4
HETATM    4  C   UNL     1     -10.597   5.535  70.169  1.00  0.00    -0.367 C  
BRANCH   4   5
HETATM    5  C   UNL     1     -11.571   6.667  70.495  1.00  0.00    -0.448 C  
HETATM    6  O   UNL     1     -13.034   7.523  72.162  1.00  0.00    -0.204 OA 
HETATM    7  C   UNL     1     -12.181   6.514  71.866  1.00  0.00    -0.324 C  
HETATM    8  O   UNL     1     -11.947   5.605  72.647  1.00  0.00    -0.252 OA 
ENDBRANCH   4   5
ENDBRANCH   3   4
ENDBRANCH   1   3
BRANCH   2   9
HETATM    9  C   UNL     1      -9.207   7.078  66.174  1.00  0.00    -0.119 C  
BRANCH   9  10
HETATM   10  C   UNL     1      -8.223   8.236  66.404  1.00  0.00    -0.107 C  
HETATM   11  H   UNL     1      -6.143   9.282  63.288  1.00  0.00     0.000 HD 
HETATM   12  C   UNL     1      -6.819   7.716  66.755  1.00  0.00    -0.067 C  
HETATM   13  O   UNL     1      -5.804   8.914  64.096  1.00  0.00    -0.068 OA 
HETATM   14  O   UNL     1      -6.410   6.672  65.873  1.00  0.00    -0.042 OA 
HETATM   15  C   UNL     1      -5.924   8.920  66.513  1.00  0.00    -0.056 C  
HETATM   16  C   UNL     1      -7.977   9.152  65.173  1.00  0.00    -0.117 C  
HETATM   17  H   UNL     1      -5.543   6.350  66.091  1.00  0.00     0.000 HD 
HETATM   18  C   UNL     1      -6.469   9.511  65.213  1.00  0.00    -0.078 C  
BRANCH  16  19
HETATM   19  C   UNL     1      -8.866  10.374  65.139  1.00  0.00    -0.207 C  
HETATM   20  C   UNL     1      -9.895  10.561  64.293  1.00  0.00    -0.402 C  
BRANCH  20  21
HETATM   21  C   UNL     1     -10.745  11.798  64.199  1.00  0.00    -0.357 C  
HETATM   22  O   UNL     1     -11.707  11.656  63.160  1.00  0.00    -0.822 OA 
HETATM   23  H   UNL     1     -12.244  12.437  63.100  1.00  0.00     0.000 HD 
BRANCH  21  24
HETATM   24  C   UNL     1     -11.487  12.078  65.510  1.00  0.00    -0.368 C  
BRANCH  24  25
HETATM   25  C   UNL     1     -11.620  13.560  65.879  1.00  0.00    -0.359 C  
BRANCH  25  26
HETATM   26  C   UNL     1     -11.877  13.782  67.369  1.00  0.00    -0.431 C  
BRANCH  26  27
HETATM   27  C   UNL     1     -11.853  12.468  68.145  1.00  0.00    -0.371 C  
HETATM   28  C   UNL     1     -12.074  12.710  69.629  1.00  0.00    -0.277 C  
ENDBRANCH  26  27
ENDBRANCH  25  26
ENDBRANCH  24  25
ENDBRANCH  21  24
ENDBRANCH  20  21
ENDBRANCH  16  19
ENDBRANCH   9  10
ENDBRANCH   2   9
TORSDOF 11
ENDMDL
MODEL      251
REMARK 921   NORMALIZED FREE ENERGY PREDICTED BY IDOCK:   -3.49 KCAL/MOL
REMARK 922        TOTAL FREE ENERGY PREDICTED BY IDOCK:   -8.12 KCAL/MOL
REMARK 923 INTER-LIGAND FREE ENERGY PREDICTED BY IDOCK:   -6.21 KCAL/MOL
REMARK 924 INTRA-LIGAND FREE ENERGY PREDICTED BY IDOCK:   -1.91 KCAL/MOL
REMARK 927      BINDING AFFINITY PREDICTED BY RF-SCORE:    0.00 PKD
ROOT
HETATM    1  C   UNL     1      -9.788   4.645  68.565  1.00  0.00    -0.181 C  
HETATM    2  C   UNL     1     -10.029   4.768  67.251  1.00  0.00    -0.214 C  
ENDROOT
BRANCH   1   3
HETATM    3  C   UNL     1      -9.752   5.759  69.575  1.00  0.00    -0.199 C  
BRANCH   3   4
HETATM    4  C   UNL     1     -11.082   6.512  69.635  1.00  0.00    -0.435 C  
BRANCH   4   5
HETATM    5  C   UNL     1     -11.599   6.659  71.066  1.00  0.00    -0.399 C  
HETATM    6  O   UNL     1     -11.411   7.949  73.054  1.00  0.00    -0.408 OA 
HETATM    7  C   UNL     1     -10.945   7.809  71.790  1.00  0.00    -0.239 C  
HETATM    8  O   UNL     1     -10.098   8.553  71.319  1.00  0.00    -0.193 OA 
ENDBRANCH   4   5
ENDBRANCH   3   4
ENDBRANCH   1   3
BRANCH   2   9
HETATM    9  C   UNL     1     -10.253   6.053  66.501  1.00  0.00    -0.200 C  
BRANCH   9  10
HETATM   10  C   UNL     1      -9.080   7.046  66.502  1.00  0.00    -0.183 C  
HETATM   11  H   UNL     1      -9.423  10.012  64.010  1.00  0.00     0.000 HD 
HETATM   12  C   UNL     1      -8.045   6.691  65.423  1.00  0.00    -0.129 C  
HETATM   13  O   UNL     1      -8.764   9.329  63.987  1.00  0.00    -0.205 OA 
HETATM   14  O   UNL     1      -8.667   6.411  64.170  1.00  0.00    -0.322 OA 
HETATM   15  C   UNL     1      -7.234   7.968  65.275  1.00  0.00    -0.064 C  
HETATM   16  C   UNL     1      -9.457   8.518  66.178  1.00  0.00    -0.286 C  
HETATM   17  H   UNL     1      -8.027   6.191  63.503  1.00  0.00     0.000 HD 
HETATM   18  C   UNL     1      -8.294   9.067  65.312  1.00  0.00    -0.149 C  
BRANCH  16  19
HETATM   19  C   UNL     1      -9.720   9.361  67.404  1.00  0.00    -0.205 C  
HETATM   20  C   UNL     1     -10.934   9.747  67.835  1.00  0.00    -0.246 C  
BRANCH  20  21
HETATM   21  C   UNL     1     -11.209  10.643  69.012  1.00  0.00    -0.265 C  
HETATM   22  O   UNL     1     -10.003  10.914  69.717  1.00  0.00    -0.426 OA 
HETATM   23  H   UNL     1     -10.177  11.480  70.460  1.00  0.00     0.000 HD 
BRANCH  21  24
HETATM   24  C   UNL     1     -11.825  11.977  68.577  1.00  0.00    -0.369 C  
BRANCH  24  25
HETATM   25  C   UNL     1     -10.866  13.173  68.597  1.00  0.00    -0.287 C  
BRANCH  25  26
HETATM   26  C   UNL     1     -10.317  13.519  67.214  1.00  0.00    -0.241 C  
BRANCH  26  27
HETATM   27  C   UNL     1      -8.807  13.302  67.139  1.00  0.00    -0.223 C  
HETATM   28  C   UNL     1      -8.138  13.680  68.450  1.00  0.00    -0.146 C  
ENDBRANCH  26  27
ENDBRANCH  25  26
ENDBRANCH  24  25
ENDBRANCH  21  24
ENDBRANCH  20  21
ENDBRANCH  16  19
ENDBRANCH   9  10
ENDBRANCH   2   9
TORSDOF 11
ENDMDL
MODEL      252
REMARK 921   NORMALIZED FREE ENERGY PREDICTED BY IDOCK:   -3.47 KCAL/MOL
REMARK 922        TOTAL FREE ENERGY PREDICTED BY IDOCK:   -8.10 KCAL/MOL
REMARK 923 INTER-LIGAND FREE ENERGY PREDICTED BY IDOCK:   -6.80 KCAL/MOL
REMARK 924 INTRA-LIGAND FREE ENERGY PREDICTED BY IDOCK:   -1.31 KCAL/MOL
REMARK 927      BINDING AFFINITY PREDICTED BY RF-SCORE:    0.00 PKD
ROOT
HETATM    1  C   UNL     1      -9.368  12.116  66.701  1.00  0.00    -0.226 C  
HETATM    2  C   UNL     1      -9.086  11.137  67.574  1.00  0.00    -0.146 C  
ENDROOT
BRANCH   1   3
HETATM    3  C   UNL     1     -10.066  11.960  65.378  1.00  0.00    -0.285 C  
BRANCH   3   4
HETATM    4  C   UNL     1     -11.587  11.993  65.534  1.00  0.00    -0.352 C  
BRANCH   4   5
HETATM    5  C   UNL     1     -12.258  12.865  64.473  1.00  0.00    -0.489 C  
HETATM    6  O   UNL     1     -12.910  15.089  63.945  1.00  0.00    -0.679 OA 
HETATM    7  C   UNL     1     -12.327  14.313  64.889  1.00  0.00    -0.425 C  
HETATM    8  O   UNL     1     -11.907  14.767  65.941  1.00  0.00    -0.314 OA 
ENDBRANCH   4   5
ENDBRANCH   3   4
ENDBRANCH   1   3
BRANCH   2   9
HETATM    9  C   UNL     1      -9.354   9.669  67.386  1.00  0.00    -0.155 C  
BRANCH   9  10
HETATM   10  C   UNL     1      -9.130   8.780  68.620  1.00  0.00    -0.141 C  
HETATM   11  H   UNL     1      -6.991  10.383  71.445  1.00  0.00     0.000 HD 
HETATM   12  C   UNL     1      -7.809   8.001  68.516  1.00  0.00    -0.115 C  
HETATM   13  O   UNL     1      -6.763   9.618  70.930  1.00  0.00    -0.164 OA 
HETATM   14  O   UNL     1      -6.732   8.843  68.109  1.00  0.00    -0.063 OA 
HETATM   15  C   UNL     1      -7.547   7.552  69.944  1.00  0.00    -0.093 C  
HETATM   16  C   UNL     1      -9.002   9.539  69.970  1.00  0.00    -0.249 C  
HETATM   17  H   UNL     1      -5.916   8.362  68.044  1.00  0.00     0.000 HD 
HETATM   18  C   UNL     1      -7.913   8.782  70.774  1.00  0.00    -0.127 C  
BRANCH  16  19
HETATM   19  C   UNL     1     -10.306   9.659  70.724  1.00  0.00    -0.356 C  
HETATM   20  C   UNL     1     -11.272  10.559  70.465  1.00  0.00    -0.348 C  
BRANCH  20  21
HETATM   21  C   UNL     1     -12.543  10.738  71.248  1.00  0.00    -0.426 C  
HETATM   22  O   UNL     1     -13.097  12.025  71.000  1.00  0.00    -0.152 OA 
HETATM   23  H   UNL     1     -13.900  12.139  71.495  1.00  0.00     0.000 HD 
BRANCH  21  24
HETATM   24  C   UNL     1     -13.591   9.682  70.879  1.00  0.00    -0.070 C  
BRANCH  24  25
HETATM   25  C   UNL     1     -13.799   8.579  71.923  1.00  0.00    -0.473 C  
BRANCH  25  26
HETATM   26  C   UNL     1     -12.486   8.028  72.477  1.00  0.00    -0.193 C  
BRANCH  26  27
HETATM   27  C   UNL     1     -12.233   6.598  72.003  1.00  0.00    -0.337 C  
HETATM   28  C   UNL     1     -11.413   6.587  70.724  1.00  0.00    -0.419 C  
ENDBRANCH  26  27
ENDBRANCH  25  26
ENDBRANCH  24  25
ENDBRANCH  21  24
ENDBRANCH  20  21
ENDBRANCH  16  19
ENDBRANCH   9  10
ENDBRANCH   2   9
TORSDOF 11
ENDMDL
MODEL      253
REMARK 921   NORMALIZED FREE ENERGY PREDICTED BY IDOCK:   -3.47 KCAL/MOL
REMARK 922        TOTAL FREE ENERGY PREDICTED BY IDOCK:   -8.09 KCAL/MOL
REMARK 923 INTER-LIGAND FREE ENERGY PREDICTED BY IDOCK:   -6.23 KCAL/MOL
REMARK 924 INTRA-LIGAND FREE ENERGY PREDICTED BY IDOCK:   -1.86 KCAL/MOL
REMARK 927      BINDING AFFINITY PREDICTED BY RF-SCORE:    0.00 PKD
ROOT
HETATM    1  C   UNL     1     -10.883  14.121  65.728  1.00  0.00    -0.297 C  
HETATM    2  C   UNL     1     -10.436  12.905  65.382  1.00  0.00    -0.308 C  
ENDROOT
BRANCH   1   3
HETATM    3  C   UNL     1     -12.143  14.428  66.490  1.00  0.00    -0.395 C  
BRANCH   3   4
HETATM    4  C   UNL     1     -11.908  14.409  68.001  1.00  0.00    -0.361 C  
BRANCH   4   5
HETATM    5  C   UNL     1     -10.481  14.817  68.369  1.00  0.00    -0.243 C  
HETATM    6  O   UNL     1      -9.149  15.833  70.056  1.00  0.00     0.021 OA 
HETATM    7  C   UNL     1     -10.413  15.482  69.722  1.00  0.00    -0.301 C  
HETATM    8  O   UNL     1     -11.365  15.685  70.460  1.00  0.00    -0.301 OA 
ENDBRANCH   4   5
ENDBRANCH   3   4
ENDBRANCH   1   3
BRANCH   2   9
HETATM    9  C   UNL     1     -11.132  11.595  65.630  1.00  0.00    -0.308 C  
BRANCH   9  10
HETATM   10  C   UNL     1     -10.307  10.520  66.357  1.00  0.00    -0.283 C  
HETATM   11  H   UNL     1      -6.855  11.712  67.694  1.00  0.00     0.000 HD 
HETATM   12  C   UNL     1      -9.325   9.826  65.399  1.00  0.00    -0.252 C  
HETATM   13  O   UNL     1      -7.004  11.056  67.024  1.00  0.00    -0.101 OA 
HETATM   14  O   UNL     1      -8.615  10.770  64.599  1.00  0.00    -0.287 OA 
HETATM   15  C   UNL     1      -8.333   9.155  66.334  1.00  0.00    -0.124 C  
HETATM   16  C   UNL     1      -9.395  11.046  67.500  1.00  0.00    -0.167 C  
HETATM   17  H   UNL     1      -8.009  10.341  64.007  1.00  0.00     0.000 HD 
HETATM   18  C   UNL     1      -8.091  10.210  67.412  1.00  0.00    -0.114 C  
BRANCH  16  19
HETATM   19  C   UNL     1     -10.036  10.982  68.866  1.00  0.00    -0.212 C  
HETATM   20  C   UNL     1     -10.913  10.045  69.269  1.00  0.00    -0.264 C  
BRANCH  20  21
HETATM   21  C   UNL     1     -11.614  10.006  70.599  1.00  0.00    -0.340 C  
HETATM   22  O   UNL     1     -13.014  10.195  70.424  1.00  0.00    -0.571 OA 
HETATM   23  H   UNL     1     -13.457  10.170  71.264  1.00  0.00     0.000 HD 
BRANCH  21  24
HETATM   24  C   UNL     1     -11.393   8.670  71.318  1.00  0.00    -0.341 C  
BRANCH  24  25
HETATM   25  C   UNL     1      -9.944   8.385  71.729  1.00  0.00    -0.312 C  
BRANCH  25  26
HETATM   26  C   UNL     1      -9.287   7.298  70.880  1.00  0.00    -0.159 C  
BRANCH  26  27
HETATM   27  C   UNL     1      -7.847   7.659  70.521  1.00  0.00    -0.095 C  
HETATM   28  C   UNL     1      -7.360   8.835  71.351  1.00  0.00    -0.117 C  
ENDBRANCH  26  27
ENDBRANCH  25  26
ENDBRANCH  24  25
ENDBRANCH  21  24
ENDBRANCH  20  21
ENDBRANCH  16  19
ENDBRANCH   9  10
ENDBRANCH   2   9
TORSDOF 11
ENDMDL
MODEL      254
REMARK 921   NORMALIZED FREE ENERGY PREDICTED BY IDOCK:   -3.47 KCAL/MOL
REMARK 922        TOTAL FREE ENERGY PREDICTED BY IDOCK:   -8.09 KCAL/MOL
REMARK 923 INTER-LIGAND FREE ENERGY PREDICTED BY IDOCK:   -6.20 KCAL/MOL
REMARK 924 INTRA-LIGAND FREE ENERGY PREDICTED BY IDOCK:   -1.90 KCAL/MOL
REMARK 927      BINDING AFFINITY PREDICTED BY RF-SCORE:    0.00 PKD
ROOT
HETATM    1  C   UNL     1      -6.633  10.040  66.463  1.00  0.00    -0.074 C  
HETATM    2  C   UNL     1      -7.310  10.588  65.443  1.00  0.00    -0.084 C  
ENDROOT
BRANCH   1   3
HETATM    3  C   UNL     1      -7.222   9.299  67.632  1.00  0.00    -0.083 C  
BRANCH   3   4
HETATM    4  C   UNL     1      -6.977   7.793  67.527  1.00  0.00    -0.078 C  
BRANCH   4   5
HETATM    5  C   UNL     1      -7.241   7.262  66.118  1.00  0.00    -0.074 C  
HETATM    6  O   UNL     1      -8.577   5.758  64.850  1.00  0.00    -0.141 OA 
HETATM    7  C   UNL     1      -8.332   6.221  66.099  1.00  0.00    -0.130 C  
HETATM    8  O   UNL     1      -8.952   5.827  67.075  1.00  0.00    -0.115 OA 
ENDBRANCH   4   5
ENDBRANCH   3   4
ENDBRANCH   1   3
BRANCH   2   9
HETATM    9  C   UNL     1      -8.806  10.631  65.285  1.00  0.00    -0.204 C  
BRANCH   9  10
HETATM   10  C   UNL     1      -9.556  11.579  66.234  1.00  0.00    -0.239 C  
HETATM   11  H   UNL     1     -13.348  12.009  65.483  1.00  0.00     0.000 HD 
HETATM   12  C   UNL     1      -9.620  13.006  65.665  1.00  0.00    -0.008 C  
HETATM   13  O   UNL     1     -12.683  12.685  65.434  1.00  0.00    -0.635 OA 
HETATM   14  O   UNL     1     -10.008  13.007  64.293  1.00  0.00    -0.616 OA 
HETATM   15  C   UNL     1     -10.728  13.661  66.474  1.00  0.00    -0.284 C  
HETATM   16  C   UNL     1     -11.046  11.219  66.489  1.00  0.00    -0.280 C  
HETATM   17  H   UNL     1     -10.047  13.889  63.942  1.00  0.00     0.000 HD 
HETATM   18  C   UNL     1     -11.798  12.574  66.553  1.00  0.00    -0.367 C  
BRANCH  16  19
HETATM   19  C   UNL     1     -11.264  10.373  67.721  1.00  0.00    -0.309 C  
HETATM   20  C   UNL     1     -10.478   9.353  68.111  1.00  0.00    -0.267 C  
BRANCH  20  21
HETATM   21  C   UNL     1     -10.718   8.457  69.295  1.00  0.00    -0.126 C  
HETATM   22  O   UNL     1     -10.184   7.161  69.048  1.00  0.00    -0.178 OA 
HETATM   23  H   UNL     1     -10.336   6.595  69.796  1.00  0.00     0.000 HD 
BRANCH  21  24
HETATM   24  C   UNL     1     -10.069   9.012  70.568  1.00  0.00    -0.263 C  
BRANCH  24  25
HETATM   25  C   UNL     1     -11.009   9.150  71.771  1.00  0.00    -0.429 C  
BRANCH  25  26
HETATM   26  C   UNL     1     -12.442   8.721  71.458  1.00  0.00    -0.374 C  
BRANCH  26  27
HETATM   27  C   UNL     1     -13.259   9.873  70.875  1.00  0.00    -0.309 C  
HETATM   28  C   UNL     1     -12.664  11.214  71.271  1.00  0.00    -0.531 C  
ENDBRANCH  26  27
ENDBRANCH  25  26
ENDBRANCH  24  25
ENDBRANCH  21  24
ENDBRANCH  20  21
ENDBRANCH  16  19
ENDBRANCH   9  10
ENDBRANCH   2   9
TORSDOF 11
ENDMDL
MODEL      255
REMARK 921   NORMALIZED FREE ENERGY PREDICTED BY IDOCK:   -3.42 KCAL/MOL
REMARK 922        TOTAL FREE ENERGY PREDICTED BY IDOCK:   -8.02 KCAL/MOL
REMARK 923 INTER-LIGAND FREE ENERGY PREDICTED BY IDOCK:   -6.80 KCAL/MOL
REMARK 924 INTRA-LIGAND FREE ENERGY PREDICTED BY IDOCK:   -1.22 KCAL/MOL
REMARK 927      BINDING AFFINITY PREDICTED BY RF-SCORE:    0.00 PKD
ROOT
HETATM    1  C   UNL     1     -12.618  12.646  71.325  1.00  0.00    -0.339 C  
HETATM    2  C   UNL     1     -13.059  11.422  71.650  1.00  0.00    -0.498 C  
ENDROOT
BRANCH   1   3
HETATM    3  C   UNL     1     -11.953  13.045  70.037  1.00  0.00    -0.383 C  
BRANCH   3   4
HETATM    4  C   UNL     1     -12.379  14.444  69.591  1.00  0.00    -0.300 C  
BRANCH   4   5
HETATM    5  C   UNL     1     -11.424  15.037  68.554  1.00  0.00    -0.335 C  
HETATM    6  O   UNL     1     -10.878  15.068  66.241  1.00  0.00    -0.321 OA 
HETATM    7  C   UNL     1     -11.715  14.535  67.162  1.00  0.00    -0.399 C  
HETATM    8  O   UNL     1     -12.601  13.749  66.864  1.00  0.00    -0.252 OA 
ENDBRANCH   4   5
ENDBRANCH   3   4
ENDBRANCH   1   3
BRANCH   2   9
HETATM    9  C   UNL     1     -12.926  10.176  70.817  1.00  0.00    -0.380 C  
BRANCH   9  10
HETATM   10  C   UNL     1     -12.122   9.027  71.446  1.00  0.00    -0.392 C  
HETATM   11  H   UNL     1     -10.890   6.310  68.951  1.00  0.00     0.000 HD 
HETATM   12  C   UNL     1     -13.026   7.832  71.788  1.00  0.00    -0.323 C  
HETATM   13  O   UNL     1     -11.507   6.185  69.662  1.00  0.00    -0.429 OA 
HETATM   14  O   UNL     1     -13.899   7.507  70.707  1.00  0.00    -0.567 OA 
HETATM   15  C   UNL     1     -12.045   6.685  71.968  1.00  0.00    -0.353 C  
HETATM   16  C   UNL     1     -11.025   8.409  70.535  1.00  0.00    -0.258 C  
HETATM   17  H   UNL     1     -14.458   6.769  70.919  1.00  0.00     0.000 HD 
HETATM   18  C   UNL     1     -11.053   6.885  70.824  1.00  0.00    -0.275 C  
BRANCH  16  19
HETATM   19  C   UNL     1      -9.656   9.016  70.736  1.00  0.00    -0.308 C  
HETATM   20  C   UNL     1      -8.534   8.325  71.006  1.00  0.00    -0.150 C  
BRANCH  20  21
HETATM   21  C   UNL     1      -7.178   8.917  71.278  1.00  0.00    -0.097 C  
HETATM   22  O   UNL     1      -6.855   8.797  72.659  1.00  0.00    -0.274 OA 
HETATM   23  H   UNL     1      -5.999   9.171  72.830  1.00  0.00     0.000 HD 
BRANCH  21  24
HETATM   24  C   UNL     1      -6.081   8.221  70.463  1.00  0.00    -0.032 C  
BRANCH  24  25
HETATM   25  C   UNL     1      -5.372   7.068  71.181  1.00  0.00    -0.027 C  
BRANCH  25  26
HETATM   26  C   UNL     1      -5.592   5.718  70.500  1.00  0.00    -0.013 C  
BRANCH  26  27
HETATM   27  C   UNL     1      -6.400   5.863  69.213  1.00  0.00    -0.041 C  
HETATM   28  C   UNL     1      -7.377   4.710  69.053  1.00  0.00    -0.053 C  
ENDBRANCH  26  27
ENDBRANCH  25  26
ENDBRANCH  24  25
ENDBRANCH  21  24
ENDBRANCH  20  21
ENDBRANCH  16  19
ENDBRANCH   9  10
ENDBRANCH   2   9
TORSDOF 11
ENDMDL
MODEL      256
REMARK 921   NORMALIZED FREE ENERGY PREDICTED BY IDOCK:   -3.42 KCAL/MOL
REMARK 922        TOTAL FREE ENERGY PREDICTED BY IDOCK:   -8.01 KCAL/MOL
REMARK 923 INTER-LIGAND FREE ENERGY PREDICTED BY IDOCK:   -6.47 KCAL/MOL
REMARK 924 INTRA-LIGAND FREE ENERGY PREDICTED BY IDOCK:   -1.54 KCAL/MOL
REMARK 927      BINDING AFFINITY PREDICTED BY RF-SCORE:    0.00 PKD
ROOT
HETATM    1  C   UNL     1      -8.553   5.719  67.412  1.00  0.00    -0.105 C  
HETATM    2  C   UNL     1      -8.277   5.658  68.723  1.00  0.00    -0.103 C  
ENDROOT
BRANCH   1   3
HETATM    3  C   UNL     1      -9.270   6.833  66.700  1.00  0.00    -0.184 C  
BRANCH   3   4
HETATM    4  C   UNL     1      -8.325   7.628  65.798  1.00  0.00    -0.144 C  
BRANCH   4   5
HETATM    5  C   UNL     1      -8.576   9.134  65.882  1.00  0.00    -0.168 C  
HETATM    6  O   UNL     1      -7.860  11.145  66.927  1.00  0.00    -0.137 OA 
HETATM    7  C   UNL     1      -7.649   9.810  66.860  1.00  0.00    -0.095 C  
HETATM    8  O   UNL     1      -6.789   9.250  67.523  1.00  0.00    -0.075 OA 
ENDBRANCH   4   5
ENDBRANCH   3   4
ENDBRANCH   1   3
BRANCH   2   9
HETATM    9  C   UNL     1      -8.681   6.662  69.768  1.00  0.00    -0.140 C  
BRANCH   9  10
HETATM   10  C   UNL     1     -10.180   7.000  69.834  1.00  0.00    -0.213 C  
HETATM   11  H   UNL     1     -11.157   9.673  72.484  1.00  0.00     0.000 HD 
HETATM   12  C   UNL     1     -10.896   6.158  70.902  1.00  0.00    -0.281 C  
HETATM   13  O   UNL     1     -11.426   8.762  72.476  1.00  0.00    -0.306 OA 
HETATM   14  O   UNL     1     -10.172   6.141  72.131  1.00  0.00    -0.183 OA 
HETATM   15  C   UNL     1     -12.199   6.907  71.129  1.00  0.00    -0.428 C  
HETATM   16  C   UNL     1     -10.513   8.463  70.236  1.00  0.00    -0.225 C  
HETATM   17  H   UNL     1     -10.615   5.621  72.791  1.00  0.00     0.000 HD 
HETATM   18  C   UNL     1     -11.768   8.372  71.143  1.00  0.00    -0.280 C  
BRANCH  16  19
HETATM   19  C   UNL     1     -10.712   9.386  69.056  1.00  0.00    -0.209 C  
HETATM   20  C   UNL     1     -10.539  10.720  69.077  1.00  0.00    -0.250 C  
BRANCH  20  21
HETATM   21  C   UNL     1     -10.800  11.661  67.933  1.00  0.00    -0.210 C  
HETATM   22  O   UNL     1     -12.152  11.552  67.503  1.00  0.00    -0.614 OA 
HETATM   23  H   UNL     1     -12.317  12.146  66.781  1.00  0.00     0.000 HD 
BRANCH  21  24
HETATM   24  C   UNL     1     -10.534  13.119  68.326  1.00  0.00    -0.258 C  
BRANCH  24  25
HETATM   25  C   UNL     1     -11.787  13.950  68.627  1.00  0.00    -0.407 C  
BRANCH  25  26
HETATM   26  C   UNL     1     -12.054  14.104  70.123  1.00  0.00    -0.411 C  
BRANCH  26  27
HETATM   27  C   UNL     1     -12.553  15.507  70.463  1.00  0.00    -0.462 C  
HETATM   28  C   UNL     1     -11.789  16.084  71.643  1.00  0.00    -0.582 C  
ENDBRANCH  26  27
ENDBRANCH  25  26
ENDBRANCH  24  25
ENDBRANCH  21  24
ENDBRANCH  20  21
ENDBRANCH  16  19
ENDBRANCH   9  10
ENDBRANCH   2   9
TORSDOF 11
ENDMDL
MODEL      257
REMARK 921   NORMALIZED FREE ENERGY PREDICTED BY IDOCK:   -3.41 KCAL/MOL
REMARK 922        TOTAL FREE ENERGY PREDICTED BY IDOCK:   -8.00 KCAL/MOL
REMARK 923 INTER-LIGAND FREE ENERGY PREDICTED BY IDOCK:   -7.98 KCAL/MOL
REMARK 924 INTRA-LIGAND FREE ENERGY PREDICTED BY IDOCK:   -0.02 KCAL/MOL
REMARK 927      BINDING AFFINITY PREDICTED BY RF-SCORE:    0.00 PKD
ROOT
HETATM    1  C   UNL     1      -7.658  10.239  68.161  1.00  0.00    -0.087 C  
HETATM    2  C   UNL     1      -8.067  11.128  67.244  1.00  0.00    -0.137 C  
ENDROOT
BRANCH   1   3
HETATM    3  C   UNL     1      -8.416   9.803  69.385  1.00  0.00    -0.161 C  
BRANCH   3   4
HETATM    4  C   UNL     1      -9.912   9.656  69.100  1.00  0.00    -0.189 C  
BRANCH   4   5
HETATM    5  C   UNL     1     -10.762  10.562  69.992  1.00  0.00    -0.282 C  
HETATM    6  O   UNL     1     -12.388  10.573  71.726  1.00  0.00    -0.331 OA 
HETATM    7  C   UNL     1     -11.645   9.773  70.926  1.00  0.00    -0.361 C  
HETATM    8  O   UNL     1     -11.699   8.554  70.987  1.00  0.00    -0.282 OA 
ENDBRANCH   4   5
ENDBRANCH   3   4
ENDBRANCH   1   3
BRANCH   2   9
HETATM    9  C   UNL     1      -9.345  11.922  67.278  1.00  0.00    -0.177 C  
BRANCH   9  10
HETATM   10  C   UNL     1      -9.707  12.671  65.986  1.00  0.00    -0.232 C  
HETATM   11  H   UNL     1     -13.514  13.220  65.406  1.00  0.00     0.000 HD 
HETATM   12  C   UNL     1     -10.010  11.693  64.839  1.00  0.00    -0.255 C  
HETATM   13  O   UNL     1     -12.930  12.699  64.867  1.00  0.00    -0.830 OA 
HETATM   14  O   UNL     1     -10.883  10.646  65.258  1.00  0.00    -0.104 OA 
HETATM   15  C   UNL     1     -10.750  12.552  63.827  1.00  0.00    -0.483 C  
HETATM   16  C   UNL     1     -10.986  13.550  66.065  1.00  0.00    -0.281 C  
HETATM   17  H   UNL     1     -11.070  10.041  64.549  1.00  0.00     0.000 HD 
HETATM   18  C   UNL     1     -11.690  13.390  64.693  1.00  0.00    -0.372 C  
BRANCH  16  19
HETATM   19  C   UNL     1     -10.709  14.994  66.413  1.00  0.00    -0.322 C  
HETATM   20  C   UNL     1      -9.665  15.714  65.963  1.00  0.00    -0.378 C  
BRANCH  20  21
HETATM   21  C   UNL     1      -9.336  17.129  66.354  1.00  0.00    -0.262 C  
HETATM   22  O   UNL     1      -8.172  17.571  65.665  1.00  0.00    -0.505 OA 
HETATM   23  H   UNL     1      -7.963  18.465  65.912  1.00  0.00     0.000 HD 
BRANCH  21  24
HETATM   24  C   UNL     1     -10.485  18.090  66.027  1.00  0.00    -0.317 C  
BRANCH  24  25
HETATM   25  C   UNL     1     -10.425  19.442  66.745  1.00  0.00    -0.569 C  
BRANCH  25  26
HETATM   26  C   UNL     1      -9.030  19.777  67.270  1.00  0.00    -0.403 C  
BRANCH  26  27
HETATM   27  C   UNL     1      -8.892  19.441  68.754  1.00  0.00    -0.385 C  
HETATM   28  C   UNL     1      -7.528  18.840  69.049  1.00  0.00    -0.275 C  
ENDBRANCH  26  27
ENDBRANCH  25  26
ENDBRANCH  24  25
ENDBRANCH  21  24
ENDBRANCH  20  21
ENDBRANCH  16  19
ENDBRANCH   9  10
ENDBRANCH   2   9
TORSDOF 11
ENDMDL
MODEL      258
REMARK 921   NORMALIZED FREE ENERGY PREDICTED BY IDOCK:   -3.36 KCAL/MOL
REMARK 922        TOTAL FREE ENERGY PREDICTED BY IDOCK:   -7.92 KCAL/MOL
REMARK 923 INTER-LIGAND FREE ENERGY PREDICTED BY IDOCK:   -6.23 KCAL/MOL
REMARK 924 INTRA-LIGAND FREE ENERGY PREDICTED BY IDOCK:   -1.69 KCAL/MOL
REMARK 927      BINDING AFFINITY PREDICTED BY RF-SCORE:    0.00 PKD
ROOT
HETATM    1  C   UNL     1     -11.363  10.936  67.438  1.00  0.00    -0.273 C  
HETATM    2  C   UNL     1     -11.345  10.488  68.702  1.00  0.00    -0.315 C  
ENDROOT
BRANCH   1   3
HETATM    3  C   UNL     1     -11.632  12.347  66.993  1.00  0.00    -0.434 C  
BRANCH   3   4
HETATM    4  C   UNL     1     -10.996  12.642  65.634  1.00  0.00    -0.313 C  
BRANCH   4   5
HETATM    5  C   UNL     1     -10.881  11.388  64.766  1.00  0.00    -0.339 C  
HETATM    6  O   UNL     1      -9.418   9.632  64.112  1.00  0.00    -0.192 OA 
HETATM    7  C   UNL     1      -9.519  10.749  64.870  1.00  0.00    -0.242 C  
HETATM    8  O   UNL     1      -8.595  11.159  65.557  1.00  0.00    -0.149 OA 
ENDBRANCH   4   5
ENDBRANCH   3   4
ENDBRANCH   1   3
BRANCH   2   9
HETATM    9  C   UNL     1     -11.653  11.290  69.938  1.00  0.00    -0.413 C  
BRANCH   9  10
HETATM   10  C   UNL     1     -11.789  10.490  71.244  1.00  0.00    -0.323 C  
HETATM   11  H   UNL     1     -12.416   6.679  70.790  1.00  0.00     0.000 HD 
HETATM   12  C   UNL     1     -13.261  10.347  71.662  1.00  0.00    -0.400 C  
HETATM   13  O   UNL     1     -13.011   7.306  71.185  1.00  0.00    -0.346 OA 
HETATM   14  O   UNL     1     -14.083   9.956  70.564  1.00  0.00    -0.164 OA 
HETATM   15  C   UNL     1     -13.235   9.206  72.666  1.00  0.00    -0.362 C  
HETATM   16  C   UNL     1     -11.281   9.023  71.178  1.00  0.00    -0.375 C  
HETATM   17  H   UNL     1     -14.993   9.867  70.822  1.00  0.00     0.000 HD 
HETATM   18  C   UNL     1     -12.279   8.197  72.031  1.00  0.00    -0.339 C  
BRANCH  16  19
HETATM   19  C   UNL     1      -9.850   8.856  71.631  1.00  0.00    -0.387 C  
HETATM   20  C   UNL     1      -9.053   7.819  71.315  1.00  0.00    -0.153 C  
BRANCH  20  21
HETATM   21  C   UNL     1      -7.650   7.601  71.813  1.00  0.00    -0.085 C  
HETATM   22  O   UNL     1      -7.655   6.717  72.928  1.00  0.00    -0.095 OA 
HETATM   23  H   UNL     1      -6.769   6.579  73.243  1.00  0.00     0.000 HD 
BRANCH  21  24
HETATM   24  C   UNL     1      -6.749   7.003  70.727  1.00  0.00    -0.053 C  
BRANCH  24  25
HETATM   25  C   UNL     1      -7.473   6.571  69.446  1.00  0.00    -0.094 C  
BRANCH  25  26
HETATM   26  C   UNL     1      -7.124   7.443  68.242  1.00  0.00    -0.084 C  
BRANCH  26  27
HETATM   27  C   UNL     1      -8.339   8.220  67.739  1.00  0.00    -0.128 C  
HETATM   28  C   UNL     1      -9.539   7.304  67.575  1.00  0.00    -0.171 C  
ENDBRANCH  26  27
ENDBRANCH  25  26
ENDBRANCH  24  25
ENDBRANCH  21  24
ENDBRANCH  20  21
ENDBRANCH  16  19
ENDBRANCH   9  10
ENDBRANCH   2   9
TORSDOF 11
ENDMDL
MODEL      259
REMARK 921   NORMALIZED FREE ENERGY PREDICTED BY IDOCK:   -3.36 KCAL/MOL
REMARK 922        TOTAL FREE ENERGY PREDICTED BY IDOCK:   -7.91 KCAL/MOL
REMARK 923 INTER-LIGAND FREE ENERGY PREDICTED BY IDOCK:   -6.04 KCAL/MOL
REMARK 924 INTRA-LIGAND FREE ENERGY PREDICTED BY IDOCK:   -1.87 KCAL/MOL
REMARK 927      BINDING AFFINITY PREDICTED BY RF-SCORE:    0.00 PKD
ROOT
HETATM    1  C   UNL     1     -11.131  15.454  67.351  1.00  0.00    -0.311 C  
HETATM    2  C   UNL     1     -10.381  15.024  68.376  1.00  0.00    -0.231 C  
ENDROOT
BRANCH   1   3
HETATM    3  C   UNL     1     -10.633  15.914  66.009  1.00  0.00    -0.331 C  
BRANCH   3   4
HETATM    4  C   UNL     1     -10.579  14.764  65.001  1.00  0.00    -0.452 C  
BRANCH   4   5
HETATM    5  C   UNL     1     -11.971  14.249  64.638  1.00  0.00    -0.468 C  
HETATM    6  O   UNL     1     -13.406  12.356  64.740  1.00  0.00    -0.718 OA 
HETATM    7  C   UNL     1     -12.169  12.811  65.049  1.00  0.00    -0.473 C  
HETATM    8  O   UNL     1     -11.337  12.114  65.608  1.00  0.00    -0.328 OA 
ENDBRANCH   4   5
ENDBRANCH   3   4
ENDBRANCH   1   3
BRANCH   2   9
HETATM    9  C   UNL     1      -8.878  14.971  68.420  1.00  0.00    -0.178 C  
BRANCH   9  10
HETATM   10  C   UNL     1      -8.232  13.699  67.846  1.00  0.00    -0.171 C  
HETATM   11  H   UNL     1      -6.596  11.345  70.474  1.00  0.00     0.000 HD 
HETATM   12  C   UNL     1      -6.731  13.903  67.583  1.00  0.00    -0.175 C  
HETATM   13  O   UNL     1      -6.148  11.812  69.779  1.00  0.00    -0.107 OA 
HETATM   14  O   UNL     1      -6.083  14.526  68.690  1.00  0.00    -0.078 OA 
HETATM   15  C   UNL     1      -6.197  12.486  67.455  1.00  0.00    -0.155 C  
HETATM   16  C   UNL     1      -8.275  12.456  68.777  1.00  0.00     0.099 C  
HETATM   17  H   UNL     1      -5.156  14.653  68.527  1.00  0.00     0.000 HD 
HETATM   18  C   UNL     1      -6.917  11.735  68.575  1.00  0.00    -0.083 C  
BRANCH  16  19
HETATM   19  C   UNL     1      -9.458  11.550  68.526  1.00  0.00    -0.175 C  
HETATM   20  C   UNL     1      -9.585  10.293  68.987  1.00  0.00    -0.210 C  
BRANCH  20  21
HETATM   21  C   UNL     1     -10.722   9.355  68.690  1.00  0.00    -0.160 C  
HETATM   22  O   UNL     1     -11.891  10.090  68.348  1.00  0.00    -0.583 OA 
HETATM   23  H   UNL     1     -12.609   9.498  68.160  1.00  0.00     0.000 HD 
BRANCH  21  24
HETATM   24  C   UNL     1     -10.389   8.410  67.529  1.00  0.00    -0.333 C  
BRANCH  24  25
HETATM   25  C   UNL     1      -8.986   7.795  67.573  1.00  0.00    -0.126 C  
BRANCH  25  26
HETATM   26  C   UNL     1      -8.945   6.455  68.305  1.00  0.00    -0.116 C  
BRANCH  26  27
HETATM   27  C   UNL     1      -8.057   6.519  69.546  1.00  0.00    -0.118 C  
HETATM   28  C   UNL     1      -6.971   7.569  69.382  1.00  0.00    -0.057 C  
ENDBRANCH  26  27
ENDBRANCH  25  26
ENDBRANCH  24  25
ENDBRANCH  21  24
ENDBRANCH  20  21
ENDBRANCH  16  19
ENDBRANCH   9  10
ENDBRANCH   2   9
TORSDOF 11
ENDMDL
MODEL      260
REMARK 921   NORMALIZED FREE ENERGY PREDICTED BY IDOCK:   -3.34 KCAL/MOL
REMARK 922        TOTAL FREE ENERGY PREDICTED BY IDOCK:   -7.89 KCAL/MOL
REMARK 923 INTER-LIGAND FREE ENERGY PREDICTED BY IDOCK:   -6.66 KCAL/MOL
REMARK 924 INTRA-LIGAND FREE ENERGY PREDICTED BY IDOCK:   -1.22 KCAL/MOL
REMARK 927      BINDING AFFINITY PREDICTED BY RF-SCORE:    0.00 PKD
ROOT
HETATM    1  C   UNL     1      -8.735   6.705  67.978  1.00  0.00    -0.117 C  
HETATM    2  C   UNL     1      -9.369   6.341  69.104  1.00  0.00    -0.133 C  
ENDROOT
BRANCH   1   3
HETATM    3  C   UNL     1      -9.377   7.189  66.707  1.00  0.00    -0.199 C  
BRANCH   3   4
HETATM    4  C   UNL     1      -9.129   6.225  65.546  1.00  0.00     0.084 C  
BRANCH   4   5
HETATM    5  C   UNL     1      -8.292   5.017  65.967  1.00  0.00    -0.114 C  
HETATM    6  O   UNL     1      -8.134   2.649  65.834  1.00  0.00    -0.081 OA 
HETATM    7  C   UNL     1      -8.880   3.719  65.474  1.00  0.00    -0.122 C  
HETATM    8  O   UNL     1      -9.903   3.611  64.814  1.00  0.00    -0.171 OA 
ENDBRANCH   4   5
ENDBRANCH   3   4
ENDBRANCH   1   3
BRANCH   2   9
HETATM    9  C   UNL     1     -10.858   6.284  69.310  1.00  0.00    -0.406 C  
BRANCH   9  10
HETATM   10  C   UNL     1     -11.409   7.123  70.475  1.00  0.00    -0.333 C  
HETATM   11  H   UNL     1      -8.732   9.060  72.527  1.00  0.00     0.000 HD 
HETATM   12  C   UNL     1     -11.374   6.338  71.796  1.00  0.00    -0.294 C  
HETATM   13  O   UNL     1      -9.292   8.362  72.846  1.00  0.00    -0.260 OA 
HETATM   14  O   UNL     1     -10.118   5.690  71.989  1.00  0.00    -0.177 OA 
HETATM   15  C   UNL     1     -11.520   7.418  72.855  1.00  0.00    -0.269 C  
HETATM   16  C   UNL     1     -10.609   8.416  70.796  1.00  0.00    -0.240 C  
HETATM   17  H   UNL     1     -10.098   5.204  72.806  1.00  0.00     0.000 HD 
HETATM   18  C   UNL     1     -10.619   8.540  72.342  1.00  0.00    -0.298 C  
BRANCH  16  19
HETATM   19  C   UNL     1     -11.148   9.649  70.109  1.00  0.00    -0.314 C  
HETATM   20  C   UNL     1     -10.476  10.395  69.214  1.00  0.00    -0.257 C  
BRANCH  20  21
HETATM   21  C   UNL     1     -10.970  11.663  68.573  1.00  0.00    -0.220 C  
HETATM   22  O   UNL     1     -11.681  11.366  67.377  1.00  0.00    -0.574 OA 
HETATM   23  H   UNL     1     -11.993  12.167  66.972  1.00  0.00     0.000 HD 
BRANCH  21  24
HETATM   24  C   UNL     1     -11.902  12.444  69.507  1.00  0.00    -0.368 C  
BRANCH  24  25
HETATM   25  C   UNL     1     -12.140  13.907  69.114  1.00  0.00    -0.377 C  
BRANCH  25  26
HETATM   26  C   UNL     1     -12.460  14.801  70.311  1.00  0.00    -0.393 C  
BRANCH  26  27
HETATM   27  C   UNL     1     -13.014  13.993  71.483  1.00  0.00    -0.427 C  
HETATM   28  C   UNL     1     -14.108  14.764  72.203  1.00  0.00    -0.604 C  
ENDBRANCH  26  27
ENDBRANCH  25  26
ENDBRANCH  24  25
ENDBRANCH  21  24
ENDBRANCH  20  21
ENDBRANCH  16  19
ENDBRANCH   9  10
ENDBRANCH   2   9
TORSDOF 11
ENDMDL
MODEL      261
REMARK 921   NORMALIZED FREE ENERGY PREDICTED BY IDOCK:   -3.31 KCAL/MOL
REMARK 922        TOTAL FREE ENERGY PREDICTED BY IDOCK:   -7.83 KCAL/MOL
REMARK 923 INTER-LIGAND FREE ENERGY PREDICTED BY IDOCK:   -5.99 KCAL/MOL
REMARK 924 INTRA-LIGAND FREE ENERGY PREDICTED BY IDOCK:   -1.84 KCAL/MOL
REMARK 927      BINDING AFFINITY PREDICTED BY RF-SCORE:    0.00 PKD
ROOT
HETATM    1  C   UNL     1     -12.406  13.792  67.797  1.00  0.00    -0.031 C  
HETATM    2  C   UNL     1     -11.810  14.828  68.406  1.00  0.00    -0.319 C  
ENDROOT
BRANCH   1   3
HETATM    3  C   UNL     1     -11.768  12.478  67.436  1.00  0.00    -0.432 C  
BRANCH   3   4
HETATM    4  C   UNL     1     -11.752  12.255  65.923  1.00  0.00    -0.451 C  
BRANCH   4   5
HETATM    5  C   UNL     1     -12.696  13.207  65.188  1.00  0.00    -0.468 C  
HETATM    6  O   UNL     1     -12.784  15.164  63.842  1.00  0.00    -0.759 OA 
HETATM    7  C   UNL     1     -11.952  14.327  64.504  1.00  0.00    -0.462 C  
HETATM    8  O   UNL     1     -10.740  14.483  64.517  1.00  0.00    -0.356 OA 
ENDBRANCH   4   5
ENDBRANCH   3   4
ENDBRANCH   1   3
BRANCH   2   9
HETATM    9  C   UNL     1     -10.361  14.916  68.803  1.00  0.00    -0.245 C  
BRANCH   9  10
HETATM   10  C   UNL     1      -9.359  15.111  67.653  1.00  0.00    -0.189 C  
HETATM   11  H   UNL     1      -5.762  16.105  68.747  1.00  0.00     0.000 HD 
HETATM   12  C   UNL     1      -9.280  16.585  67.224  1.00  0.00    -0.216 C  
HETATM   13  O   UNL     1      -6.361  16.632  68.232  1.00  0.00    -0.130 OA 
HETATM   14  O   UNL     1      -9.166  17.454  68.349  1.00  0.00    -0.262 OA 
HETATM   15  C   UNL     1      -7.982  16.655  66.436  1.00  0.00    -0.360 C  
HETATM   16  C   UNL     1      -7.886  14.747  67.989  1.00  0.00    -0.134 C  
HETATM   17  H   UNL     1      -9.117  18.365  68.083  1.00  0.00     0.000 HD 
HETATM   18  C   UNL     1      -7.018  15.808  67.265  1.00  0.00    -0.197 C  
BRANCH  16  19
HETATM   19  C   UNL     1      -7.511  13.332  67.615  1.00  0.00    -0.173 C  
HETATM   20  C   UNL     1      -8.277  12.490  66.898  1.00  0.00    -0.070 C  
BRANCH  20  21
HETATM   21  C   UNL     1      -7.949  11.057  66.576  1.00  0.00    -0.158 C  
HETATM   22  O   UNL     1      -6.626  10.748  66.998  1.00  0.00    -0.074 OA 
HETATM   23  H   UNL     1      -6.419   9.843  66.795  1.00  0.00     0.000 HD 
BRANCH  21  24
HETATM   24  C   UNL     1      -8.915  10.086  67.265  1.00  0.00    -0.144 C  
BRANCH  24  25
HETATM   25  C   UNL     1      -8.248   8.913  67.993  1.00  0.00    -0.110 C  
BRANCH  25  26
HETATM   26  C   UNL     1      -8.497   7.569  67.310  1.00  0.00    -0.118 C  
BRANCH  26  27
HETATM   27  C   UNL     1      -7.203   6.775  67.142  1.00  0.00    -0.085 C  
HETATM   28  C   UNL     1      -6.689   6.870  65.716  1.00  0.00    -0.052 C  
ENDBRANCH  26  27
ENDBRANCH  25  26
ENDBRANCH  24  25
ENDBRANCH  21  24
ENDBRANCH  20  21
ENDBRANCH  16  19
ENDBRANCH   9  10
ENDBRANCH   2   9
TORSDOF 11
ENDMDL
MODEL      262
REMARK 921   NORMALIZED FREE ENERGY PREDICTED BY IDOCK:   -3.30 KCAL/MOL
REMARK 922        TOTAL FREE ENERGY PREDICTED BY IDOCK:   -7.81 KCAL/MOL
REMARK 923 INTER-LIGAND FREE ENERGY PREDICTED BY IDOCK:   -5.90 KCAL/MOL
REMARK 924 INTRA-LIGAND FREE ENERGY PREDICTED BY IDOCK:   -1.91 KCAL/MOL
REMARK 927      BINDING AFFINITY PREDICTED BY RF-SCORE:    0.00 PKD
ROOT
HETATM    1  C   UNL     1      -5.327  11.881  68.937  1.00  0.00    -0.050 C  
HETATM    2  C   UNL     1      -5.836  11.959  67.698  1.00  0.00    -0.083 C  
ENDROOT
BRANCH   1   3
HETATM    3  C   UNL     1      -6.049  11.420  70.173  1.00  0.00    -0.154 C  
BRANCH   3   4
HETATM    4  C   UNL     1      -6.037   9.896  70.300  1.00  0.00    -0.074 C  
BRANCH   4   5
HETATM    5  C   UNL     1      -7.069   9.392  71.309  1.00  0.00     0.045 C  
HETATM    6  O   UNL     1      -9.367   8.861  71.604  1.00  0.00    -0.264 OA 
HETATM    7  C   UNL     1      -8.454   9.319  70.716  1.00  0.00    -0.195 C  
HETATM    8  O   UNL     1      -8.749   9.620  69.569  1.00  0.00    -0.155 OA 
ENDBRANCH   4   5
ENDBRANCH   3   4
ENDBRANCH   1   3
BRANCH   2   9
HETATM    9  C   UNL     1      -7.255  11.660  67.297  1.00  0.00    -0.137 C  
BRANCH   9  10
HETATM   10  C   UNL     1      -7.430  10.768  66.057  1.00  0.00    -0.125 C  
HETATM   11  H   UNL     1     -10.377   8.238  66.244  1.00  0.00     0.000 HD 
HETATM   12  C   UNL     1      -6.701   9.425  66.226  1.00  0.00    -0.075 C  
HETATM   13  O   UNL     1      -9.453   8.025  66.190  1.00  0.00    -0.190 OA 
HETATM   14  O   UNL     1      -6.967   8.840  67.499  1.00  0.00    -0.073 OA 
HETATM   15  C   UNL     1      -7.328   8.545  65.157  1.00  0.00    -0.081 C  
HETATM   16  C   UNL     1      -8.894  10.354  65.740  1.00  0.00    -0.186 C  
HETATM   17  H   UNL     1      -6.516   8.010  67.603  1.00  0.00     0.000 HD 
HETATM   18  C   UNL     1      -8.815   8.887  65.244  1.00  0.00    -0.184 C  
BRANCH  16  19
HETATM   19  C   UNL     1      -9.583  11.266  64.753  1.00  0.00    -0.269 C  
HETATM   20  C   UNL     1     -10.901  11.267  64.487  1.00  0.00    -0.354 C  
BRANCH  20  21
HETATM   21  C   UNL     1     -11.593  12.120  63.458  1.00  0.00    -0.474 C  
HETATM   22  O   UNL     1     -12.647  11.389  62.841  1.00  0.00    -0.970 OA 
HETATM   23  H   UNL     1     -13.084  11.926  62.191  1.00  0.00     0.000 HD 
BRANCH  21  24
HETATM   24  C   UNL     1     -12.185  13.390  64.079  1.00  0.00    -0.466 C  
BRANCH  24  25
HETATM   25  C   UNL     1     -12.282  13.381  65.609  1.00  0.00    -0.510 C  
BRANCH  25  26
HETATM   26  C   UNL     1     -11.602  14.587  66.255  1.00  0.00    -0.364 C  
BRANCH  26  27
HETATM   27  C   UNL     1     -10.240  14.218  66.839  1.00  0.00    -0.266 C  
HETATM   28  C   UNL     1     -10.354  13.903  68.322  1.00  0.00    -0.249 C  
ENDBRANCH  26  27
ENDBRANCH  25  26
ENDBRANCH  24  25
ENDBRANCH  21  24
ENDBRANCH  20  21
ENDBRANCH  16  19
ENDBRANCH   9  10
ENDBRANCH   2   9
TORSDOF 11
ENDMDL
MODEL      263
REMARK 921   NORMALIZED FREE ENERGY PREDICTED BY IDOCK:   -3.29 KCAL/MOL
REMARK 922        TOTAL FREE ENERGY PREDICTED BY IDOCK:   -7.80 KCAL/MOL
REMARK 923 INTER-LIGAND FREE ENERGY PREDICTED BY IDOCK:   -6.08 KCAL/MOL
REMARK 924 INTRA-LIGAND FREE ENERGY PREDICTED BY IDOCK:   -1.72 KCAL/MOL
REMARK 927      BINDING AFFINITY PREDICTED BY RF-SCORE:    0.00 PKD
ROOT
HETATM    1  C   UNL     1     -11.906  12.504  67.200  1.00  0.00    -0.386 C  
HETATM    2  C   UNL     1     -11.891  12.188  65.896  1.00  0.00    -0.342 C  
ENDROOT
BRANCH   1   3
HETATM    3  C   UNL     1     -10.715  12.849  68.050  1.00  0.00    -0.244 C  
BRANCH   3   4
HETATM    4  C   UNL     1     -10.228  14.275  67.788  1.00  0.00    -0.235 C  
BRANCH   4   5
HETATM    5  C   UNL     1      -8.705  14.354  67.681  1.00  0.00    -0.191 C  
HETATM    6  O   UNL     1      -6.851  15.841  67.722  1.00  0.00    -0.127 OA 
HETATM    7  C   UNL     1      -8.200  15.770  67.804  1.00  0.00    -0.144 C  
HETATM    8  O   UNL     1      -8.899  16.758  67.969  1.00  0.00    -0.208 OA 
ENDBRANCH   4   5
ENDBRANCH   3   4
ENDBRANCH   1   3
BRANCH   2   9
HETATM    9  C   UNL     1     -10.672  12.053  65.025  1.00  0.00    -0.341 C  
BRANCH   9  10
HETATM   10  C   UNL     1     -10.256  10.616  64.667  1.00  0.00    -0.404 C  
HETATM   11  H   UNL     1      -6.582   9.692  65.547  1.00  0.00     0.000 HD 
HETATM   12  C   UNL     1      -9.591  10.555  63.282  1.00  0.00    -0.331 C  
HETATM   13  O   UNL     1      -6.961   9.733  64.677  1.00  0.00    -0.111 OA 
HETATM   14  O   UNL     1      -8.613  11.581  63.123  1.00  0.00    -0.450 OA 
HETATM   15  C   UNL     1      -8.875   9.214  63.292  1.00  0.00    -0.095 C  
HETATM   16  C   UNL     1      -9.199   9.978  65.610  1.00  0.00    -0.234 C  
HETATM   17  H   UNL     1      -8.202  11.543  62.267  1.00  0.00     0.000 HD 
HETATM   18  C   UNL     1      -8.266   9.148  64.691  1.00  0.00    -0.152 C  
BRANCH  16  19
HETATM   19  C   UNL     1      -9.799   9.156  66.726  1.00  0.00    -0.291 C  
HETATM   20  C   UNL     1      -9.382   7.933  67.100  1.00  0.00    -0.190 C  
BRANCH  20  21
HETATM   21  C   UNL     1     -10.012   7.072  68.162  1.00  0.00    -0.151 C  
HETATM   22  O   UNL     1     -10.934   7.835  68.931  1.00  0.00    -0.420 OA 
HETATM   23  H   UNL     1     -11.332   7.292  69.601  1.00  0.00     0.000 HD 
BRANCH  21  24
HETATM   24  C   UNL     1     -10.759   5.879  67.555  1.00  0.00    -0.359 C  
BRANCH  24  25
HETATM   25  C   UNL     1     -10.204   5.378  66.216  1.00  0.00    -0.234 C  
BRANCH  25  26
HETATM   26  C   UNL     1      -9.490   4.032  66.334  1.00  0.00    -0.202 C  
BRANCH  26  27
HETATM   27  C   UNL     1      -8.298   3.943  65.384  1.00  0.00    -0.105 C  
HETATM   28  C   UNL     1      -8.446   4.925  64.234  1.00  0.00    -0.137 C  
ENDBRANCH  26  27
ENDBRANCH  25  26
ENDBRANCH  24  25
ENDBRANCH  21  24
ENDBRANCH  20  21
ENDBRANCH  16  19
ENDBRANCH   9  10
ENDBRANCH   2   9
TORSDOF 11
ENDMDL
MODEL      264
REMARK 921   NORMALIZED FREE ENERGY PREDICTED BY IDOCK:   -3.27 KCAL/MOL
REMARK 922        TOTAL FREE ENERGY PREDICTED BY IDOCK:   -7.77 KCAL/MOL
REMARK 923 INTER-LIGAND FREE ENERGY PREDICTED BY IDOCK:   -6.57 KCAL/MOL
REMARK 924 INTRA-LIGAND FREE ENERGY PREDICTED BY IDOCK:   -1.20 KCAL/MOL
REMARK 927      BINDING AFFINITY PREDICTED BY RF-SCORE:    0.00 PKD
ROOT
HETATM    1  C   UNL     1     -10.013  11.778  64.328  1.00  0.00    -0.287 C  
HETATM    2  C   UNL     1      -9.111  10.868  64.724  1.00  0.00    -0.197 C  
ENDROOT
BRANCH   1   3
HETATM    3  C   UNL     1     -10.961  11.652  63.168  1.00  0.00    -0.247 C  
BRANCH   3   4
HETATM    4  C   UNL     1     -12.390  12.027  63.563  1.00  0.00    -0.661 C  
BRANCH   4   5
HETATM    5  C   UNL     1     -12.489  12.468  65.023  1.00  0.00    -0.494 C  
HETATM    6  O   UNL     1     -12.637  14.362  66.453  1.00  0.00    -0.334 OA 
HETATM    7  C   UNL     1     -12.537  13.969  65.161  1.00  0.00    -0.428 C  
HETATM    8  O   UNL     1     -12.502  14.766  64.236  1.00  0.00    -0.661 OA 
ENDBRANCH   4   5
ENDBRANCH   3   4
ENDBRANCH   1   3
BRANCH   2   9
HETATM    9  C   UNL     1      -8.815   9.554  64.053  1.00  0.00    -0.243 C  
BRANCH   9  10
HETATM   10  C   UNL     1      -8.275   8.439  64.963  1.00  0.00    -0.155 C  
HETATM   11  H   UNL     1      -6.559   9.660  68.232  1.00  0.00     0.000 HD 
HETATM   12  C   UNL     1      -6.790   8.156  64.681  1.00  0.00    -0.067 C  
HETATM   13  O   UNL     1      -6.143   9.193  67.517  1.00  0.00    -0.049 OA 
HETATM   14  O   UNL     1      -6.033   9.362  64.599  1.00  0.00    -0.068 OA 
HETATM   15  C   UNL     1      -6.335   7.392  65.913  1.00  0.00    -0.041 C  
HETATM   16  C   UNL     1      -8.306   8.752  66.485  1.00  0.00    -0.112 C  
HETATM   17  H   UNL     1      -5.115   9.187  64.424  1.00  0.00     0.000 HD 
HETATM   18  C   UNL     1      -7.002   8.144  67.063  1.00  0.00    -0.074 C  
BRANCH  16  19
HETATM   19  C   UNL     1      -9.546   8.245  67.183  1.00  0.00    -0.234 C  
HETATM   20  C   UNL     1      -9.566   7.301  68.141  1.00  0.00    -0.145 C  
BRANCH  20  21
HETATM   21  C   UNL     1     -10.796   6.735  68.797  1.00  0.00    -0.231 C  
HETATM   22  O   UNL     1     -11.784   6.437  67.817  1.00  0.00    -0.510 OA 
HETATM   23  H   UNL     1     -12.560   6.080  68.231  1.00  0.00     0.000 HD 
BRANCH  21  24
HETATM   24  C   UNL     1     -10.484   5.451  69.574  1.00  0.00    -0.343 C  
BRANCH  24  25
HETATM   25  C   UNL     1      -9.161   5.465  70.349  1.00  0.00    -0.170 C  
BRANCH  25  26
HETATM   26  C   UNL     1      -9.328   5.089  71.820  1.00  0.00    -0.184 C  
BRANCH  26  27
HETATM   27  C   UNL     1     -10.444   5.895  72.482  1.00  0.00    -0.238 C  
HETATM   28  C   UNL     1     -11.398   4.983  73.236  1.00  0.00    -0.393 C  
ENDBRANCH  26  27
ENDBRANCH  25  26
ENDBRANCH  24  25
ENDBRANCH  21  24
ENDBRANCH  20  21
ENDBRANCH  16  19
ENDBRANCH   9  10
ENDBRANCH   2   9
TORSDOF 11
ENDMDL
MODEL      265
REMARK 921   NORMALIZED FREE ENERGY PREDICTED BY IDOCK:   -3.27 KCAL/MOL
REMARK 922        TOTAL FREE ENERGY PREDICTED BY IDOCK:   -7.76 KCAL/MOL
REMARK 923 INTER-LIGAND FREE ENERGY PREDICTED BY IDOCK:   -6.01 KCAL/MOL
REMARK 924 INTRA-LIGAND FREE ENERGY PREDICTED BY IDOCK:   -1.75 KCAL/MOL
REMARK 927      BINDING AFFINITY PREDICTED BY RF-SCORE:    0.00 PKD
ROOT
HETATM    1  C   UNL     1      -8.967   4.518  68.192  1.00  0.00    -0.140 C  
HETATM    2  C   UNL     1      -8.211   5.081  69.146  1.00  0.00    -0.083 C  
ENDROOT
BRANCH   1   3
HETATM    3  C   UNL     1     -10.325   4.980  67.738  1.00  0.00    -0.116 C  
BRANCH   3   4
HETATM    4  C   UNL     1     -10.224   6.042  66.643  1.00  0.00    -0.246 C  
BRANCH   4   5
HETATM    5  C   UNL     1     -10.585   7.437  67.156  1.00  0.00    -0.413 C  
HETATM    6  O   UNL     1      -9.713   9.600  67.617  1.00  0.00    -0.143 OA 
HETATM    7  C   UNL     1      -9.393   8.361  67.175  1.00  0.00    -0.153 C  
HETATM    8  O   UNL     1      -8.260   8.062  66.829  1.00  0.00    -0.108 OA 
ENDBRANCH   4   5
ENDBRANCH   3   4
ENDBRANCH   1   3
BRANCH   2   9
HETATM    9  C   UNL     1      -8.589   6.256  70.007  1.00  0.00    -0.134 C  
BRANCH   9  10
HETATM   10  C   UNL     1      -9.957   6.168  70.702  1.00  0.00    -0.229 C  
HETATM   11  H   UNL     1     -10.215   8.067  74.087  1.00  0.00     0.000 HD 
HETATM   12  C   UNL     1      -9.994   5.019  71.723  1.00  0.00    -0.191 C  
HETATM   13  O   UNL     1     -10.289   7.129  73.959  1.00  0.00    -0.349 OA 
HETATM   14  O   UNL     1      -8.834   5.016  72.553  1.00  0.00    -0.122 OA 
HETATM   15  C   UNL     1     -11.197   5.352  72.589  1.00  0.00    -0.333 C  
HETATM   16  C   UNL     1     -10.356   7.415  71.539  1.00  0.00    -0.216 C  
HETATM   17  H   UNL     1      -8.857   4.305  73.183  1.00  0.00     0.000 HD 
HETATM   18  C   UNL     1     -11.078   6.862  72.795  1.00  0.00    -0.269 C  
BRANCH  16  19
HETATM   19  C   UNL     1     -11.195   8.414  70.778  1.00  0.00    -0.290 C  
HETATM   20  C   UNL     1     -11.293   9.725  71.066  1.00  0.00    -0.460 C  
BRANCH  20  21
HETATM   21  C   UNL     1     -12.176  10.719  70.363  1.00  0.00    -0.349 C  
HETATM   22  O   UNL     1     -13.076  11.319  71.287  1.00  0.00    -0.348 OA 
HETATM   23  H   UNL     1     -13.633  11.947  70.844  1.00  0.00     0.000 HD 
BRANCH  21  24
HETATM   24  C   UNL     1     -11.359  11.830  69.694  1.00  0.00    -0.287 C  
BRANCH  24  25
HETATM   25  C   UNL     1     -11.903  12.316  68.345  1.00  0.00    -0.358 C  
BRANCH  25  26
HETATM   26  C   UNL     1     -10.920  13.212  67.595  1.00  0.00    -0.282 C  
BRANCH  26  27
HETATM   27  C   UNL     1      -9.492  13.035  68.109  1.00  0.00    -0.218 C  
HETATM   28  C   UNL     1      -8.786  14.376  68.221  1.00  0.00    -0.180 C  
ENDBRANCH  26  27
ENDBRANCH  25  26
ENDBRANCH  24  25
ENDBRANCH  21  24
ENDBRANCH  20  21
ENDBRANCH  16  19
ENDBRANCH   9  10
ENDBRANCH   2   9
TORSDOF 11
ENDMDL
MODEL      266
REMARK 921   NORMALIZED FREE ENERGY PREDICTED BY IDOCK:   -3.25 KCAL/MOL
REMARK 922        TOTAL FREE ENERGY PREDICTED BY IDOCK:   -7.74 KCAL/MOL
REMARK 923 INTER-LIGAND FREE ENERGY PREDICTED BY IDOCK:   -6.88 KCAL/MOL
REMARK 924 INTRA-LIGAND FREE ENERGY PREDICTED BY IDOCK:   -0.85 KCAL/MOL
REMARK 927      BINDING AFFINITY PREDICTED BY RF-SCORE:    0.00 PKD
ROOT
HETATM    1  C   UNL     1      -8.006   9.877  65.484  1.00  0.00    -0.128 C  
HETATM    2  C   UNL     1      -8.896  10.681  64.884  1.00  0.00    -0.204 C  
ENDROOT
BRANCH   1   3
HETATM    3  C   UNL     1      -7.770   9.749  66.963  1.00  0.00    -0.095 C  
BRANCH   3   4
HETATM    4  C   UNL     1      -6.294   9.937  67.318  1.00  0.00    -0.068 C  
BRANCH   4   5
HETATM    5  C   UNL     1      -5.998   9.573  68.773  1.00  0.00    -0.043 C  
HETATM    6  O   UNL     1      -5.996  10.406  70.999  1.00  0.00    -0.240 OA 
HETATM    7  C   UNL     1      -6.244  10.730  69.709  1.00  0.00    -0.092 C  
HETATM    8  O   UNL     1      -6.633  11.839  69.376  1.00  0.00    -0.104 OA 
ENDBRANCH   4   5
ENDBRANCH   3   4
ENDBRANCH   1   3
BRANCH   2   9
HETATM    9  C   UNL     1      -9.804  11.671  65.564  1.00  0.00    -0.264 C  
BRANCH   9  10
HETATM   10  C   UNL     1     -10.416  12.754  64.661  1.00  0.00    -0.373 C  
HETATM   11  H   UNL     1     -13.401  14.706  66.212  1.00  0.00     0.000 HD 
HETATM   12  C   UNL     1     -11.614  12.209  63.866  1.00  0.00    -0.448 C  
HETATM   13  O   UNL     1     -13.432  14.140  65.449  1.00  0.00    -0.648 OA 
HETATM   14  O   UNL     1     -12.504  11.469  64.699  1.00  0.00     0.047 OA 
HETATM   15  C   UNL     1     -12.332  13.465  63.402  1.00  0.00    -0.343 C  
HETATM   16  C   UNL     1     -11.000  13.986  65.406  1.00  0.00    -0.321 C  
HETATM   17  H   UNL     1     -13.244  11.132  64.208  1.00  0.00     0.000 HD 
HETATM   18  C   UNL     1     -12.284  14.375  64.629  1.00  0.00    -0.464 C  
BRANCH  16  19
HETATM   19  C   UNL     1     -10.026  15.134  65.536  1.00  0.00    -0.384 C  
HETATM   20  C   UNL     1     -10.024  16.041  66.529  1.00  0.00    -0.293 C  
BRANCH  20  21
HETATM   21  C   UNL     1      -9.108  17.229  66.637  1.00  0.00    -0.265 C  
HETATM   22  O   UNL     1      -9.728  18.382  66.079  1.00  0.00    -0.491 OA 
HETATM   23  H   UNL     1      -9.150  19.132  66.147  1.00  0.00     0.000 HD 
BRANCH  21  24
HETATM   24  C   UNL     1      -8.744  17.535  68.094  1.00  0.00    -0.262 C  
BRANCH  24  25
HETATM   25  C   UNL     1      -8.431  19.006  68.392  1.00  0.00    -0.383 C  
BRANCH  25  26
HETATM   26  C   UNL     1      -7.166  19.187  69.230  1.00  0.00    -0.283 C  
BRANCH  26  27
HETATM   27  C   UNL     1      -6.221  20.212  68.606  1.00  0.00    -0.327 C  
HETATM   28  C   UNL     1      -6.810  20.785  67.327  1.00  0.00    -0.405 C  
ENDBRANCH  26  27
ENDBRANCH  25  26
ENDBRANCH  24  25
ENDBRANCH  21  24
ENDBRANCH  20  21
ENDBRANCH  16  19
ENDBRANCH   9  10
ENDBRANCH   2   9
TORSDOF 11
ENDMDL
MODEL      267
REMARK 921   NORMALIZED FREE ENERGY PREDICTED BY IDOCK:   -3.23 KCAL/MOL
REMARK 922        TOTAL FREE ENERGY PREDICTED BY IDOCK:   -7.71 KCAL/MOL
REMARK 923 INTER-LIGAND FREE ENERGY PREDICTED BY IDOCK:   -6.00 KCAL/MOL
REMARK 924 INTRA-LIGAND FREE ENERGY PREDICTED BY IDOCK:   -1.70 KCAL/MOL
REMARK 927      BINDING AFFINITY PREDICTED BY RF-SCORE:    0.00 PKD
ROOT
HETATM    1  C   UNL     1      -7.278  16.678  68.171  1.00  0.00    -0.160 C  
HETATM    2  C   UNL     1      -8.558  16.404  68.462  1.00  0.00    -0.223 C  
ENDROOT
BRANCH   1   3
HETATM    3  C   UNL     1      -6.662  16.722  66.800  1.00  0.00    -0.257 C  
BRANCH   3   4
HETATM    4  C   UNL     1      -7.146  17.934  66.001  1.00  0.00    -0.340 C  
BRANCH   4   5
HETATM    5  C   UNL     1      -6.623  19.251  66.576  1.00  0.00    -0.198 C  
HETATM    6  O   UNL     1      -7.283  21.342  67.493  1.00  0.00    -0.499 OA 
HETATM    7  C   UNL     1      -7.743  20.181  66.972  1.00  0.00    -0.315 C  
HETATM    8  O   UNL     1      -8.935  19.941  66.859  1.00  0.00    -0.317 OA 
ENDBRANCH   4   5
ENDBRANCH   3   4
ENDBRANCH   1   3
BRANCH   2   9
HETATM    9  C   UNL     1      -9.634  16.023  67.482  1.00  0.00    -0.222 C  
BRANCH   9  10
HETATM   10  C   UNL     1     -10.256  14.630  67.673  1.00  0.00    -0.232 C  
HETATM   11  H   UNL     1      -9.433  12.055  64.877  1.00  0.00     0.000 HD 
HETATM   12  C   UNL     1     -11.597  14.509  66.931  1.00  0.00    -0.385 C  
HETATM   13  O   UNL     1     -10.292  12.400  65.091  1.00  0.00    -0.276 OA 
HETATM   14  O   UNL     1     -11.508  15.011  65.599  1.00  0.00    -0.331 OA 
HETATM   15  C   UNL     1     -11.828  13.009  66.859  1.00  0.00    -0.442 C  
HETATM   16  C   UNL     1      -9.419  13.447  67.111  1.00  0.00    -0.244 C  
HETATM   17  H   UNL     1     -12.337  14.937  65.141  1.00  0.00     0.000 HD 
HETATM   18  C   UNL     1     -10.448  12.454  66.512  1.00  0.00    -0.230 C  
BRANCH  16  19
HETATM   19  C   UNL     1      -8.515  12.803  68.136  1.00  0.00    -0.177 C  
HETATM   20  C   UNL     1      -7.577  11.877  67.870  1.00  0.00    -0.128 C  
BRANCH  20  21
HETATM   21  C   UNL     1      -6.717  11.174  68.886  1.00  0.00    -0.077 C  
HETATM   22  O   UNL     1      -7.384  11.119  70.142  1.00  0.00    -0.409 OA 
HETATM   23  H   UNL     1      -6.842  10.675  70.783  1.00  0.00     0.000 HD 
BRANCH  21  24
HETATM   24  C   UNL     1      -6.382   9.743  68.453  1.00  0.00    -0.054 C  
BRANCH  24  25
HETATM   25  C   UNL     1      -5.917   9.595  67.000  1.00  0.00    -0.055 C  
BRANCH  25  26
HETATM   26  C   UNL     1      -6.842   8.711  66.165  1.00  0.00    -0.073 C  
BRANCH  26  27
HETATM   27  C   UNL     1      -7.991   8.152  67.002  1.00  0.00    -0.104 C  
HETATM   28  C   UNL     1      -9.329   8.664  66.498  1.00  0.00    -0.257 C  
ENDBRANCH  26  27
ENDBRANCH  25  26
ENDBRANCH  24  25
ENDBRANCH  21  24
ENDBRANCH  20  21
ENDBRANCH  16  19
ENDBRANCH   9  10
ENDBRANCH   2   9
TORSDOF 11
ENDMDL
MODEL      268
REMARK 921   NORMALIZED FREE ENERGY PREDICTED BY IDOCK:   -3.23 KCAL/MOL
REMARK 922        TOTAL FREE ENERGY PREDICTED BY IDOCK:   -7.70 KCAL/MOL
REMARK 923 INTER-LIGAND FREE ENERGY PREDICTED BY IDOCK:   -6.71 KCAL/MOL
REMARK 924 INTRA-LIGAND FREE ENERGY PREDICTED BY IDOCK:   -0.99 KCAL/MOL
REMARK 927      BINDING AFFINITY PREDICTED BY RF-SCORE:    0.00 PKD
ROOT
HETATM    1  C   UNL     1      -9.379   9.222  70.174  1.00  0.00    -0.258 C  
HETATM    2  C   UNL     1      -9.134  10.256  69.356  1.00  0.00    -0.203 C  
ENDROOT
BRANCH   1   3
HETATM    3  C   UNL     1      -9.895   7.867  69.774  1.00  0.00    -0.179 C  
BRANCH   3   4
HETATM    4  C   UNL     1      -9.499   6.790  70.785  1.00  0.00    -0.167 C  
BRANCH   4   5
HETATM    5  C   UNL     1     -10.716   6.089  71.390  1.00  0.00    -0.314 C  
HETATM    6  O   UNL     1     -11.569   5.087  73.369  1.00  0.00    -0.291 OA 
HETATM    7  C   UNL     1     -10.488   5.696  72.828  1.00  0.00    -0.211 C  
HETATM    8  O   UNL     1      -9.465   5.899  73.463  1.00  0.00    -0.138 OA 
ENDBRANCH   4   5
ENDBRANCH   3   4
ENDBRANCH   1   3
BRANCH   2   9
HETATM    9  C   UNL     1      -9.383  10.298  67.872  1.00  0.00    -0.147 C  
BRANCH   9  10
HETATM   10  C   UNL     1      -9.915  11.629  67.316  1.00  0.00    -0.210 C  
HETATM   11  H   UNL     1     -11.594  13.962  69.937  1.00  0.00     0.000 HD 
HETATM   12  C   UNL     1     -11.403  11.525  66.944  1.00  0.00    -0.253 C  
HETATM   13  O   UNL     1     -12.018  13.552  69.192  1.00  0.00    -0.322 OA 
HETATM   14  O   UNL     1     -12.160  10.895  67.976  1.00  0.00    -0.780 OA 
HETATM   15  C   UNL     1     -11.846  12.976  66.848  1.00  0.00    -0.442 C  
HETATM   16  C   UNL     1      -9.867  12.827  68.305  1.00  0.00    -0.224 C  
HETATM   17  H   UNL     1     -13.080  10.831  67.746  1.00  0.00     0.000 HD 
HETATM   18  C   UNL     1     -11.165  13.635  68.046  1.00  0.00    -0.267 C  
BRANCH  16  19
HETATM   19  C   UNL     1      -8.620  13.670  68.176  1.00  0.00    -0.176 C  
HETATM   20  C   UNL     1      -8.580  15.013  68.254  1.00  0.00    -0.156 C  
BRANCH  20  21
HETATM   21  C   UNL     1      -7.360  15.872  68.058  1.00  0.00    -0.131 C  
HETATM   22  O   UNL     1      -6.395  15.184  67.271  1.00  0.00    -0.312 OA 
HETATM   23  H   UNL     1      -5.625  15.726  67.147  1.00  0.00     0.000 HD 
BRANCH  21  24
HETATM   24  C   UNL     1      -7.703  17.192  67.358  1.00  0.00    -0.191 C  
BRANCH  24  25
HETATM   25  C   UNL     1      -8.536  18.172  68.191  1.00  0.00    -0.282 C  
BRANCH  25  26
HETATM   26  C   UNL     1      -7.912  19.565  68.271  1.00  0.00    -0.368 C  
BRANCH  26  27
HETATM   27  C   UNL     1      -6.444  19.501  68.688  1.00  0.00    -0.303 C  
HETATM   28  C   UNL     1      -5.767  20.847  68.497  1.00  0.00    -0.386 C  
ENDBRANCH  26  27
ENDBRANCH  25  26
ENDBRANCH  24  25
ENDBRANCH  21  24
ENDBRANCH  20  21
ENDBRANCH  16  19
ENDBRANCH   9  10
ENDBRANCH   2   9
TORSDOF 11
ENDMDL
MODEL      269
REMARK 921   NORMALIZED FREE ENERGY PREDICTED BY IDOCK:   -3.23 KCAL/MOL
REMARK 922        TOTAL FREE ENERGY PREDICTED BY IDOCK:   -7.70 KCAL/MOL
REMARK 923 INTER-LIGAND FREE ENERGY PREDICTED BY IDOCK:   -6.47 KCAL/MOL
REMARK 924 INTRA-LIGAND FREE ENERGY PREDICTED BY IDOCK:   -1.23 KCAL/MOL
REMARK 927      BINDING AFFINITY PREDICTED BY RF-SCORE:    0.00 PKD
ROOT
HETATM    1  C   UNL     1     -10.372   9.376  70.571  1.00  0.00    -0.341 C  
HETATM    2  C   UNL     1      -9.790  10.322  69.818  1.00  0.00    -0.201 C  
ENDROOT
BRANCH   1   3
HETATM    3  C   UNL     1     -10.792   8.005  70.118  1.00  0.00    -0.242 C  
BRANCH   3   4
HETATM    4  C   UNL     1      -9.986   6.908  70.818  1.00  0.00    -0.201 C  
BRANCH   4   5
HETATM    5  C   UNL     1      -8.578   7.374  71.190  1.00  0.00    -0.122 C  
HETATM    6  O   UNL     1      -6.287   7.252  70.568  1.00  0.00    -0.037 OA 
HETATM    7  C   UNL     1      -7.534   6.831  70.248  1.00  0.00    -0.090 C  
HETATM    8  O   UNL     1      -7.753   6.103  69.291  1.00  0.00    -0.095 OA 
ENDBRANCH   4   5
ENDBRANCH   3   4
ENDBRANCH   1   3
BRANCH   2   9
HETATM    9  C   UNL     1      -9.491  10.231  68.346  1.00  0.00    -0.149 C  
BRANCH   9  10
HETATM   10  C   UNL     1      -9.876  11.459  67.504  1.00  0.00    -0.194 C  
HETATM   11  H   UNL     1     -11.703  14.290  69.447  1.00  0.00     0.000 HD 
HETATM   12  C   UNL     1     -11.315  11.345  66.976  1.00  0.00    -0.236 C  
HETATM   13  O   UNL     1     -12.062  13.768  68.739  1.00  0.00    -0.357 OA 
HETATM   14  O   UNL     1     -12.221  10.942  68.001  1.00  0.00    -0.695 OA 
HETATM   15  C   UNL     1     -11.658  12.770  66.572  1.00  0.00    -0.435 C  
HETATM   16  C   UNL     1      -9.871  12.813  68.265  1.00  0.00    -0.224 C  
HETATM   17  H   UNL     1     -13.111  10.872  67.674  1.00  0.00     0.000 HD 
HETATM   18  C   UNL     1     -11.081  13.609  67.711  1.00  0.00    -0.272 C  
BRANCH  16  19
HETATM   19  C   UNL     1      -8.569  13.572  68.145  1.00  0.00    -0.173 C  
HETATM   20  C   UNL     1      -8.460  14.901  67.972  1.00  0.00    -0.151 C  
BRANCH  20  21
HETATM   21  C   UNL     1      -7.176  15.663  67.780  1.00  0.00    -0.155 C  
HETATM   22  O   UNL     1      -6.150  14.790  67.323  1.00  0.00    -0.306 OA 
HETATM   23  H   UNL     1      -5.339  15.271  67.202  1.00  0.00     0.000 HD 
BRANCH  21  24
HETATM   24  C   UNL     1      -7.337  16.796  66.761  1.00  0.00    -0.275 C  
BRANCH  24  25
HETATM   25  C   UNL     1      -8.774  17.054  66.296  1.00  0.00    -0.285 C  
BRANCH  25  26
HETATM   26  C   UNL     1      -9.271  18.456  66.645  1.00  0.00    -0.305 C  
BRANCH  26  27
HETATM   27  C   UNL     1      -9.803  18.525  68.075  1.00  0.00    -0.370 C  
HETATM   28  C   UNL     1     -10.159  19.953  68.454  1.00  0.00    -0.557 C  
ENDBRANCH  26  27
ENDBRANCH  25  26
ENDBRANCH  24  25
ENDBRANCH  21  24
ENDBRANCH  20  21
ENDBRANCH  16  19
ENDBRANCH   9  10
ENDBRANCH   2   9
TORSDOF 11
ENDMDL
MODEL      270
REMARK 921   NORMALIZED FREE ENERGY PREDICTED BY IDOCK:   -3.21 KCAL/MOL
REMARK 922        TOTAL FREE ENERGY PREDICTED BY IDOCK:   -7.67 KCAL/MOL
REMARK 923 INTER-LIGAND FREE ENERGY PREDICTED BY IDOCK:   -6.70 KCAL/MOL
REMARK 924 INTRA-LIGAND FREE ENERGY PREDICTED BY IDOCK:   -0.98 KCAL/MOL
REMARK 927      BINDING AFFINITY PREDICTED BY RF-SCORE:    0.00 PKD
ROOT
HETATM    1  C   UNL     1     -11.133  14.752  66.959  1.00  0.00    -0.333 C  
HETATM    2  C   UNL     1     -11.752  14.970  68.128  1.00  0.00    -0.335 C  
ENDROOT
BRANCH   1   3
HETATM    3  C   UNL     1      -9.687  15.023  66.647  1.00  0.00    -0.273 C  
BRANCH   3   4
HETATM    4  C   UNL     1      -9.408  16.521  66.518  1.00  0.00    -0.295 C  
BRANCH   4   5
HETATM    5  C   UNL     1     -10.345  17.199  65.517  1.00  0.00    -0.132 C  
HETATM    6  O   UNL     1     -11.496  19.221  65.028  1.00  0.00     0.366 OA 
HETATM    7  C   UNL     1     -10.677  18.614  65.919  1.00  0.00    -0.227 C  
HETATM    8  O   UNL     1     -10.264  19.181  66.919  1.00  0.00    -0.342 OA 
ENDBRANCH   4   5
ENDBRANCH   3   4
ENDBRANCH   1   3
BRANCH   2   9
HETATM    9  C   UNL     1     -11.143  15.590  69.357  1.00  0.00    -0.291 C  
BRANCH   9  10
HETATM   10  C   UNL     1     -11.298  14.791  70.661  1.00  0.00    -0.234 C  
HETATM   11  H   UNL     1     -14.933  14.527  72.018  1.00  0.00     0.000 HD 
HETATM   12  C   UNL     1     -11.258  15.713  71.891  1.00  0.00    -0.212 C  
HETATM   13  O   UNL     1     -14.202  14.961  72.442  1.00  0.00    -0.464 OA 
HETATM   14  O   UNL     1     -12.094  16.855  71.718  1.00  0.00    -0.269 OA 
HETATM   15  C   UNL     1     -11.849  14.854  72.997  1.00  0.00    -0.271 C  
HETATM   16  C   UNL     1     -12.643  14.030  70.817  1.00  0.00    -0.431 C  
HETATM   17  H   UNL     1     -12.070  17.425  72.478  1.00  0.00     0.000 HD 
HETATM   18  C   UNL     1     -13.026  14.158  72.314  1.00  0.00    -0.382 C  
BRANCH  16  19
HETATM   19  C   UNL     1     -12.585  12.593  70.351  1.00  0.00    -0.115 C  
HETATM   20  C   UNL     1     -12.162  11.554  71.092  1.00  0.00    -0.287 C  
BRANCH  20  21
HETATM   21  C   UNL     1     -12.032  10.131  70.623  1.00  0.00    -0.332 C  
HETATM   22  O   UNL     1     -10.725   9.898  70.111  1.00  0.00    -0.263 OA 
HETATM   23  H   UNL     1     -10.642   9.000  69.814  1.00  0.00     0.000 HD 
BRANCH  21  24
HETATM   24  C   UNL     1     -12.291   9.133  71.757  1.00  0.00    -0.444 C  
BRANCH  24  25
HETATM   25  C   UNL     1     -11.035   8.619  72.470  1.00  0.00    -0.221 C  
BRANCH  25  26
HETATM   26  C   UNL     1     -11.060   7.109  72.705  1.00  0.00    -0.330 C  
BRANCH  26  27
HETATM   27  C   UNL     1     -12.062   6.414  71.786  1.00  0.00    -0.351 C  
HETATM   28  C   UNL     1     -11.415   6.034  70.465  1.00  0.00    -0.227 C  
ENDBRANCH  26  27
ENDBRANCH  25  26
ENDBRANCH  24  25
ENDBRANCH  21  24
ENDBRANCH  20  21
ENDBRANCH  16  19
ENDBRANCH   9  10
ENDBRANCH   2   9
TORSDOF 11
ENDMDL
MODEL      271
REMARK 921   NORMALIZED FREE ENERGY PREDICTED BY IDOCK:   -3.20 KCAL/MOL
REMARK 922        TOTAL FREE ENERGY PREDICTED BY IDOCK:   -7.65 KCAL/MOL
REMARK 923 INTER-LIGAND FREE ENERGY PREDICTED BY IDOCK:   -6.50 KCAL/MOL
REMARK 924 INTRA-LIGAND FREE ENERGY PREDICTED BY IDOCK:   -1.15 KCAL/MOL
REMARK 927      BINDING AFFINITY PREDICTED BY RF-SCORE:    0.00 PKD
ROOT
HETATM    1  C   UNL     1     -10.396   5.982  72.134  1.00  0.00    -0.232 C  
HETATM    2  C   UNL     1     -10.154   5.205  71.067  1.00  0.00    -0.297 C  
ENDROOT
BRANCH   1   3
HETATM    3  C   UNL     1     -10.217   7.473  72.215  1.00  0.00    -0.252 C  
BRANCH   3   4
HETATM    4  C   UNL     1     -11.557   8.195  72.364  1.00  0.00    -0.463 C  
BRANCH   4   5
HETATM    5  C   UNL     1     -11.600   9.503  71.572  1.00  0.00    -0.465 C  
HETATM    6  O   UNL     1     -12.971  11.359  71.001  1.00  0.00    -0.307 OA 
HETATM    7  C   UNL     1     -12.935  10.194  71.691  1.00  0.00    -0.456 C  
HETATM    8  O   UNL     1     -13.889   9.786  72.334  1.00  0.00    -0.330 OA 
ENDBRANCH   4   5
ENDBRANCH   3   4
ENDBRANCH   1   3
BRANCH   2   9
HETATM    9  C   UNL     1      -9.593   5.656  69.745  1.00  0.00    -0.206 C  
BRANCH   9  10
HETATM   10  C   UNL     1      -8.846   7.000  69.754  1.00  0.00    -0.142 C  
HETATM   11  H   UNL     1      -7.166   7.978  66.385  1.00  0.00     0.000 HD 
HETATM   12  C   UNL     1      -7.352   6.808  70.062  1.00  0.00    -0.085 C  
HETATM   13  O   UNL     1      -6.723   7.797  67.205  1.00  0.00    -0.064 OA 
HETATM   14  O   UNL     1      -6.788   5.748  69.292  1.00  0.00    -0.057 OA 
HETATM   15  C   UNL     1      -6.725   8.114  69.604  1.00  0.00    -0.038 C  
HETATM   16  C   UNL     1      -8.846   7.766  68.402  1.00  0.00    -0.130 C  
HETATM   17  H   UNL     1      -5.865   5.629  69.483  1.00  0.00     0.000 HD 
HETATM   18  C   UNL     1      -7.438   8.406  68.284  1.00  0.00    -0.096 C  
BRANCH  16  19
HETATM   19  C   UNL     1      -9.958   8.781  68.280  1.00  0.00    -0.202 C  
HETATM   20  C   UNL     1      -9.907   9.903  67.540  1.00  0.00    -0.209 C  
BRANCH  20  21
HETATM   21  C   UNL     1     -10.977  10.958  67.461  1.00  0.00    -0.293 C  
HETATM   22  O   UNL     1     -12.101  10.579  68.248  1.00  0.00    -0.797 OA 
HETATM   23  H   UNL     1     -12.776  11.244  68.199  1.00  0.00     0.000 HD 
BRANCH  21  24
HETATM   24  C   UNL     1     -10.472  12.316  67.963  1.00  0.00    -0.231 C  
BRANCH  24  25
HETATM   25  C   UNL     1     -10.313  13.390  66.880  1.00  0.00    -0.257 C  
BRANCH  25  26
HETATM   26  C   UNL     1     -10.998  14.707  67.243  1.00  0.00    -0.317 C  
BRANCH  26  27
HETATM   27  C   UNL     1     -10.751  15.779  66.183  1.00  0.00    -0.293 C  
HETATM   28  C   UNL     1      -9.888  16.901  66.738  1.00  0.00    -0.284 C  
ENDBRANCH  26  27
ENDBRANCH  25  26
ENDBRANCH  24  25
ENDBRANCH  21  24
ENDBRANCH  20  21
ENDBRANCH  16  19
ENDBRANCH   9  10
ENDBRANCH   2   9
TORSDOF 11
ENDMDL
MODEL      272
REMARK 921   NORMALIZED FREE ENERGY PREDICTED BY IDOCK:   -3.18 KCAL/MOL
REMARK 922        TOTAL FREE ENERGY PREDICTED BY IDOCK:   -7.61 KCAL/MOL
REMARK 923 INTER-LIGAND FREE ENERGY PREDICTED BY IDOCK:   -5.83 KCAL/MOL
REMARK 924 INTRA-LIGAND FREE ENERGY PREDICTED BY IDOCK:   -1.79 KCAL/MOL
REMARK 927      BINDING AFFINITY PREDICTED BY RF-SCORE:    0.00 PKD
ROOT
HETATM    1  C   UNL     1      -9.842  15.093  68.130  1.00  0.00    -0.218 C  
HETATM    2  C   UNL     1      -8.545  14.823  67.923  1.00  0.00    -0.166 C  
ENDROOT
BRANCH   1   3
HETATM    3  C   UNL     1     -10.558  15.086  69.453  1.00  0.00    -0.262 C  
BRANCH   3   4
HETATM    4  C   UNL     1     -11.967  14.504  69.329  1.00  0.00    -0.355 C  
BRANCH   4   5
HETATM    5  C   UNL     1     -12.031  13.355  68.322  1.00  0.00    -0.352 C  
HETATM    6  O   UNL     1     -12.171  10.991  68.110  1.00  0.00    -0.578 OA 
HETATM    7  C   UNL     1     -12.101  12.009  69.000  1.00  0.00    -0.166 C  
HETATM    8  O   UNL     1     -12.107  11.825  70.207  1.00  0.00    -0.338 OA 
ENDBRANCH   4   5
ENDBRANCH   3   4
ENDBRANCH   1   3
BRANCH   2   9
HETATM    9  C   UNL     1      -7.546  14.395  68.965  1.00  0.00    -0.106 C  
BRANCH   9  10
HETATM   10  C   UNL     1      -6.771  13.103  68.663  1.00  0.00    -0.096 C  
HETATM   11  H   UNL     1      -8.099   9.920  70.461  1.00  0.00     0.000 HD 
HETATM   12  C   UNL     1      -5.684  12.843  69.718  1.00  0.00    -0.112 C  
HETATM   13  O   UNL     1      -7.249  10.327  70.587  1.00  0.00    -0.306 OA 
HETATM   14  O   UNL     1      -6.185  13.013  71.043  1.00  0.00    -0.527 OA 
HETATM   15  C   UNL     1      -5.345  11.374  69.524  1.00  0.00    -0.049 C  
HETATM   16  C   UNL     1      -7.619  11.801  68.682  1.00  0.00    -0.125 C  
HETATM   17  H   UNL     1      -5.513  12.853  71.695  1.00  0.00     0.000 HD 
HETATM   18  C   UNL     1      -6.710  10.719  69.322  1.00  0.00    -0.081 C  
BRANCH  16  19
HETATM   19  C   UNL     1      -8.138  11.395  67.322  1.00  0.00    -0.148 C  
HETATM   20  C   UNL     1      -9.151  11.993  66.669  1.00  0.00    -0.205 C  
BRANCH  20  21
HETATM   21  C   UNL     1      -9.727  11.560  65.349  1.00  0.00    -0.233 C  
HETATM   22  O   UNL     1     -10.018  12.695  64.542  1.00  0.00    -0.504 OA 
HETATM   23  H   UNL     1     -10.382  12.422  63.708  1.00  0.00     0.000 HD 
BRANCH  21  24
HETATM   24  C   UNL     1      -8.759  10.655  64.577  1.00  0.00    -0.154 C  
BRANCH  24  25
HETATM   25  C   UNL     1      -9.141   9.171  64.548  1.00  0.00    -0.065 C  
BRANCH  25  26
HETATM   26  C   UNL     1      -8.227   8.304  65.413  1.00  0.00    -0.146 C  
BRANCH  26  27
HETATM   27  C   UNL     1      -8.972   7.732  66.618  1.00  0.00    -0.175 C  
HETATM   28  C   UNL     1     -10.376   8.306  66.711  1.00  0.00    -0.361 C  
ENDBRANCH  26  27
ENDBRANCH  25  26
ENDBRANCH  24  25
ENDBRANCH  21  24
ENDBRANCH  20  21
ENDBRANCH  16  19
ENDBRANCH   9  10
ENDBRANCH   2   9
TORSDOF 11
ENDMDL
MODEL      273
REMARK 921   NORMALIZED FREE ENERGY PREDICTED BY IDOCK:   -3.16 KCAL/MOL
REMARK 922        TOTAL FREE ENERGY PREDICTED BY IDOCK:   -7.59 KCAL/MOL
REMARK 923 INTER-LIGAND FREE ENERGY PREDICTED BY IDOCK:   -5.68 KCAL/MOL
REMARK 924 INTRA-LIGAND FREE ENERGY PREDICTED BY IDOCK:   -1.91 KCAL/MOL
REMARK 927      BINDING AFFINITY PREDICTED BY RF-SCORE:    0.00 PKD
ROOT
HETATM    1  C   UNL     1      -9.093   5.894  67.886  1.00  0.00    -0.109 C  
HETATM    2  C   UNL     1      -9.864   6.988  67.797  1.00  0.00    -0.166 C  
ENDROOT
BRANCH   1   3
HETATM    3  C   UNL     1      -8.366   5.217  66.758  1.00  0.00    -0.108 C  
BRANCH   3   4
HETATM    4  C   UNL     1      -9.027   3.893  66.373  1.00  0.00    -0.133 C  
BRANCH   4   5
HETATM    5  C   UNL     1      -9.902   4.025  65.126  1.00  0.00    -0.203 C  
HETATM    6  O   UNL     1     -10.013   3.556  62.799  1.00  0.00    -0.115 OA 
HETATM    7  C   UNL     1      -9.235   3.452  63.901  1.00  0.00    -0.118 C  
HETATM    8  O   UNL     1      -8.127   2.937  63.874  1.00  0.00    -0.081 OA 
ENDBRANCH   4   5
ENDBRANCH   3   4
ENDBRANCH   1   3
BRANCH   2   9
HETATM    9  C   UNL     1     -10.212   7.733  66.537  1.00  0.00    -0.195 C  
BRANCH   9  10
HETATM   10  C   UNL     1      -9.407   9.015  66.269  1.00  0.00    -0.284 C  
HETATM   11  H   UNL     1     -10.506  11.029  63.128  1.00  0.00     0.000 HD 
HETATM   12  C   UNL     1      -8.251   8.756  65.289  1.00  0.00    -0.144 C  
HETATM   13  O   UNL     1      -9.667  10.604  63.261  1.00  0.00    -0.304 OA 
HETATM   14  O   UNL     1      -8.680   8.001  64.158  1.00  0.00    -0.381 OA 
HETATM   15  C   UNL     1      -7.869  10.148  64.814  1.00  0.00    -0.146 C  
HETATM   16  C   UNL     1     -10.203  10.169  65.598  1.00  0.00    -0.288 C  
HETATM   17  H   UNL     1      -7.965   7.840  63.553  1.00  0.00     0.000 HD 
HETATM   18  C   UNL     1      -9.218  10.832  64.600  1.00  0.00    -0.219 C  
BRANCH  16  19
HETATM   19  C   UNL     1     -10.786  11.156  66.583  1.00  0.00    -0.308 C  
HETATM   20  C   UNL     1     -11.209  10.855  67.824  1.00  0.00    -0.384 C  
BRANCH  20  21
HETATM   21  C   UNL     1     -11.855  11.809  68.791  1.00  0.00    -0.320 C  
HETATM   22  O   UNL     1     -11.170  11.788  70.037  1.00  0.00    -0.489 OA 
HETATM   23  H   UNL     1     -11.578  12.390  70.648  1.00  0.00     0.000 HD 
BRANCH  21  24
HETATM   24  C   UNL     1     -11.847  13.248  68.260  1.00  0.00    -0.389 C  
BRANCH  24  25
HETATM   25  C   UNL     1     -10.704  14.126  68.781  1.00  0.00    -0.265 C  
BRANCH  25  26
HETATM   26  C   UNL     1      -9.561  14.273  67.778  1.00  0.00    -0.221 C  
BRANCH  26  27
HETATM   27  C   UNL     1      -8.215  13.910  68.402  1.00  0.00    -0.153 C  
HETATM   28  C   UNL     1      -7.553  12.772  67.642  1.00  0.00    -0.152 C  
ENDBRANCH  26  27
ENDBRANCH  25  26
ENDBRANCH  24  25
ENDBRANCH  21  24
ENDBRANCH  20  21
ENDBRANCH  16  19
ENDBRANCH   9  10
ENDBRANCH   2   9
TORSDOF 11
ENDMDL
MODEL      274
REMARK 921   NORMALIZED FREE ENERGY PREDICTED BY IDOCK:   -3.16 KCAL/MOL
REMARK 922        TOTAL FREE ENERGY PREDICTED BY IDOCK:   -7.58 KCAL/MOL
REMARK 923 INTER-LIGAND FREE ENERGY PREDICTED BY IDOCK:   -6.37 KCAL/MOL
REMARK 924 INTRA-LIGAND FREE ENERGY PREDICTED BY IDOCK:   -1.21 KCAL/MOL
REMARK 927      BINDING AFFINITY PREDICTED BY RF-SCORE:    0.00 PKD
ROOT
HETATM    1  C   UNL     1      -9.705  11.458  68.931  1.00  0.00    -0.105 C  
HETATM    2  C   UNL     1      -8.873  11.922  67.986  1.00  0.00    -0.177 C  
ENDROOT
BRANCH   1   3
HETATM    3  C   UNL     1     -10.647  10.293  68.799  1.00  0.00    -0.231 C  
BRANCH   3   4
HETATM    4  C   UNL     1     -11.266   9.913  70.145  1.00  0.00    -0.347 C  
BRANCH   4   5
HETATM    5  C   UNL     1     -11.085   8.429  70.466  1.00  0.00    -0.267 C  
HETATM    6  O   UNL     1      -9.784   6.879  71.714  1.00  0.00    -0.161 OA 
HETATM    7  C   UNL     1      -9.939   8.191  71.417  1.00  0.00    -0.180 C  
HETATM    8  O   UNL     1      -9.221   9.058  71.892  1.00  0.00    -0.353 OA 
ENDBRANCH   4   5
ENDBRANCH   3   4
ENDBRANCH   1   3
BRANCH   2   9
HETATM    9  C   UNL     1      -8.752  11.412  66.576  1.00  0.00    -0.181 C  
BRANCH   9  10
HETATM   10  C   UNL     1      -9.423  12.269  65.490  1.00  0.00    -0.029 C  
HETATM   11  H   UNL     1     -13.204  12.985  66.053  1.00  0.00     0.000 HD 
HETATM   12  C   UNL     1     -10.088  11.392  64.417  1.00  0.00    -0.291 C  
HETATM   13  O   UNL     1     -12.825  12.487  65.339  1.00  0.00    -0.554 OA 
HETATM   14  O   UNL     1     -10.862  10.345  64.999  1.00  0.00     0.039 OA 
HETATM   15  C   UNL     1     -11.037  12.349  63.714  1.00  0.00    -0.506 C  
HETATM   16  C   UNL     1     -10.579  13.181  65.986  1.00  0.00    -0.291 C  
HETATM   17  H   UNL     1     -11.273   9.802  64.336  1.00  0.00     0.000 HD 
HETATM   18  C   UNL     1     -11.649  13.149  64.863  1.00  0.00    -0.323 C  
BRANCH  16  19
HETATM   19  C   UNL     1     -10.139  14.584  66.332  1.00  0.00    -0.293 C  
HETATM   20  C   UNL     1     -10.695  15.712  65.853  1.00  0.00    -0.336 C  
BRANCH  20  21
HETATM   21  C   UNL     1     -10.226  17.114  66.131  1.00  0.00    -0.334 C  
HETATM   22  O   UNL     1     -10.904  17.644  67.264  1.00  0.00    -0.275 OA 
HETATM   23  H   UNL     1     -10.608  18.529  67.440  1.00  0.00     0.000 HD 
BRANCH  21  24
HETATM   24  C   UNL     1      -8.719  17.164  66.403  1.00  0.00    -0.291 C  
BRANCH  24  25
HETATM   25  C   UNL     1      -8.238  18.396  67.178  1.00  0.00    -0.248 C  
BRANCH  25  26
HETATM   26  C   UNL     1      -7.859  18.080  68.624  1.00  0.00    -0.298 C  
BRANCH  26  27
HETATM   27  C   UNL     1      -7.177  16.719  68.741  1.00  0.00    -0.217 C  
HETATM   28  C   UNL     1      -5.739  16.789  68.254  1.00  0.00    -0.118 C  
ENDBRANCH  26  27
ENDBRANCH  25  26
ENDBRANCH  24  25
ENDBRANCH  21  24
ENDBRANCH  20  21
ENDBRANCH  16  19
ENDBRANCH   9  10
ENDBRANCH   2   9
TORSDOF 11
ENDMDL
MODEL      275
REMARK 921   NORMALIZED FREE ENERGY PREDICTED BY IDOCK:   -3.13 KCAL/MOL
REMARK 922        TOTAL FREE ENERGY PREDICTED BY IDOCK:   -7.54 KCAL/MOL
REMARK 923 INTER-LIGAND FREE ENERGY PREDICTED BY IDOCK:   -6.00 KCAL/MOL
REMARK 924 INTRA-LIGAND FREE ENERGY PREDICTED BY IDOCK:   -1.53 KCAL/MOL
REMARK 927      BINDING AFFINITY PREDICTED BY RF-SCORE:    0.00 PKD
ROOT
HETATM    1  C   UNL     1      -8.196   5.075  68.461  1.00  0.00    -0.085 C  
HETATM    2  C   UNL     1      -7.817   5.797  67.395  1.00  0.00    -0.102 C  
ENDROOT
BRANCH   1   3
HETATM    3  C   UNL     1      -9.584   4.986  69.033  1.00  0.00    -0.214 C  
BRANCH   3   4
HETATM    4  C   UNL     1      -9.965   6.258  69.793  1.00  0.00    -0.204 C  
BRANCH   4   5
HETATM    5  C   UNL     1     -11.434   6.631  69.595  1.00  0.00    -0.358 C  
HETATM    6  O   UNL     1     -13.504   6.946  70.720  1.00  0.00     0.033 OA 
HETATM    7  C   UNL     1     -12.206   6.604  70.890  1.00  0.00    -0.265 C  
HETATM    8  O   UNL     1     -11.742   6.321  71.985  1.00  0.00    -0.308 OA 
ENDBRANCH   4   5
ENDBRANCH   3   4
ENDBRANCH   1   3
BRANCH   2   9
HETATM    9  C   UNL     1      -8.690   6.716  66.585  1.00  0.00    -0.126 C  
BRANCH   9  10
HETATM   10  C   UNL     1      -8.421   8.221  66.752  1.00  0.00    -0.122 C  
HETATM   11  H   UNL     1      -9.927  10.489  63.975  1.00  0.00     0.000 HD 
HETATM   12  C   UNL     1      -7.172   8.656  65.969  1.00  0.00    -0.084 C  
HETATM   13  O   UNL     1      -9.004  10.365  64.164  1.00  0.00    -0.196 OA 
HETATM   14  O   UNL     1      -7.175   8.133  64.642  1.00  0.00    -0.077 OA 
HETATM   15  C   UNL     1      -7.314  10.167  65.884  1.00  0.00    -0.121 C  
HETATM   16  C   UNL     1      -9.537   9.158  66.213  1.00  0.00    -0.321 C  
HETATM   17  H   UNL     1      -6.403   8.402  64.158  1.00  0.00     0.000 HD 
HETATM   18  C   UNL     1      -8.798  10.366  65.580  1.00  0.00    -0.176 C  
BRANCH  16  19
HETATM   19  C   UNL     1     -10.539   9.574  67.264  1.00  0.00    -0.317 C  
HETATM   20  C   UNL     1     -10.844  10.844  67.586  1.00  0.00    -0.317 C  
BRANCH  20  21
HETATM   21  C   UNL     1     -11.787  11.276  68.676  1.00  0.00    -0.300 C  
HETATM   22  O   UNL     1     -12.091  10.177  69.528  1.00  0.00    -0.498 OA 
HETATM   23  H   UNL     1     -12.686  10.450  70.216  1.00  0.00     0.000 HD 
BRANCH  21  24
HETATM   24  C   UNL     1     -11.189  12.399  69.531  1.00  0.00    -0.171 C  
BRANCH  24  25
HETATM   25  C   UNL     1     -11.648  13.813  69.160  1.00  0.00    -0.363 C  
BRANCH  25  26
HETATM   26  C   UNL     1     -12.732  14.351  70.093  1.00  0.00    -0.259 C  
BRANCH  26  27
HETATM   27  C   UNL     1     -12.352  14.169  71.561  1.00  0.00    -0.395 C  
HETATM   28  C   UNL     1     -13.590  13.984  72.423  1.00  0.00    -0.658 C  
ENDBRANCH  26  27
ENDBRANCH  25  26
ENDBRANCH  24  25
ENDBRANCH  21  24
ENDBRANCH  20  21
ENDBRANCH  16  19
ENDBRANCH   9  10
ENDBRANCH   2   9
TORSDOF 11
ENDMDL
MODEL      276
REMARK 921   NORMALIZED FREE ENERGY PREDICTED BY IDOCK:   -3.11 KCAL/MOL
REMARK 922        TOTAL FREE ENERGY PREDICTED BY IDOCK:   -7.50 KCAL/MOL
REMARK 923 INTER-LIGAND FREE ENERGY PREDICTED BY IDOCK:   -6.34 KCAL/MOL
REMARK 924 INTRA-LIGAND FREE ENERGY PREDICTED BY IDOCK:   -1.17 KCAL/MOL
REMARK 927      BINDING AFFINITY PREDICTED BY RF-SCORE:    0.00 PKD
ROOT
HETATM    1  C   UNL     1      -8.116  14.277  68.600  1.00  0.00    -0.140 C  
HETATM    2  C   UNL     1      -8.484  13.832  67.389  1.00  0.00    -0.209 C  
ENDROOT
BRANCH   1   3
HETATM    3  C   UNL     1      -8.622  15.513  69.291  1.00  0.00    -0.263 C  
BRANCH   3   4
HETATM    4  C   UNL     1     -10.148  15.607  69.234  1.00  0.00    -0.258 C  
BRANCH   4   5
HETATM    5  C   UNL     1     -10.746  16.088  70.556  1.00  0.00    -0.143 C  
HETATM    6  O   UNL     1     -12.447  15.666  72.162  1.00  0.00    -0.358 OA 
HETATM    7  C   UNL     1     -11.924  15.249  70.986  1.00  0.00    -0.343 C  
HETATM    8  O   UNL     1     -12.371  14.292  70.373  1.00  0.00    -0.313 OA 
ENDBRANCH   4   5
ENDBRANCH   3   4
ENDBRANCH   1   3
BRANCH   2   9
HETATM    9  C   UNL     1      -9.436  14.510  66.441  1.00  0.00    -0.316 C  
BRANCH   9  10
HETATM   10  C   UNL     1     -10.724  13.738  66.115  1.00  0.00    -0.283 C  
HETATM   11  H   UNL     1     -11.921  14.005  62.424  1.00  0.00     0.000 HD 
HETATM   12  C   UNL     1     -11.963  14.640  66.234  1.00  0.00    -0.251 C  
HETATM   13  O   UNL     1     -12.381  14.326  63.191  1.00  0.00    -0.531 OA 
HETATM   14  O   UNL     1     -11.765  15.894  65.583  1.00  0.00     0.291 OA 
HETATM   15  C   UNL     1     -13.035  13.874  65.476  1.00  0.00    -0.375 C  
HETATM   16  C   UNL     1     -10.815  13.181  64.667  1.00  0.00    -0.383 C  
HETATM   17  H   UNL     1     -12.531  16.451  65.657  1.00  0.00     0.000 HD 
HETATM   18  C   UNL     1     -12.296  13.359  64.242  1.00  0.00    -0.335 C  
BRANCH  16  19
HETATM   19  C   UNL     1     -10.338  11.754  64.535  1.00  0.00    -0.340 C  
HETATM   20  C   UNL     1      -9.845  11.005  65.537  1.00  0.00    -0.292 C  
BRANCH  20  21
HETATM   21  C   UNL     1      -9.301   9.608  65.409  1.00  0.00    -0.259 C  
HETATM   22  O   UNL     1      -7.924   9.645  65.053  1.00  0.00    -0.112 OA 
HETATM   23  H   UNL     1      -7.581   8.764  64.972  1.00  0.00     0.000 HD 
BRANCH  21  24
HETATM   24  C   UNL     1      -9.440   8.824  66.719  1.00  0.00    -0.249 C  
BRANCH  24  25
HETATM   25  C   UNL     1      -9.508   9.682  67.987  1.00  0.00    -0.146 C  
BRANCH  25  26
HETATM   26  C   UNL     1     -10.863   9.603  68.688  1.00  0.00    -0.203 C  
BRANCH  26  27
HETATM   27  C   UNL     1     -10.869   8.537  69.782  1.00  0.00    -0.177 C  
HETATM   28  C   UNL     1     -10.100   9.011  71.004  1.00  0.00    -0.352 C  
ENDBRANCH  26  27
ENDBRANCH  25  26
ENDBRANCH  24  25
ENDBRANCH  21  24
ENDBRANCH  20  21
ENDBRANCH  16  19
ENDBRANCH   9  10
ENDBRANCH   2   9
TORSDOF 11
ENDMDL
MODEL      277
REMARK 921   NORMALIZED FREE ENERGY PREDICTED BY IDOCK:   -3.10 KCAL/MOL
REMARK 922        TOTAL FREE ENERGY PREDICTED BY IDOCK:   -7.48 KCAL/MOL
REMARK 923 INTER-LIGAND FREE ENERGY PREDICTED BY IDOCK:   -5.94 KCAL/MOL
REMARK 924 INTRA-LIGAND FREE ENERGY PREDICTED BY IDOCK:   -1.55 KCAL/MOL
REMARK 927      BINDING AFFINITY PREDICTED BY RF-SCORE:    0.00 PKD
ROOT
HETATM    1  C   UNL     1      -6.994  12.913  68.709  1.00  0.00    -0.103 C  
HETATM    2  C   UNL     1      -7.768  12.494  67.696  1.00  0.00    -0.151 C  
ENDROOT
BRANCH   1   3
HETATM    3  C   UNL     1      -6.951  14.300  69.288  1.00  0.00    -0.116 C  
BRANCH   3   4
HETATM    4  C   UNL     1      -5.939  15.185  68.557  1.00  0.00    -0.097 C  
BRANCH   4   5
HETATM    5  C   UNL     1      -6.609  16.359  67.842  1.00  0.00    -0.148 C  
HETATM    6  O   UNL     1      -7.341  18.605  68.107  1.00  0.00    -0.242 OA 
HETATM    7  C   UNL     1      -6.760  17.560  68.742  1.00  0.00    -0.225 C  
HETATM    8  O   UNL     1      -6.401  17.620  69.908  1.00  0.00    -0.190 OA 
ENDBRANCH   4   5
ENDBRANCH   3   4
ENDBRANCH   1   3
BRANCH   2   9
HETATM    9  C   UNL     1      -8.712  13.342  66.886  1.00  0.00    -0.152 C  
BRANCH   9  10
HETATM   10  C   UNL     1     -10.165  13.396  67.385  1.00  0.00    -0.237 C  
HETATM   11  H   UNL     1     -12.865  13.575  64.591  1.00  0.00     0.000 HD 
HETATM   12  C   UNL     1     -10.663  14.846  67.500  1.00  0.00    -0.276 C  
HETATM   13  O   UNL     1     -12.681  14.242  65.242  1.00  0.00    -0.554 OA 
HETATM   14  O   UNL     1     -10.338  15.607  66.338  1.00  0.00    -0.276 OA 
HETATM   15  C   UNL     1     -12.174  14.698  67.564  1.00  0.00    -0.081 C  
HETATM   16  C   UNL     1     -11.211  12.722  66.454  1.00  0.00    -0.339 C  
HETATM   17  H   UNL     1     -10.645  16.504  66.410  1.00  0.00     0.000 HD 
HETATM   18  C   UNL     1     -12.469  13.626  66.516  1.00  0.00    -0.285 C  
BRANCH  16  19
HETATM   19  C   UNL     1     -11.507  11.285  66.814  1.00  0.00    -0.077 C  
HETATM   20  C   UNL     1     -10.657  10.452  67.440  1.00  0.00    -0.321 C  
BRANCH  20  21
HETATM   21  C   UNL     1     -10.909   9.000  67.744  1.00  0.00    -0.057 C  
HETATM   22  O   UNL     1     -10.467   8.187  66.663  1.00  0.00    -0.389 OA 
HETATM   23  H   UNL     1     -10.625   7.270  66.854  1.00  0.00     0.000 HD 
BRANCH  21  24
HETATM   24  C   UNL     1     -10.179   8.552  69.015  1.00  0.00    -0.218 C  
BRANCH  24  25
HETATM   25  C   UNL     1      -9.761   9.685  69.959  1.00  0.00    -0.280 C  
BRANCH  25  26
HETATM   26  C   UNL     1     -10.690   9.829  71.164  1.00  0.00    -0.284 C  
BRANCH  26  27
HETATM   27  C   UNL     1     -12.145   9.557  70.787  1.00  0.00    -0.305 C  
HETATM   28  C   UNL     1     -13.079  10.516  71.506  1.00  0.00    -0.532 C  
ENDBRANCH  26  27
ENDBRANCH  25  26
ENDBRANCH  24  25
ENDBRANCH  21  24
ENDBRANCH  20  21
ENDBRANCH  16  19
ENDBRANCH   9  10
ENDBRANCH   2   9
TORSDOF 11
ENDMDL
MODEL      278
REMARK 921   NORMALIZED FREE ENERGY PREDICTED BY IDOCK:   -3.06 KCAL/MOL
REMARK 922        TOTAL FREE ENERGY PREDICTED BY IDOCK:   -7.43 KCAL/MOL
REMARK 923 INTER-LIGAND FREE ENERGY PREDICTED BY IDOCK:   -5.10 KCAL/MOL
REMARK 924 INTRA-LIGAND FREE ENERGY PREDICTED BY IDOCK:   -2.33 KCAL/MOL
REMARK 927      BINDING AFFINITY PREDICTED BY RF-SCORE:    0.00 PKD
ROOT
HETATM    1  C   UNL     1      -7.588  10.360  67.218  1.00  0.00    -0.095 C  
HETATM    2  C   UNL     1      -7.390   9.219  66.542  1.00  0.00    -0.092 C  
ENDROOT
BRANCH   1   3
HETATM    3  C   UNL     1      -8.005  10.487  68.657  1.00  0.00    -0.124 C  
BRANCH   3   4
HETATM    4  C   UNL     1      -9.406  11.087  68.788  1.00  0.00    -0.185 C  
BRANCH   4   5
HETATM    5  C   UNL     1     -10.205  10.447  69.923  1.00  0.00    -0.190 C  
HETATM    6  O   UNL     1     -12.399   9.903  70.659  1.00  0.00    -0.273 OA 
HETATM    7  C   UNL     1     -11.690  10.481  69.661  1.00  0.00    -0.256 C  
HETATM    8  O   UNL     1     -12.223  10.957  68.671  1.00  0.00    -0.533 OA 
ENDBRANCH   4   5
ENDBRANCH   3   4
ENDBRANCH   1   3
BRANCH   2   9
HETATM    9  C   UNL     1      -7.604   7.824  67.065  1.00  0.00    -0.100 C  
BRANCH   9  10
HETATM   10  C   UNL     1      -9.048   7.463  67.449  1.00  0.00    -0.129 C  
HETATM   11  H   UNL     1      -9.588   3.776  68.566  1.00  0.00     0.000 HD 
HETATM   12  C   UNL     1      -9.812   6.866  66.256  1.00  0.00     0.061 C  
HETATM   13  O   UNL     1      -9.962   4.195  67.799  1.00  0.00    -0.104 OA 
HETATM   14  O   UNL     1      -9.042   5.870  65.585  1.00  0.00    -0.272 OA 
HETATM   15  C   UNL     1     -11.006   6.186  66.905  1.00  0.00    -0.384 C  
HETATM   16  C   UNL     1      -9.188   6.379  68.554  1.00  0.00    -0.124 C  
HETATM   17  H   UNL     1      -9.514   5.501  64.847  1.00  0.00     0.000 HD 
HETATM   18  C   UNL     1     -10.405   5.512  68.137  1.00  0.00    -0.176 C  
BRANCH  16  19
HETATM   19  C   UNL     1      -9.327   6.947  69.947  1.00  0.00    -0.150 C  
HETATM   20  C   UNL     1      -8.330   7.057  70.843  1.00  0.00    -0.129 C  
BRANCH  20  21
HETATM   21  C   UNL     1      -8.465   7.555  72.256  1.00  0.00    -0.114 C  
HETATM   22  O   UNL     1      -7.837   8.825  72.393  1.00  0.00    -0.351 OA 
HETATM   23  H   UNL     1      -7.922   9.139  73.286  1.00  0.00     0.000 HD 
BRANCH  21  24
HETATM   24  C   UNL     1      -9.935   7.696  72.670  1.00  0.00    -0.279 C  
BRANCH  24  25
HETATM   25  C   UNL     1     -10.277   7.134  74.055  1.00  0.00    -0.284 C  
BRANCH  25  26
HETATM   26  C   UNL     1     -10.380   5.610  74.070  1.00  0.00    -0.298 C  
BRANCH  26  27
HETATM   27  C   UNL     1     -11.118   5.084  72.841  1.00  0.00    -0.348 C  
HETATM   28  C   UNL     1     -10.386   3.899  72.234  1.00  0.00    -0.170 C  
ENDBRANCH  26  27
ENDBRANCH  25  26
ENDBRANCH  24  25
ENDBRANCH  21  24
ENDBRANCH  20  21
ENDBRANCH  16  19
ENDBRANCH   9  10
ENDBRANCH   2   9
TORSDOF 11
ENDMDL
MODEL      279
REMARK 921   NORMALIZED FREE ENERGY PREDICTED BY IDOCK:   -3.05 KCAL/MOL
REMARK 922        TOTAL FREE ENERGY PREDICTED BY IDOCK:   -7.41 KCAL/MOL
REMARK 923 INTER-LIGAND FREE ENERGY PREDICTED BY IDOCK:   -5.20 KCAL/MOL
REMARK 924 INTRA-LIGAND FREE ENERGY PREDICTED BY IDOCK:   -2.21 KCAL/MOL
REMARK 927      BINDING AFFINITY PREDICTED BY RF-SCORE:    0.00 PKD
ROOT
HETATM    1  C   UNL     1     -10.245  10.579  65.971  1.00  0.00    -0.310 C  
HETATM    2  C   UNL     1     -10.011   9.258  65.939  1.00  0.00    -0.289 C  
ENDROOT
BRANCH   1   3
HETATM    3  C   UNL     1      -9.931  11.516  67.104  1.00  0.00    -0.222 C  
BRANCH   3   4
HETATM    4  C   UNL     1      -8.437  11.834  67.177  1.00  0.00    -0.170 C  
BRANCH   4   5
HETATM    5  C   UNL     1      -7.861  11.586  68.571  1.00  0.00    -0.140 C  
HETATM    6  O   UNL     1      -6.083  12.153  70.044  1.00  0.00    -0.145 OA 
HETATM    7  C   UNL     1      -6.588  12.361  68.805  1.00  0.00    -0.088 C  
HETATM    8  O   UNL     1      -6.054  13.106  67.998  1.00  0.00    -0.089 OA 
ENDBRANCH   4   5
ENDBRANCH   3   4
ENDBRANCH   1   3
BRANCH   2   9
HETATM    9  C   UNL     1      -9.440   8.427  67.057  1.00  0.00    -0.225 C  
BRANCH   9  10
HETATM   10  C   UNL     1      -9.948   6.979  67.145  1.00  0.00    -0.248 C  
HETATM   11  H   UNL     1      -7.309   4.369  68.309  1.00  0.00     0.000 HD 
HETATM   12  C   UNL     1      -9.658   6.203  65.850  1.00  0.00     0.126 C  
HETATM   13  O   UNL     1      -7.735   4.402  67.461  1.00  0.00    -0.083 OA 
HETATM   14  O   UNL     1      -8.316   6.403  65.407  1.00  0.00    -0.142 OA 
HETATM   15  C   UNL     1      -9.810   4.749  66.265  1.00  0.00    -0.236 C  
HETATM   16  C   UNL     1      -9.285   6.110  68.249  1.00  0.00    -0.114 C  
HETATM   17  H   UNL     1      -8.137   5.924  64.607  1.00  0.00     0.000 HD 
HETATM   18  C   UNL     1      -9.125   4.697  67.630  1.00  0.00    -0.118 C  
BRANCH  16  19
HETATM   19  C   UNL     1     -10.052   6.092  69.550  1.00  0.00    -0.246 C  
HETATM   20  C   UNL     1     -11.255   6.661  69.750  1.00  0.00    -0.413 C  
BRANCH  20  21
HETATM   21  C   UNL     1     -12.001   6.713  71.055  1.00  0.00    -0.359 C  
HETATM   22  O   UNL     1     -11.468   5.757  71.965  1.00  0.00    -0.266 OA 
HETATM   23  H   UNL     1     -11.939   5.790  72.789  1.00  0.00     0.000 HD 
BRANCH  21  24
HETATM   24  C   UNL     1     -11.912   8.099  71.704  1.00  0.00    -0.340 C  
BRANCH  24  25
HETATM   25  C   UNL     1     -11.754   9.267  70.724  1.00  0.00    -0.328 C  
BRANCH  25  26
HETATM   26  C   UNL     1     -10.331   9.823  70.684  1.00  0.00    -0.330 C  
BRANCH  26  27
HETATM   27  C   UNL     1      -9.398   9.045  71.609  1.00  0.00    -0.254 C  
HETATM   28  C   UNL     1      -8.066   8.771  70.930  1.00  0.00    -0.174 C  
ENDBRANCH  26  27
ENDBRANCH  25  26
ENDBRANCH  24  25
ENDBRANCH  21  24
ENDBRANCH  20  21
ENDBRANCH  16  19
ENDBRANCH   9  10
ENDBRANCH   2   9
TORSDOF 11
ENDMDL
MODEL      280
REMARK 921   NORMALIZED FREE ENERGY PREDICTED BY IDOCK:   -3.04 KCAL/MOL
REMARK 922        TOTAL FREE ENERGY PREDICTED BY IDOCK:   -7.38 KCAL/MOL
REMARK 923 INTER-LIGAND FREE ENERGY PREDICTED BY IDOCK:   -5.54 KCAL/MOL
REMARK 924 INTRA-LIGAND FREE ENERGY PREDICTED BY IDOCK:   -1.85 KCAL/MOL
REMARK 927      BINDING AFFINITY PREDICTED BY RF-SCORE:    0.00 PKD
ROOT
HETATM    1  C   UNL     1     -11.709  14.539  67.212  1.00  0.00    -0.429 C  
HETATM    2  C   UNL     1     -10.555  15.221  67.271  1.00  0.00    -0.290 C  
ENDROOT
BRANCH   1   3
HETATM    3  C   UNL     1     -12.223  13.750  66.039  1.00  0.00    -0.495 C  
BRANCH   3   4
HETATM    4  C   UNL     1     -11.817  12.278  66.127  1.00  0.00    -0.398 C  
BRANCH   4   5
HETATM    5  C   UNL     1     -11.567  11.833  67.568  1.00  0.00    -0.361 C  
HETATM    6  O   UNL     1      -9.873  11.292  69.145  1.00  0.00    -0.136 OA 
HETATM    7  C   UNL     1     -10.097  11.673  67.866  1.00  0.00    -0.187 C  
HETATM    8  O   UNL     1      -9.189  11.867  67.072  1.00  0.00    -0.180 OA 
ENDBRANCH   4   5
ENDBRANCH   3   4
ENDBRANCH   1   3
BRANCH   2   9
HETATM    9  C   UNL     1      -9.561  15.390  66.155  1.00  0.00    -0.362 C  
BRANCH   9  10
HETATM   10  C   UNL     1      -8.121  15.721  66.580  1.00  0.00    -0.282 C  
HETATM   11  H   UNL     1      -7.805  17.881  69.799  1.00  0.00     0.000 HD 
HETATM   12  C   UNL     1      -7.672  17.082  66.022  1.00  0.00    -0.118 C  
HETATM   13  O   UNL     1      -7.538  18.132  68.923  1.00  0.00    -0.277 OA 
HETATM   14  O   UNL     1      -8.664  18.086  66.223  1.00  0.00    -0.395 OA 
HETATM   15  C   UNL     1      -6.462  17.432  66.872  1.00  0.00    -0.219 C  
HETATM   16  C   UNL     1      -7.898  15.862  68.111  1.00  0.00    -0.134 C  
HETATM   17  H   UNL     1      -8.387  18.927  65.878  1.00  0.00     0.000 HD 
HETATM   18  C   UNL     1      -6.891  17.029  68.282  1.00  0.00    -0.170 C  
BRANCH  16  19
HETATM   19  C   UNL     1      -7.432  14.588  68.776  1.00  0.00    -0.132 C  
HETATM   20  C   UNL     1      -6.271  13.959  68.519  1.00  0.00    -0.093 C  
BRANCH  20  21
HETATM   21  C   UNL     1      -5.823  12.655  69.120  1.00  0.00    -0.080 C  
HETATM   22  O   UNL     1      -6.937  11.952  69.659  1.00  0.00    -0.325 OA 
HETATM   23  H   UNL     1      -6.654  11.128  70.038  1.00  0.00     0.000 HD 
BRANCH  21  24
HETATM   24  C   UNL     1      -5.142  11.756  68.081  1.00  0.00    -0.045 C  
BRANCH  24  25
HETATM   25  C   UNL     1      -6.094  11.044  67.113  1.00  0.00    -0.074 C  
BRANCH  25  26
HETATM   26  C   UNL     1      -5.477  10.810  65.735  1.00  0.00    -0.135 C  
BRANCH  26  27
HETATM   27  C   UNL     1      -6.459  10.121  64.790  1.00  0.00    -0.128 C  
HETATM   28  C   UNL     1      -7.401   9.209  65.557  1.00  0.00    -0.089 C  
ENDBRANCH  26  27
ENDBRANCH  25  26
ENDBRANCH  24  25
ENDBRANCH  21  24
ENDBRANCH  20  21
ENDBRANCH  16  19
ENDBRANCH   9  10
ENDBRANCH   2   9
TORSDOF 11
ENDMDL
MODEL      281
REMARK 921   NORMALIZED FREE ENERGY PREDICTED BY IDOCK:   -3.02 KCAL/MOL
REMARK 922        TOTAL FREE ENERGY PREDICTED BY IDOCK:   -7.35 KCAL/MOL
REMARK 923 INTER-LIGAND FREE ENERGY PREDICTED BY IDOCK:   -6.78 KCAL/MOL
REMARK 924 INTRA-LIGAND FREE ENERGY PREDICTED BY IDOCK:   -0.57 KCAL/MOL
REMARK 927      BINDING AFFINITY PREDICTED BY RF-SCORE:    0.00 PKD
ROOT
HETATM    1  C   UNL     1     -10.257  15.496  68.800  1.00  0.00    -0.212 C  
HETATM    2  C   UNL     1     -10.365  14.460  67.955  1.00  0.00    -0.232 C  
ENDROOT
BRANCH   1   3
HETATM    3  C   UNL     1     -10.680  15.521  70.243  1.00  0.00    -0.352 C  
BRANCH   3   4
HETATM    4  C   UNL     1     -12.179  15.789  70.388  1.00  0.00    -0.388 C  
BRANCH   4   5
HETATM    5  C   UNL     1     -12.947  14.546  70.839  1.00  0.00    -0.424 C  
HETATM    6  O   UNL     1     -14.377  13.680  72.529  1.00  0.00    -0.707 OA 
HETATM    7  C   UNL     1     -13.686  14.775  72.134  1.00  0.00    -0.439 C  
HETATM    8  O   UNL     1     -13.691  15.817  72.771  1.00  0.00    -0.561 OA 
ENDBRANCH   4   5
ENDBRANCH   3   4
ENDBRANCH   1   3
BRANCH   2   9
HETATM    9  C   UNL     1     -10.988  13.124  68.257  1.00  0.00    -0.278 C  
BRANCH   9  10
HETATM   10  C   UNL     1     -11.161  12.176  67.059  1.00  0.00    -0.347 C  
HETATM   11  H   UNL     1      -9.170  13.165  63.867  1.00  0.00     0.000 HD 
HETATM   12  C   UNL     1     -12.272  12.664  66.115  1.00  0.00    -0.209 C  
HETATM   13  O   UNL     1     -10.116  13.129  63.954  1.00  0.00    -0.334 OA 
HETATM   14  O   UNL     1     -12.152  14.058  65.838  1.00  0.00    -0.384 OA 
HETATM   15  C   UNL     1     -12.007  11.899  64.829  1.00  0.00    -0.222 C  
HETATM   16  C   UNL     1      -9.922  12.048  66.130  1.00  0.00    -0.254 C  
HETATM   17  H   UNL     1     -12.839  14.360  65.255  1.00  0.00     0.000 HD 
HETATM   18  C   UNL     1     -10.487  11.959  64.689  1.00  0.00    -0.295 C  
BRANCH  16  19
HETATM   19  C   UNL     1      -9.022  10.885  66.476  1.00  0.00    -0.178 C  
HETATM   20  C   UNL     1      -7.814  10.650  65.933  1.00  0.00    -0.150 C  
BRANCH  20  21
HETATM   21  C   UNL     1      -6.936   9.461  66.214  1.00  0.00    -0.087 C  
HETATM   22  O   UNL     1      -6.072   9.736  67.311  1.00  0.00    -0.054 OA 
HETATM   23  H   UNL     1      -5.518   8.985  67.489  1.00  0.00     0.000 HD 
BRANCH  21  24
HETATM   24  C   UNL     1      -7.761   8.214  66.549  1.00  0.00    -0.093 C  
BRANCH  24  25
HETATM   25  C   UNL     1      -7.992   7.970  68.045  1.00  0.00    -0.128 C  
BRANCH  25  26
HETATM   26  C   UNL     1      -8.582   6.591  68.339  1.00  0.00    -0.119 C  
BRANCH  26  27
HETATM   27  C   UNL     1      -8.840   6.397  69.832  1.00  0.00    -0.142 C  
HETATM   28  C   UNL     1     -10.095   7.136  70.266  1.00  0.00    -0.195 C  
ENDBRANCH  26  27
ENDBRANCH  25  26
ENDBRANCH  24  25
ENDBRANCH  21  24
ENDBRANCH  20  21
ENDBRANCH  16  19
ENDBRANCH   9  10
ENDBRANCH   2   9
TORSDOF 11
ENDMDL
MODEL      282
REMARK 921   NORMALIZED FREE ENERGY PREDICTED BY IDOCK:   -2.99 KCAL/MOL
REMARK 922        TOTAL FREE ENERGY PREDICTED BY IDOCK:   -7.31 KCAL/MOL
REMARK 923 INTER-LIGAND FREE ENERGY PREDICTED BY IDOCK:   -6.11 KCAL/MOL
REMARK 924 INTRA-LIGAND FREE ENERGY PREDICTED BY IDOCK:   -1.20 KCAL/MOL
REMARK 927      BINDING AFFINITY PREDICTED BY RF-SCORE:    0.00 PKD
ROOT
HETATM    1  C   UNL     1      -9.732   9.257  65.788  1.00  0.00    -0.339 C  
HETATM    2  C   UNL     1      -9.984   9.758  67.007  1.00  0.00    -0.259 C  
ENDROOT
BRANCH   1   3
HETATM    3  C   UNL     1      -8.823   9.850  64.748  1.00  0.00    -0.232 C  
BRANCH   3   4
HETATM    4  C   UNL     1      -8.076   8.768  63.967  1.00  0.00    -0.164 C  
BRANCH   4   5
HETATM    5  C   UNL     1      -7.098   7.990  64.848  1.00  0.00    -0.071 C  
HETATM    6  O   UNL     1      -6.647   5.859  65.800  1.00  0.00    -0.044 OA 
HETATM    7  C   UNL     1      -7.518   6.553  65.030  1.00  0.00    -0.085 C  
HETATM    8  O   UNL     1      -8.515   6.040  64.545  1.00  0.00    -0.091 OA 
ENDBRANCH   4   5
ENDBRANCH   3   4
ENDBRANCH   1   3
BRANCH   2   9
HETATM    9  C   UNL     1      -9.458  11.053  67.565  1.00  0.00    -0.175 C  
BRANCH   9  10
HETATM   10  C   UNL     1     -10.055  12.337  66.966  1.00  0.00    -0.225 C  
HETATM   11  H   UNL     1     -11.621  14.791  69.545  1.00  0.00     0.000 HD 
HETATM   12  C   UNL     1     -11.560  12.181  66.697  1.00  0.00    -0.350 C  
HETATM   13  O   UNL     1     -12.081  14.328  68.855  1.00  0.00    -0.330 OA 
HETATM   14  O   UNL     1     -12.236  11.600  67.811  1.00  0.00    -0.560 OA 
HETATM   15  C   UNL     1     -12.043  13.614  66.543  1.00  0.00    -0.469 C  
HETATM   16  C   UNL     1      -9.973  13.593  67.877  1.00  0.00    -0.244 C  
HETATM   17  H   UNL     1     -13.166  11.504  67.644  1.00  0.00     0.000 HD 
HETATM   18  C   UNL     1     -11.303  14.358  67.654  1.00  0.00    -0.329 C  
BRANCH  16  19
HETATM   19  C   UNL     1      -8.757  14.452  67.618  1.00  0.00    -0.191 C  
HETATM   20  C   UNL     1      -7.908  14.898  68.561  1.00  0.00    -0.126 C  
BRANCH  20  21
HETATM   21  C   UNL     1      -6.734  15.810  68.331  1.00  0.00    -0.116 C  
HETATM   22  O   UNL     1      -6.189  15.593  67.034  1.00  0.00    -0.298 OA 
HETATM   23  H   UNL     1      -5.447  16.168  66.888  1.00  0.00     0.000 HD 
BRANCH  21  24
HETATM   24  C   UNL     1      -7.130  17.286  68.447  1.00  0.00    -0.209 C  
BRANCH  24  25
HETATM   25  C   UNL     1      -7.179  18.053  67.120  1.00  0.00    -0.213 C  
BRANCH  25  26
HETATM   26  C   UNL     1      -8.585  18.123  66.525  1.00  0.00    -0.282 C  
BRANCH  26  27
HETATM   27  C   UNL     1      -9.546  18.877  67.441  1.00  0.00    -0.348 C  
HETATM   28  C   UNL     1     -10.628  17.951  67.971  1.00  0.00    -0.366 C  
ENDBRANCH  26  27
ENDBRANCH  25  26
ENDBRANCH  24  25
ENDBRANCH  21  24
ENDBRANCH  20  21
ENDBRANCH  16  19
ENDBRANCH   9  10
ENDBRANCH   2   9
TORSDOF 11
ENDMDL
MODEL      283
REMARK 921   NORMALIZED FREE ENERGY PREDICTED BY IDOCK:   -2.99 KCAL/MOL
REMARK 922        TOTAL FREE ENERGY PREDICTED BY IDOCK:   -7.30 KCAL/MOL
REMARK 923 INTER-LIGAND FREE ENERGY PREDICTED BY IDOCK:   -5.99 KCAL/MOL
REMARK 924 INTRA-LIGAND FREE ENERGY PREDICTED BY IDOCK:   -1.31 KCAL/MOL
REMARK 927      BINDING AFFINITY PREDICTED BY RF-SCORE:    0.00 PKD
ROOT
HETATM    1  C   UNL     1      -9.768  10.029  66.294  1.00  0.00    -0.272 C  
HETATM    2  C   UNL     1      -9.790   8.697  66.453  1.00  0.00    -0.341 C  
ENDROOT
BRANCH   1   3
HETATM    3  C   UNL     1      -9.464  11.052  67.354  1.00  0.00    -0.173 C  
BRANCH   3   4
HETATM    4  C   UNL     1     -10.253  12.344  67.134  1.00  0.00    -0.226 C  
BRANCH   4   5
HETATM    5  C   UNL     1     -10.636  13.018  68.452  1.00  0.00    -0.264 C  
HETATM    6  O   UNL     1     -12.059  14.651  69.432  1.00  0.00    -0.306 OA 
HETATM    7  C   UNL     1     -11.709  14.061  68.265  1.00  0.00    -0.357 C  
HETATM    8  O   UNL     1     -12.232  14.356  67.201  1.00  0.00    -0.390 OA 
ENDBRANCH   4   5
ENDBRANCH   3   4
ENDBRANCH   1   3
BRANCH   2   9
HETATM    9  C   UNL     1      -9.577   7.949  67.741  1.00  0.00    -0.174 C  
BRANCH   9  10
HETATM   10  C   UNL     1     -10.110   6.508  67.779  1.00  0.00    -0.176 C  
HETATM   11  H   UNL     1      -7.520   3.817  68.865  1.00  0.00     0.000 HD 
HETATM   12  C   UNL     1      -9.826   5.772  66.459  1.00  0.00    -0.161 C  
HETATM   13  O   UNL     1      -7.942   3.885  68.016  1.00  0.00    -0.079 OA 
HETATM   14  O   UNL     1      -8.480   5.963  66.029  1.00  0.00    -0.126 OA 
HETATM   15  C   UNL     1     -10.005   4.307  66.824  1.00  0.00    -0.191 C  
HETATM   16  C   UNL     1      -9.466   5.591  68.855  1.00  0.00    -0.165 C  
HETATM   17  H   UNL     1      -8.305   5.509  65.213  1.00  0.00     0.000 HD 
HETATM   18  C   UNL     1      -9.327   4.198  68.189  1.00  0.00    -0.159 C  
BRANCH  16  19
HETATM   19  C   UNL     1     -10.240   5.542  70.152  1.00  0.00    -0.333 C  
HETATM   20  C   UNL     1     -11.244   6.372  70.488  1.00  0.00    -0.414 C  
BRANCH  20  21
HETATM   21  C   UNL     1     -11.978   6.382  71.801  1.00  0.00    -0.316 C  
HETATM   22  O   UNL     1     -11.742   5.170  72.507  1.00  0.00    -0.115 OA 
HETATM   23  H   UNL     1     -12.205   5.176  73.336  1.00  0.00     0.000 HD 
BRANCH  21  24
HETATM   24  C   UNL     1     -11.536   7.552  72.688  1.00  0.00    -0.331 C  
BRANCH  24  25
HETATM   25  C   UNL     1     -10.773   8.666  71.963  1.00  0.00    -0.427 C  
BRANCH  25  26
HETATM   26  C   UNL     1      -9.292   8.713  72.334  1.00  0.00    -0.284 C  
BRANCH  26  27
HETATM   27  C   UNL     1      -8.405   8.298  71.162  1.00  0.00    -0.149 C  
HETATM   28  C   UNL     1      -7.185   7.535  71.648  1.00  0.00    -0.067 C  
ENDBRANCH  26  27
ENDBRANCH  25  26
ENDBRANCH  24  25
ENDBRANCH  21  24
ENDBRANCH  20  21
ENDBRANCH  16  19
ENDBRANCH   9  10
ENDBRANCH   2   9
TORSDOF 11
ENDMDL
MODEL      284
REMARK 921   NORMALIZED FREE ENERGY PREDICTED BY IDOCK:   -2.98 KCAL/MOL
REMARK 922        TOTAL FREE ENERGY PREDICTED BY IDOCK:   -7.29 KCAL/MOL
REMARK 923 INTER-LIGAND FREE ENERGY PREDICTED BY IDOCK:   -5.95 KCAL/MOL
REMARK 924 INTRA-LIGAND FREE ENERGY PREDICTED BY IDOCK:   -1.34 KCAL/MOL
REMARK 927      BINDING AFFINITY PREDICTED BY RF-SCORE:    0.00 PKD
ROOT
HETATM    1  C   UNL     1      -8.499   9.089  63.969  1.00  0.00    -0.175 C  
HETATM    2  C   UNL     1      -9.496   9.486  64.772  1.00  0.00    -0.178 C  
ENDROOT
BRANCH   1   3
HETATM    3  C   UNL     1      -7.386   8.142  64.324  1.00  0.00    -0.094 C  
BRANCH   3   4
HETATM    4  C   UNL     1      -7.877   6.695  64.397  1.00  0.00    -0.114 C  
BRANCH   4   5
HETATM    5  C   UNL     1      -7.476   6.013  65.705  1.00  0.00    -0.082 C  
HETATM    6  O   UNL     1      -8.293   4.735  67.535  1.00  0.00    -0.105 OA 
HETATM    7  C   UNL     1      -8.648   5.350  66.383  1.00  0.00    -0.119 C  
HETATM    8  O   UNL     1      -9.796   5.340  65.963  1.00  0.00    -0.164 OA 
ENDBRANCH   4   5
ENDBRANCH   3   4
ENDBRANCH   1   3
BRANCH   2   9
HETATM    9  C   UNL     1      -9.678   9.114  66.219  1.00  0.00    -0.344 C  
BRANCH   9  10
HETATM   10  C   UNL     1      -9.435  10.239  67.239  1.00  0.00    -0.174 C  
HETATM   11  H   UNL     1      -6.497  12.640  66.384  1.00  0.00     0.000 HD 
HETATM   12  C   UNL     1      -8.370   9.838  68.272  1.00  0.00    -0.106 C  
HETATM   13  O   UNL     1      -6.550  12.057  67.132  1.00  0.00    -0.140 OA 
HETATM   14  O   UNL     1      -7.226   9.258  67.650  1.00  0.00    -0.082 OA 
HETATM   15  C   UNL     1      -7.956  11.164  68.888  1.00  0.00    -0.126 C  
HETATM   16  C   UNL     1      -8.887  11.566  66.644  1.00  0.00    -0.187 C  
HETATM   17  H   UNL     1      -6.568   9.009  68.288  1.00  0.00     0.000 HD 
HETATM   18  C   UNL     1      -7.869  12.101  67.685  1.00  0.00    -0.153 C  
BRANCH  16  19
HETATM   19  C   UNL     1      -9.964  12.572  66.311  1.00  0.00    -0.263 C  
HETATM   20  C   UNL     1     -10.015  13.835  66.773  1.00  0.00    -0.270 C  
BRANCH  20  21
HETATM   21  C   UNL     1     -11.115  14.826  66.508  1.00  0.00    -0.334 C  
HETATM   22  O   UNL     1     -12.229  14.565  67.355  1.00  0.00    -0.589 OA 
HETATM   23  H   UNL     1     -12.923  15.191  67.188  1.00  0.00     0.000 HD 
BRANCH  21  24
HETATM   24  C   UNL     1     -10.651  16.267  66.752  1.00  0.00    -0.257 C  
BRANCH  24  25
HETATM   25  C   UNL     1     -10.558  16.679  68.226  1.00  0.00    -0.338 C  
BRANCH  25  26
HETATM   26  C   UNL     1     -10.109  18.128  68.412  1.00  0.00    -0.401 C  
BRANCH  26  27
HETATM   27  C   UNL     1     -10.682  19.037  67.327  1.00  0.00    -0.556 C  
HETATM   28  C   UNL     1      -9.797  20.255  67.117  1.00  0.00    -0.606 C  
ENDBRANCH  26  27
ENDBRANCH  25  26
ENDBRANCH  24  25
ENDBRANCH  21  24
ENDBRANCH  20  21
ENDBRANCH  16  19
ENDBRANCH   9  10
ENDBRANCH   2   9
TORSDOF 11
ENDMDL
MODEL      285
REMARK 921   NORMALIZED FREE ENERGY PREDICTED BY IDOCK:   -2.97 KCAL/MOL
REMARK 922        TOTAL FREE ENERGY PREDICTED BY IDOCK:   -7.28 KCAL/MOL
REMARK 923 INTER-LIGAND FREE ENERGY PREDICTED BY IDOCK:   -6.35 KCAL/MOL
REMARK 924 INTRA-LIGAND FREE ENERGY PREDICTED BY IDOCK:   -0.93 KCAL/MOL
REMARK 927      BINDING AFFINITY PREDICTED BY RF-SCORE:    0.00 PKD
ROOT
HETATM    1  C   UNL     1      -9.884   8.824  66.248  1.00  0.00    -0.342 C  
HETATM    2  C   UNL     1     -10.511   9.973  66.544  1.00  0.00    -0.223 C  
ENDROOT
BRANCH   1   3
HETATM    3  C   UNL     1      -8.423   8.526  66.445  1.00  0.00    -0.122 C  
BRANCH   3   4
HETATM    4  C   UNL     1      -8.188   7.051  66.774  1.00  0.00    -0.111 C  
BRANCH   4   5
HETATM    5  C   UNL     1      -8.887   6.119  65.783  1.00  0.00    -0.133 C  
HETATM    6  O   UNL     1     -10.619   4.507  65.557  1.00  0.00    -0.282 OA 
HETATM    7  C   UNL     1      -9.990   5.323  66.435  1.00  0.00    -0.203 C  
HETATM    8  O   UNL     1     -10.311   5.391  67.611  1.00  0.00    -0.193 OA 
ENDBRANCH   4   5
ENDBRANCH   3   4
ENDBRANCH   1   3
BRANCH   2   9
HETATM    9  C   UNL     1      -9.872  11.226  67.079  1.00  0.00    -0.217 C  
BRANCH   9  10
HETATM   10  C   UNL     1      -9.804  12.415  66.106  1.00  0.00    -0.263 C  
HETATM   11  H   UNL     1     -11.743  15.589  67.241  1.00  0.00     0.000 HD 
HETATM   12  C   UNL     1     -11.008  12.425  65.150  1.00  0.00    -0.302 C  
HETATM   13  O   UNL     1     -11.931  15.056  66.478  1.00  0.00    -0.158 OA 
HETATM   14  O   UNL     1     -12.235  12.215  65.848  1.00  0.00    -0.604 OA 
HETATM   15  C   UNL     1     -11.011  13.841  64.599  1.00  0.00    -0.406 C  
HETATM   16  C   UNL     1      -9.852  13.818  66.771  1.00  0.00    -0.275 C  
HETATM   17  H   UNL     1     -12.979  12.221  65.257  1.00  0.00     0.000 HD 
HETATM   18  C   UNL     1     -10.709  14.700  65.826  1.00  0.00    -0.315 C  
BRANCH  16  19
HETATM   19  C   UNL     1      -8.488  14.409  67.042  1.00  0.00    -0.206 C  
HETATM   20  C   UNL     1      -7.815  14.307  68.202  1.00  0.00    -0.139 C  
BRANCH  20  21
HETATM   21  C   UNL     1      -6.489  14.947  68.511  1.00  0.00    -0.091 C  
HETATM   22  O   UNL     1      -5.743  15.137  67.314  1.00  0.00    -0.325 OA 
HETATM   23  H   UNL     1      -4.905  15.540  67.509  1.00  0.00     0.000 HD 
BRANCH  21  24
HETATM   24  C   UNL     1      -6.661  16.308  69.194  1.00  0.00    -0.196 C  
BRANCH  24  25
HETATM   25  C   UNL     1      -6.840  17.496  68.241  1.00  0.00    -0.200 C  
BRANCH  25  26
HETATM   26  C   UNL     1      -8.102  18.307  68.530  1.00  0.00    -0.330 C  
BRANCH  26  27
HETATM   27  C   UNL     1      -9.224  17.970  67.550  1.00  0.00    -0.253 C  
HETATM   28  C   UNL     1     -10.102  19.184  67.292  1.00  0.00    -0.462 C  
ENDBRANCH  26  27
ENDBRANCH  25  26
ENDBRANCH  24  25
ENDBRANCH  21  24
ENDBRANCH  20  21
ENDBRANCH  16  19
ENDBRANCH   9  10
ENDBRANCH   2   9
TORSDOF 11
ENDMDL
MODEL      286
REMARK 921   NORMALIZED FREE ENERGY PREDICTED BY IDOCK:   -2.97 KCAL/MOL
REMARK 922        TOTAL FREE ENERGY PREDICTED BY IDOCK:   -7.27 KCAL/MOL
REMARK 923 INTER-LIGAND FREE ENERGY PREDICTED BY IDOCK:   -6.10 KCAL/MOL
REMARK 924 INTRA-LIGAND FREE ENERGY PREDICTED BY IDOCK:   -1.18 KCAL/MOL
REMARK 927      BINDING AFFINITY PREDICTED BY RF-SCORE:    0.00 PKD
ROOT
HETATM    1  C   UNL     1     -11.155   6.575  68.312  1.00  0.00    -0.332 C  
HETATM    2  C   UNL     1     -10.683   6.174  67.122  1.00  0.00    -0.422 C  
ENDROOT
BRANCH   1   3
HETATM    3  C   UNL     1     -10.426   6.530  69.626  1.00  0.00    -0.260 C  
BRANCH   3   4
HETATM    4  C   UNL     1     -11.357   6.143  70.776  1.00  0.00    -0.364 C  
BRANCH   4   5
HETATM    5  C   UNL     1     -12.434   7.198  71.027  1.00  0.00    -0.359 C  
HETATM    6  O   UNL     1     -13.113   8.940  72.495  1.00  0.00    -0.422 OA 
HETATM    7  C   UNL     1     -12.167   7.997  72.278  1.00  0.00    -0.318 C  
HETATM    8  O   UNL     1     -11.213   7.844  73.025  1.00  0.00    -0.411 OA 
ENDBRANCH   4   5
ENDBRANCH   3   4
ENDBRANCH   1   3
BRANCH   2   9
HETATM    9  C   UNL     1      -9.345   5.537  66.863  1.00  0.00    -0.129 C  
BRANCH   9  10
HETATM   10  C   UNL     1      -8.114   6.377  67.241  1.00  0.00    -0.113 C  
HETATM   11  H   UNL     1      -5.214   6.320  64.651  1.00  0.00     0.000 HD 
HETATM   12  C   UNL     1      -7.052   5.525  67.954  1.00  0.00    -0.071 C  
HETATM   13  O   UNL     1      -5.183   5.987  65.540  1.00  0.00    -0.012 OA 
HETATM   14  O   UNL     1      -6.822   4.293  67.273  1.00  0.00    -0.050 OA 
HETATM   15  C   UNL     1      -5.792   6.368  67.851  1.00  0.00    -0.016 C  
HETATM   16  C   UNL     1      -7.343   6.998  66.044  1.00  0.00    -0.075 C  
HETATM   17  H   UNL     1      -6.166   3.766  67.714  1.00  0.00     0.000 HD 
HETATM   18  C   UNL     1      -5.841   6.903  66.420  1.00  0.00    -0.030 C  
BRANCH  16  19
HETATM   19  C   UNL     1      -7.772   8.408  65.712  1.00  0.00    -0.094 C  
HETATM   20  C   UNL     1      -8.899   8.743  65.059  1.00  0.00    -0.151 C  
BRANCH  20  21
HETATM   21  C   UNL     1      -9.308  10.134  64.659  1.00  0.00    -0.277 C  
HETATM   22  O   UNL     1      -9.807  10.137  63.327  1.00  0.00    -0.473 OA 
HETATM   23  H   UNL     1     -10.065  11.015  63.074  1.00  0.00     0.000 HD 
BRANCH  21  24
HETATM   24  C   UNL     1     -10.394  10.695  65.583  1.00  0.00    -0.285 C  
BRANCH  24  25
HETATM   25  C   UNL     1     -11.312  11.745  64.947  1.00  0.00    -0.299 C  
BRANCH  25  26
HETATM   26  C   UNL     1     -12.077  12.571  65.979  1.00  0.00    -0.390 C  
BRANCH  26  27
HETATM   27  C   UNL     1     -11.543  12.341  67.391  1.00  0.00    -0.425 C  
HETATM   28  C   UNL     1     -11.327  13.661  68.112  1.00  0.00    -0.321 C  
ENDBRANCH  26  27
ENDBRANCH  25  26
ENDBRANCH  24  25
ENDBRANCH  21  24
ENDBRANCH  20  21
ENDBRANCH  16  19
ENDBRANCH   9  10
ENDBRANCH   2   9
TORSDOF 11
ENDMDL
MODEL      287
REMARK 921   NORMALIZED FREE ENERGY PREDICTED BY IDOCK:   -2.93 KCAL/MOL
REMARK 922        TOTAL FREE ENERGY PREDICTED BY IDOCK:   -7.21 KCAL/MOL
REMARK 923 INTER-LIGAND FREE ENERGY PREDICTED BY IDOCK:   -6.15 KCAL/MOL
REMARK 924 INTRA-LIGAND FREE ENERGY PREDICTED BY IDOCK:   -1.06 KCAL/MOL
REMARK 927      BINDING AFFINITY PREDICTED BY RF-SCORE:    0.00 PKD
ROOT
HETATM    1  C   UNL     1     -11.218   6.393  68.521  1.00  0.00    -0.321 C  
HETATM    2  C   UNL     1     -10.946   6.032  67.258  1.00  0.00    -0.356 C  
ENDROOT
BRANCH   1   3
HETATM    3  C   UNL     1     -10.673   5.757  69.770  1.00  0.00    -0.418 C  
BRANCH   3   4
HETATM    4  C   UNL     1     -11.403   6.252  71.020  1.00  0.00    -0.378 C  
BRANCH   4   5
HETATM    5  C   UNL     1     -10.444   6.517  72.182  1.00  0.00    -0.229 C  
HETATM    6  O   UNL     1      -9.870   5.850  74.390  1.00  0.00    -0.189 OA 
HETATM    7  C   UNL     1     -10.726   5.626  73.365  1.00  0.00    -0.278 C  
HETATM    8  O   UNL     1     -11.608   4.782  73.422  1.00  0.00    -0.323 OA 
ENDBRANCH   4   5
ENDBRANCH   3   4
ENDBRANCH   1   3
BRANCH   2   9
HETATM    9  C   UNL     1     -10.086   4.875  66.827  1.00  0.00    -0.269 C  
BRANCH   9  10
HETATM   10  C   UNL     1      -8.609   5.199  66.553  1.00  0.00    -0.111 C  
HETATM   11  H   UNL     1      -7.800   6.269  62.902  1.00  0.00     0.000 HD 
HETATM   12  C   UNL     1      -7.858   3.973  66.009  1.00  0.00    -0.090 C  
HETATM   13  O   UNL     1      -7.483   5.491  63.346  1.00  0.00    -0.050 OA 
HETATM   14  O   UNL     1      -8.591   3.326  64.971  1.00  0.00    -0.100 OA 
HETATM   15  C   UNL     1      -6.599   4.569  65.401  1.00  0.00    -0.044 C  
HETATM   16  C   UNL     1      -8.358   6.290  65.476  1.00  0.00    -0.147 C  
HETATM   17  H   UNL     1      -8.127   2.568  64.635  1.00  0.00     0.000 HD 
HETATM   18  C   UNL     1      -7.109   5.820  64.687  1.00  0.00    -0.057 C  
BRANCH  16  19
HETATM   19  C   UNL     1      -8.199   7.680  66.045  1.00  0.00    -0.128 C  
HETATM   20  C   UNL     1      -8.917   8.757  65.678  1.00  0.00    -0.248 C  
BRANCH  20  21
HETATM   21  C   UNL     1      -8.724  10.161  66.183  1.00  0.00    -0.142 C  
HETATM   22  O   UNL     1      -7.925  10.907  65.272  1.00  0.00    -0.342 OA 
HETATM   23  H   UNL     1      -7.804  11.793  65.591  1.00  0.00     0.000 HD 
BRANCH  21  24
HETATM   24  C   UNL     1     -10.062  10.888  66.360  1.00  0.00    -0.280 C  
BRANCH  24  25
HETATM   25  C   UNL     1     -10.016  12.401  66.118  1.00  0.00    -0.267 C  
BRANCH  25  26
HETATM   26  C   UNL     1     -10.567  12.801  64.749  1.00  0.00    -0.348 C  
BRANCH  26  27
HETATM   27  C   UNL     1     -11.138  11.599  64.000  1.00  0.00    -0.458 C  
HETATM   28  C   UNL     1     -12.540  11.893  63.492  1.00  0.00    -0.579 C  
ENDBRANCH  26  27
ENDBRANCH  25  26
ENDBRANCH  24  25
ENDBRANCH  21  24
ENDBRANCH  20  21
ENDBRANCH  16  19
ENDBRANCH   9  10
ENDBRANCH   2   9
TORSDOF 11
ENDMDL
MODEL      288
REMARK 921   NORMALIZED FREE ENERGY PREDICTED BY IDOCK:   -2.92 KCAL/MOL
REMARK 922        TOTAL FREE ENERGY PREDICTED BY IDOCK:   -7.19 KCAL/MOL
REMARK 923 INTER-LIGAND FREE ENERGY PREDICTED BY IDOCK:   -5.44 KCAL/MOL
REMARK 924 INTRA-LIGAND FREE ENERGY PREDICTED BY IDOCK:   -1.75 KCAL/MOL
REMARK 927      BINDING AFFINITY PREDICTED BY RF-SCORE:    0.00 PKD
ROOT
HETATM    1  C   UNL     1      -6.164   9.614  67.844  1.00  0.00    -0.052 C  
HETATM    2  C   UNL     1      -6.727   8.708  68.657  1.00  0.00    -0.059 C  
ENDROOT
BRANCH   1   3
HETATM    3  C   UNL     1      -6.195   9.608  66.340  1.00  0.00    -0.068 C  
BRANCH   3   4
HETATM    4  C   UNL     1      -7.346  10.455  65.795  1.00  0.00    -0.147 C  
BRANCH   4   5
HETATM    5  C   UNL     1      -7.599  10.199  64.309  1.00  0.00    -0.124 C  
HETATM    6  O   UNL     1      -9.252   9.565  62.723  1.00  0.00    -0.254 OA 
HETATM    7  C   UNL     1      -9.023   9.779  64.040  1.00  0.00    -0.240 C  
HETATM    8  O   UNL     1      -9.894   9.650  64.886  1.00  0.00    -0.232 OA 
ENDBRANCH   4   5
ENDBRANCH   3   4
ENDBRANCH   1   3
BRANCH   2   9
HETATM    9  C   UNL     1      -7.457   7.461  68.234  1.00  0.00    -0.109 C  
BRANCH   9  10
HETATM   10  C   UNL     1      -8.849   7.253  68.853  1.00  0.00    -0.127 C  
HETATM   11  H   UNL     1      -9.118   8.100  72.639  1.00  0.00     0.000 HD 
HETATM   12  C   UNL     1      -8.973   5.861  69.494  1.00  0.00    -0.129 C  
HETATM   13  O   UNL     1      -9.234   7.245  72.242  1.00  0.00    -0.131 OA 
HETATM   14  O   UNL     1      -7.841   5.553  70.305  1.00  0.00    -0.089 OA 
HETATM   15  C   UNL     1     -10.185   5.996  70.401  1.00  0.00    -0.261 C  
HETATM   16  C   UNL     1      -9.211   8.224  70.010  1.00  0.00    -0.151 C  
HETATM   17  H   UNL     1      -7.918   4.692  70.700  1.00  0.00     0.000 HD 
HETATM   18  C   UNL     1      -9.998   7.371  71.040  1.00  0.00    -0.183 C  
BRANCH  16  19
HETATM   19  C   UNL     1      -9.976   9.446  69.560  1.00  0.00    -0.200 C  
HETATM   20  C   UNL     1     -10.455   9.648  68.319  1.00  0.00    -0.259 C  
BRANCH  20  21
HETATM   21  C   UNL     1     -11.157  10.888  67.836  1.00  0.00    -0.302 C  
HETATM   22  O   UNL     1     -12.505  10.900  68.291  1.00  0.00    -0.545 OA 
HETATM   23  H   UNL     1     -12.948  11.683  67.986  1.00  0.00     0.000 HD 
BRANCH  21  24
HETATM   24  C   UNL     1     -10.467  12.162  68.335  1.00  0.00    -0.242 C  
BRANCH  24  25
HETATM   25  C   UNL     1     -11.410  13.320  68.681  1.00  0.00    -0.324 C  
BRANCH  25  26
HETATM   26  C   UNL     1     -11.316  14.481  67.693  1.00  0.00    -0.354 C  
BRANCH  26  27
HETATM   27  C   UNL     1     -12.077  14.183  66.402  1.00  0.00    -0.475 C  
HETATM   28  C   UNL     1     -11.348  14.756  65.198  1.00  0.00    -0.379 C  
ENDBRANCH  26  27
ENDBRANCH  25  26
ENDBRANCH  24  25
ENDBRANCH  21  24
ENDBRANCH  20  21
ENDBRANCH  16  19
ENDBRANCH   9  10
ENDBRANCH   2   9
TORSDOF 11
ENDMDL
MODEL      289
REMARK 921   NORMALIZED FREE ENERGY PREDICTED BY IDOCK:   -2.90 KCAL/MOL
REMARK 922        TOTAL FREE ENERGY PREDICTED BY IDOCK:   -7.16 KCAL/MOL
REMARK 923 INTER-LIGAND FREE ENERGY PREDICTED BY IDOCK:   -6.36 KCAL/MOL
REMARK 924 INTRA-LIGAND FREE ENERGY PREDICTED BY IDOCK:   -0.79 KCAL/MOL
REMARK 927      BINDING AFFINITY PREDICTED BY RF-SCORE:    0.00 PKD
ROOT
HETATM    1  C   UNL     1     -10.361  15.781  67.203  1.00  0.00    -0.291 C  
HETATM    2  C   UNL     1     -10.691  15.993  68.486  1.00  0.00    -0.287 C  
ENDROOT
BRANCH   1   3
HETATM    3  C   UNL     1      -9.310  14.833  66.695  1.00  0.00    -0.291 C  
BRANCH   3   4
HETATM    4  C   UNL     1      -7.936  15.500  66.622  1.00  0.00    -0.134 C  
BRANCH   4   5
HETATM    5  C   UNL     1      -7.551  16.175  67.939  1.00  0.00    -0.146 C  
HETATM    6  O   UNL     1      -6.976  18.256  68.935  1.00  0.00    -0.268 OA 
HETATM    7  C   UNL     1      -7.304  17.653  67.768  1.00  0.00    -0.189 C  
HETATM    8  O   UNL     1      -7.392  18.268  66.716  1.00  0.00    -0.198 OA 
ENDBRANCH   4   5
ENDBRANCH   3   4
ENDBRANCH   1   3
BRANCH   2   9
HETATM    9  C   UNL     1     -10.036  15.371  69.690  1.00  0.00    -0.275 C  
BRANCH   9  10
HETATM   10  C   UNL     1     -10.977  14.660  70.676  1.00  0.00     0.072 C  
HETATM   11  H   UNL     1     -14.734  15.614  70.357  1.00  0.00     0.000 HD 
HETATM   12  C   UNL     1     -11.210  15.508  71.937  1.00  0.00    -0.268 C  
HETATM   13  O   UNL     1     -14.172  15.776  71.106  1.00  0.00    -0.432 OA 
HETATM   14  O   UNL     1     -11.504  16.865  71.612  1.00  0.00    -0.443 OA 
HETATM   15  C   UNL     1     -12.451  14.888  72.557  1.00  0.00    -0.432 C  
HETATM   16  C   UNL     1     -12.412  14.390  70.146  1.00  0.00    -0.395 C  
HETATM   17  H   UNL     1     -11.648  17.388  72.392  1.00  0.00     0.000 HD 
HETATM   18  C   UNL     1     -13.356  14.628  71.353  1.00  0.00    -0.372 C  
BRANCH  16  19
HETATM   19  C   UNL     1     -12.584  13.020  69.532  1.00  0.00     0.310 C  
HETATM   20  C   UNL     1     -11.607  12.109  69.383  1.00  0.00    -0.381 C  
BRANCH  20  21
HETATM   21  C   UNL     1     -11.744  10.769  68.712  1.00  0.00    -0.245 C  
HETATM   22  O   UNL     1     -11.362  10.862  67.344  1.00  0.00    -0.412 OA 
HETATM   23  H   UNL     1     -11.449  10.016  66.921  1.00  0.00     0.000 HD 
BRANCH  21  24
HETATM   24  C   UNL     1     -10.871   9.705  69.386  1.00  0.00    -0.239 C  
BRANCH  24  25
HETATM   25  C   UNL     1     -10.451   8.540  68.482  1.00  0.00    -0.205 C  
BRANCH  25  26
HETATM   26  C   UNL     1      -9.744   7.420  69.244  1.00  0.00    -0.165 C  
BRANCH  26  27
HETATM   27  C   UNL     1     -10.598   6.156  69.304  1.00  0.00    -0.348 C  
HETATM   28  C   UNL     1     -10.889   5.766  70.744  1.00  0.00    -0.330 C  
ENDBRANCH  26  27
ENDBRANCH  25  26
ENDBRANCH  24  25
ENDBRANCH  21  24
ENDBRANCH  20  21
ENDBRANCH  16  19
ENDBRANCH   9  10
ENDBRANCH   2   9
TORSDOF 11
ENDMDL
MODEL      290
REMARK 921   NORMALIZED FREE ENERGY PREDICTED BY IDOCK:   -2.86 KCAL/MOL
REMARK 922        TOTAL FREE ENERGY PREDICTED BY IDOCK:   -7.10 KCAL/MOL
REMARK 923 INTER-LIGAND FREE ENERGY PREDICTED BY IDOCK:   -5.49 KCAL/MOL
REMARK 924 INTRA-LIGAND FREE ENERGY PREDICTED BY IDOCK:   -1.62 KCAL/MOL
REMARK 927      BINDING AFFINITY PREDICTED BY RF-SCORE:    0.00 PKD
ROOT
HETATM    1  C   UNL     1      -7.653   6.441  67.833  1.00  0.00    -0.102 C  
HETATM    2  C   UNL     1      -8.030   5.722  68.901  1.00  0.00    -0.098 C  
ENDROOT
BRANCH   1   3
HETATM    3  C   UNL     1      -7.408   7.924  67.795  1.00  0.00    -0.096 C  
BRANCH   3   4
HETATM    4  C   UNL     1      -6.963   8.387  66.407  1.00  0.00    -0.074 C  
BRANCH   4   5
HETATM    5  C   UNL     1      -8.003   9.285  65.736  1.00  0.00    -0.109 C  
HETATM    6  O   UNL     1      -9.124   9.726  63.687  1.00  0.00    -0.248 OA 
HETATM    7  C   UNL     1      -8.195   8.941  64.280  1.00  0.00    -0.169 C  
HETATM    8  O   UNL     1      -7.605   8.057  63.678  1.00  0.00    -0.114 OA 
ENDBRANCH   4   5
ENDBRANCH   3   4
ENDBRANCH   1   3
BRANCH   2   9
HETATM    9  C   UNL     1      -8.347   6.258  70.271  1.00  0.00    -0.126 C  
BRANCH   9  10
HETATM   10  C   UNL     1      -9.825   6.200  70.691  1.00  0.00    -0.214 C  
HETATM   11  H   UNL     1     -10.783   8.496  73.680  1.00  0.00     0.000 HD 
HETATM   12  C   UNL     1     -10.044   5.188  71.827  1.00  0.00    -0.200 C  
HETATM   13  O   UNL     1     -10.815   7.547  73.665  1.00  0.00    -0.329 OA 
HETATM   14  O   UNL     1      -9.073   5.338  72.861  1.00  0.00    -0.123 OA 
HETATM   15  C   UNL     1     -11.402   5.576  72.390  1.00  0.00    -0.294 C  
HETATM   16  C   UNL     1     -10.403   7.524  71.263  1.00  0.00    -0.203 C  
HETATM   17  H   UNL     1      -9.209   4.712  73.562  1.00  0.00     0.000 HD 
HETATM   18  C   UNL     1     -11.351   7.103  72.416  1.00  0.00    -0.274 C  
BRANCH  16  19
HETATM   19  C   UNL     1     -11.090   8.383  70.227  1.00  0.00    -0.216 C  
HETATM   20  C   UNL     1     -10.554   9.467  69.638  1.00  0.00    -0.239 C  
BRANCH  20  21
HETATM   21  C   UNL     1     -11.248  10.373  68.659  1.00  0.00    -0.248 C  
HETATM   22  O   UNL     1     -12.630  10.479  68.980  1.00  0.00    -0.722 OA 
HETATM   23  H   UNL     1     -13.069  11.051  68.361  1.00  0.00     0.000 HD 
BRANCH  21  24
HETATM   24  C   UNL     1     -10.642  11.781  68.661  1.00  0.00    -0.250 C  
BRANCH  24  25
HETATM   25  C   UNL     1      -9.343  11.932  67.862  1.00  0.00    -0.187 C  
BRANCH  25  26
HETATM   26  C   UNL     1      -9.566  12.514  66.467  1.00  0.00    -0.242 C  
BRANCH  26  27
HETATM   27  C   UNL     1     -10.863  13.318  66.394  1.00  0.00    -0.296 C  
HETATM   28  C   UNL     1     -10.573  14.796  66.192  1.00  0.00    -0.314 C  
ENDBRANCH  26  27
ENDBRANCH  25  26
ENDBRANCH  24  25
ENDBRANCH  21  24
ENDBRANCH  20  21
ENDBRANCH  16  19
ENDBRANCH   9  10
ENDBRANCH   2   9
TORSDOF 11
ENDMDL
MODEL      291
REMARK 921   NORMALIZED FREE ENERGY PREDICTED BY IDOCK:   -2.86 KCAL/MOL
REMARK 922        TOTAL FREE ENERGY PREDICTED BY IDOCK:   -7.10 KCAL/MOL
REMARK 923 INTER-LIGAND FREE ENERGY PREDICTED BY IDOCK:   -5.88 KCAL/MOL
REMARK 924 INTRA-LIGAND FREE ENERGY PREDICTED BY IDOCK:   -1.21 KCAL/MOL
REMARK 927      BINDING AFFINITY PREDICTED BY RF-SCORE:    0.00 PKD
ROOT
HETATM    1  C   UNL     1      -9.507  10.797  65.572  1.00  0.00    -0.253 C  
HETATM    2  C   UNL     1      -9.782   9.576  66.055  1.00  0.00    -0.341 C  
ENDROOT
BRANCH   1   3
HETATM    3  C   UNL     1      -8.520  11.781  66.136  1.00  0.00     0.048 C  
BRANCH   3   4
HETATM    4  C   UNL     1      -9.138  13.171  66.300  1.00  0.00     0.009 C  
BRANCH   4   5
HETATM    5  C   UNL     1     -10.664  13.120  66.365  1.00  0.00    -0.293 C  
HETATM    6  O   UNL     1     -12.518  12.927  67.840  1.00  0.00    -0.026 OA 
HETATM    7  C   UNL     1     -11.166  12.959  67.778  1.00  0.00    -0.280 C  
HETATM    8  O   UNL     1     -10.464  12.875  68.774  1.00  0.00    -0.233 OA 
ENDBRANCH   4   5
ENDBRANCH   3   4
ENDBRANCH   1   3
BRANCH   2   9
HETATM    9  C   UNL     1      -9.204   8.958  67.299  1.00  0.00    -0.164 C  
BRANCH   9  10
HETATM   10  C   UNL     1      -9.941   7.724  67.843  1.00  0.00    -0.212 C  
HETATM   11  H   UNL     1      -7.724   4.572  68.368  1.00  0.00     0.000 HD 
HETATM   12  C   UNL     1     -10.404   6.802  66.703  1.00  0.00    -0.149 C  
HETATM   13  O   UNL     1      -8.447   4.658  67.758  1.00  0.00    -0.103 OA 
HETATM   14  O   UNL     1      -9.365   6.579  65.752  1.00  0.00    -0.376 OA 
HETATM   15  C   UNL     1     -10.694   5.486  67.407  1.00  0.00    -0.224 C  
HETATM   16  C   UNL     1      -9.092   6.790  68.748  1.00  0.00    -0.132 C  
HETATM   17  H   UNL     1      -9.652   6.010  65.047  1.00  0.00     0.000 HD 
HETATM   18  C   UNL     1      -9.531   5.346  68.388  1.00  0.00    -0.123 C  
BRANCH  16  19
HETATM   19  C   UNL     1      -9.225   7.089  70.223  1.00  0.00    -0.156 C  
HETATM   20  C   UNL     1     -10.249   6.699  71.004  1.00  0.00    -0.214 C  
BRANCH  20  21
HETATM   21  C   UNL     1     -10.432   7.047  72.456  1.00  0.00    -0.216 C  
HETATM   22  O   UNL     1      -9.184   7.406  73.038  1.00  0.00    -0.141 OA 
HETATM   23  H   UNL     1      -9.300   7.626  73.955  1.00  0.00     0.000 HD 
BRANCH  21  24
HETATM   24  C   UNL     1     -11.406   8.216  72.641  1.00  0.00    -0.450 C  
BRANCH  24  25
HETATM   25  C   UNL     1     -12.464   8.361  71.541  1.00  0.00    -0.342 C  
BRANCH  25  26
HETATM   26  C   UNL     1     -13.335   9.604  71.714  1.00  0.00    -0.505 C  
BRANCH  26  27
HETATM   27  C   UNL     1     -12.644  10.855  71.175  1.00  0.00    -0.532 C  
HETATM   28  C   UNL     1     -13.120  12.097  71.910  1.00  0.00    -0.475 C  
ENDBRANCH  26  27
ENDBRANCH  25  26
ENDBRANCH  24  25
ENDBRANCH  21  24
ENDBRANCH  20  21
ENDBRANCH  16  19
ENDBRANCH   9  10
ENDBRANCH   2   9
TORSDOF 11
ENDMDL
MODEL      292
REMARK 921   NORMALIZED FREE ENERGY PREDICTED BY IDOCK:   -2.86 KCAL/MOL
REMARK 922        TOTAL FREE ENERGY PREDICTED BY IDOCK:   -7.09 KCAL/MOL
REMARK 923 INTER-LIGAND FREE ENERGY PREDICTED BY IDOCK:   -5.69 KCAL/MOL
REMARK 924 INTRA-LIGAND FREE ENERGY PREDICTED BY IDOCK:   -1.41 KCAL/MOL
REMARK 927      BINDING AFFINITY PREDICTED BY RF-SCORE:    0.00 PKD
ROOT
HETATM    1  C   UNL     1      -7.514  10.745  68.483  1.00  0.00    -0.100 C  
HETATM    2  C   UNL     1      -8.578  10.972  67.699  1.00  0.00    -0.125 C  
ENDROOT
BRANCH   1   3
HETATM    3  C   UNL     1      -7.094  11.556  69.678  1.00  0.00     0.080 C  
BRANCH   3   4
HETATM    4  C   UNL     1      -6.033  12.595  69.310  1.00  0.00    -0.093 C  
BRANCH   4   5
HETATM    5  C   UNL     1      -6.612  14.007  69.226  1.00  0.00    -0.120 C  
HETATM    6  O   UNL     1      -6.526  16.179  70.189  1.00  0.00    -0.098 OA 
HETATM    7  C   UNL     1      -6.025  14.924  70.270  1.00  0.00    -0.157 C  
HETATM    8  O   UNL     1      -5.185  14.607  71.099  1.00  0.00    -0.123 OA 
ENDBRANCH   4   5
ENDBRANCH   3   4
ENDBRANCH   1   3
BRANCH   2   9
HETATM    9  C   UNL     1      -9.541  12.122  67.813  1.00  0.00    -0.195 C  
BRANCH   9  10
HETATM   10  C   UNL     1      -9.810  12.906  66.518  1.00  0.00    -0.254 C  
HETATM   11  H   UNL     1     -13.545  13.759  65.847  1.00  0.00     0.000 HD 
HETATM   12  C   UNL     1     -10.160  11.963  65.355  1.00  0.00    -0.253 C  
HETATM   13  O   UNL     1     -12.991  13.197  65.319  1.00  0.00    -0.661 OA 
HETATM   14  O   UNL     1     -11.123  10.986  65.743  1.00  0.00    -0.108 OA 
HETATM   15  C   UNL     1     -10.803  12.885  64.332  1.00  0.00    -0.404 C  
HETATM   16  C   UNL     1     -11.017  13.883  66.573  1.00  0.00    -0.300 C  
HETATM   17  H   UNL     1     -11.339  10.403  65.024  1.00  0.00     0.000 HD 
HETATM   18  C   UNL     1     -11.696  13.789  65.182  1.00  0.00    -0.343 C  
BRANCH  16  19
HETATM   19  C   UNL     1     -10.636  15.298  66.940  1.00  0.00    -0.304 C  
HETATM   20  C   UNL     1     -10.842  15.871  68.140  1.00  0.00    -0.317 C  
BRANCH  20  21
HETATM   21  C   UNL     1     -10.533  17.298  68.501  1.00  0.00    -0.375 C  
HETATM   22  O   UNL     1     -10.291  17.411  69.899  1.00  0.00    -0.042 OA 
HETATM   23  H   UNL     1     -10.095  18.312  70.127  1.00  0.00     0.000 HD 
BRANCH  21  24
HETATM   24  C   UNL     1      -9.300  17.818  67.754  1.00  0.00    -0.257 C  
BRANCH  24  25
HETATM   25  C   UNL     1      -8.506  18.906  68.486  1.00  0.00    -0.384 C  
BRANCH  25  26
HETATM   26  C   UNL     1      -7.063  19.021  67.999  1.00  0.00    -0.263 C  
BRANCH  26  27
HETATM   27  C   UNL     1      -6.985  19.044  66.473  1.00  0.00    -0.226 C  
HETATM   28  C   UNL     1      -6.141  17.892  65.956  1.00  0.00    -0.265 C  
ENDBRANCH  26  27
ENDBRANCH  25  26
ENDBRANCH  24  25
ENDBRANCH  21  24
ENDBRANCH  20  21
ENDBRANCH  16  19
ENDBRANCH   9  10
ENDBRANCH   2   9
TORSDOF 11
ENDMDL
MODEL      293
REMARK 921   NORMALIZED FREE ENERGY PREDICTED BY IDOCK:   -2.85 KCAL/MOL
REMARK 922        TOTAL FREE ENERGY PREDICTED BY IDOCK:   -7.08 KCAL/MOL
REMARK 923 INTER-LIGAND FREE ENERGY PREDICTED BY IDOCK:   -5.55 KCAL/MOL
REMARK 924 INTRA-LIGAND FREE ENERGY PREDICTED BY IDOCK:   -1.53 KCAL/MOL
REMARK 927      BINDING AFFINITY PREDICTED BY RF-SCORE:    0.00 PKD
ROOT
HETATM    1  C   UNL     1     -10.160  10.491  69.505  1.00  0.00    -0.208 C  
HETATM    2  C   UNL     1      -9.604  11.409  68.700  1.00  0.00    -0.179 C  
ENDROOT
BRANCH   1   3
HETATM    3  C   UNL     1     -10.009   8.999  69.398  1.00  0.00    -0.191 C  
BRANCH   3   4
HETATM    4  C   UNL     1      -8.836   8.488  70.237  1.00  0.00    -0.150 C  
BRANCH   4   5
HETATM    5  C   UNL     1      -8.719   6.964  70.199  1.00  0.00    -0.141 C  
HETATM    6  O   UNL     1      -7.913   5.131  68.917  1.00  0.00    -0.084 OA 
HETATM    7  C   UNL     1      -8.030   6.480  68.947  1.00  0.00    -0.111 C  
HETATM    8  O   UNL     1      -7.606   7.194  68.052  1.00  0.00    -0.106 OA 
ENDBRANCH   4   5
ENDBRANCH   3   4
ENDBRANCH   1   3
BRANCH   2   9
HETATM    9  C   UNL     1      -8.761  11.136  67.484  1.00  0.00    -0.129 C  
BRANCH   9  10
HETATM   10  C   UNL     1      -9.259  11.754  66.167  1.00  0.00    -0.218 C  
HETATM   11  H   UNL     1     -12.939  13.011  66.218  1.00  0.00     0.000 HD 
HETATM   12  C   UNL     1      -9.975  10.711  65.294  1.00  0.00    -0.294 C  
HETATM   13  O   UNL     1     -12.590  12.307  65.684  1.00  0.00    -0.504 OA 
HETATM   14  O   UNL     1     -10.908   9.943  66.052  1.00  0.00     0.094 OA 
HETATM   15  C   UNL     1     -10.754  11.556  64.299  1.00  0.00    -0.416 C  
HETATM   16  C   UNL     1     -10.311  12.887  66.323  1.00  0.00    -0.278 C  
HETATM   17  H   UNL     1     -11.350   9.298  65.513  1.00  0.00     0.000 HD 
HETATM   18  C   UNL     1     -11.315  12.688  65.159  1.00  0.00    -0.308 C  
BRANCH  16  19
HETATM   19  C   UNL     1      -9.711  14.273  66.345  1.00  0.00    -0.315 C  
HETATM   20  C   UNL     1     -10.170  15.328  65.647  1.00  0.00    -0.398 C  
BRANCH  20  21
HETATM   21  C   UNL     1      -9.545  16.696  65.602  1.00  0.00     0.022 C  
HETATM   22  O   UNL     1     -10.446  17.667  66.121  1.00  0.00    -0.361 OA 
HETATM   23  H   UNL     1     -10.051  18.530  66.093  1.00  0.00     0.000 HD 
BRANCH  21  24
HETATM   24  C   UNL     1      -8.249  16.754  66.419  1.00  0.00    -0.349 C  
BRANCH  24  25
HETATM   25  C   UNL     1      -7.986  18.088  67.127  1.00  0.00    -0.224 C  
BRANCH  25  26
HETATM   26  C   UNL     1      -8.178  18.005  68.641  1.00  0.00    -0.287 C  
BRANCH  26  27
HETATM   27  C   UNL     1      -8.760  16.657  69.061  1.00  0.00    -0.193 C  
HETATM   28  C   UNL     1     -10.225  16.794  69.442  1.00  0.00    -0.225 C  
ENDBRANCH  26  27
ENDBRANCH  25  26
ENDBRANCH  24  25
ENDBRANCH  21  24
ENDBRANCH  20  21
ENDBRANCH  16  19
ENDBRANCH   9  10
ENDBRANCH   2   9
TORSDOF 11
ENDMDL
MODEL      294
REMARK 921   NORMALIZED FREE ENERGY PREDICTED BY IDOCK:   -2.85 KCAL/MOL
REMARK 922        TOTAL FREE ENERGY PREDICTED BY IDOCK:   -7.08 KCAL/MOL
REMARK 923 INTER-LIGAND FREE ENERGY PREDICTED BY IDOCK:   -5.40 KCAL/MOL
REMARK 924 INTRA-LIGAND FREE ENERGY PREDICTED BY IDOCK:   -1.68 KCAL/MOL
REMARK 927      BINDING AFFINITY PREDICTED BY RF-SCORE:    0.00 PKD
ROOT
HETATM    1  C   UNL     1     -11.436  11.771  67.140  1.00  0.00    -0.366 C  
HETATM    2  C   UNL     1     -11.362  12.128  65.849  1.00  0.00    -0.407 C  
ENDROOT
BRANCH   1   3
HETATM    3  C   UNL     1     -10.327  11.190  67.973  1.00  0.00    -0.208 C  
BRANCH   3   4
HETATM    4  C   UNL     1      -9.092  12.094  67.979  1.00  0.00    -0.190 C  
BRANCH   4   5
HETATM    5  C   UNL     1      -7.801  11.306  68.198  1.00  0.00    -0.127 C  
HETATM    6  O   UNL     1      -5.529  11.489  68.875  1.00  0.00    -0.043 OA 
HETATM    7  C   UNL     1      -6.671  12.187  68.668  1.00  0.00    -0.081 C  
HETATM    8  O   UNL     1      -6.746  13.391  68.860  1.00  0.00    -0.100 OA 
ENDBRANCH   4   5
ENDBRANCH   3   4
ENDBRANCH   1   3
BRANCH   2   9
HETATM    9  C   UNL     1     -10.169  11.966  64.946  1.00  0.00    -0.310 C  
BRANCH   9  10
HETATM   10  C   UNL     1     -10.039  10.607  64.239  1.00  0.00    -0.411 C  
HETATM   11  H   UNL     1      -6.513   8.976  64.425  1.00  0.00     0.000 HD 
HETATM   12  C   UNL     1      -9.524  10.771  62.800  1.00  0.00    -0.331 C  
HETATM   13  O   UNL     1      -6.957   9.273  63.639  1.00  0.00    -0.090 OA 
HETATM   14  O   UNL     1      -8.404  11.652  62.741  1.00  0.00    -0.556 OA 
HETATM   15  C   UNL     1      -9.051   9.375  62.431  1.00  0.00    -0.207 C  
HETATM   16  C   UNL     1      -9.026   9.619  64.881  1.00  0.00    -0.260 C  
HETATM   17  H   UNL     1      -8.086  11.754  61.851  1.00  0.00     0.000 HD 
HETATM   18  C   UNL     1      -8.336   8.897  63.694  1.00  0.00    -0.162 C  
BRANCH  16  19
HETATM   19  C   UNL     1      -9.653   8.658  65.863  1.00  0.00    -0.210 C  
HETATM   20  C   UNL     1      -9.124   7.481  66.242  1.00  0.00    -0.198 C  
BRANCH  20  21
HETATM   21  C   UNL     1      -9.768   6.481  67.163  1.00  0.00    -0.143 C  
HETATM   22  O   UNL     1     -10.997   6.993  67.666  1.00  0.00    -0.434 OA 
HETATM   23  H   UNL     1     -11.403   6.361  68.247  1.00  0.00     0.000 HD 
BRANCH  21  24
HETATM   24  C   UNL     1     -10.053   5.154  66.450  1.00  0.00    -0.268 C  
BRANCH  24  25
HETATM   25  C   UNL     1      -9.242   4.916  65.171  1.00  0.00    -0.128 C  
BRANCH  25  26
HETATM   26  C   UNL     1      -8.122   3.893  65.358  1.00  0.00    -0.097 C  
BRANCH  26  27
HETATM   27  C   UNL     1      -6.828   4.555  65.824  1.00  0.00    -0.058 C  
HETATM   28  C   UNL     1      -5.746   4.439  64.763  1.00  0.00    -0.014 C  
ENDBRANCH  26  27
ENDBRANCH  25  26
ENDBRANCH  24  25
ENDBRANCH  21  24
ENDBRANCH  20  21
ENDBRANCH  16  19
ENDBRANCH   9  10
ENDBRANCH   2   9
TORSDOF 11
ENDMDL
MODEL      295
REMARK 921   NORMALIZED FREE ENERGY PREDICTED BY IDOCK:   -2.83 KCAL/MOL
REMARK 922        TOTAL FREE ENERGY PREDICTED BY IDOCK:   -7.04 KCAL/MOL
REMARK 923 INTER-LIGAND FREE ENERGY PREDICTED BY IDOCK:   -4.85 KCAL/MOL
REMARK 924 INTRA-LIGAND FREE ENERGY PREDICTED BY IDOCK:   -2.19 KCAL/MOL
REMARK 927      BINDING AFFINITY PREDICTED BY RF-SCORE:    0.00 PKD
ROOT
HETATM    1  C   UNL     1      -8.271   4.697  68.485  1.00  0.00    -0.083 C  
HETATM    2  C   UNL     1      -8.501   4.933  67.185  1.00  0.00    -0.105 C  
ENDROOT
BRANCH   1   3
HETATM    3  C   UNL     1      -8.592   5.615  69.632  1.00  0.00    -0.110 C  
BRANCH   3   4
HETATM    4  C   UNL     1      -8.702   4.852  70.953  1.00  0.00    -0.140 C  
BRANCH   4   5
HETATM    5  C   UNL     1      -8.733   5.789  72.161  1.00  0.00    -0.133 C  
HETATM    6  O   UNL     1     -10.082   6.564  73.958  1.00  0.00    -0.260 OA 
HETATM    7  C   UNL     1     -10.057   5.745  72.881  1.00  0.00    -0.184 C  
HETATM    8  O   UNL     1     -11.013   5.053  72.562  1.00  0.00    -0.220 OA 
ENDBRANCH   4   5
ENDBRANCH   3   4
ENDBRANCH   1   3
BRANCH   2   9
HETATM    9  C   UNL     1      -9.073   6.193  66.595  1.00  0.00    -0.146 C  
BRANCH   9  10
HETATM   10  C   UNL     1      -8.065   7.314  66.294  1.00  0.00    -0.121 C  
HETATM   11  H   UNL     1      -9.546  10.434  64.506  1.00  0.00     0.000 HD 
HETATM   12  C   UNL     1      -7.491   7.184  64.874  1.00  0.00    -0.095 C  
HETATM   13  O   UNL     1      -8.895   9.838  64.155  1.00  0.00    -0.200 OA 
HETATM   14  O   UNL     1      -8.517   6.948  63.912  1.00  0.00    -0.346 OA 
HETATM   15  C   UNL     1      -6.894   8.555  64.606  1.00  0.00    -0.069 C  
HETATM   16  C   UNL     1      -8.647   8.755  66.324  1.00  0.00    -0.144 C  
HETATM   17  H   UNL     1      -8.161   6.867  63.034  1.00  0.00     0.000 HD 
HETATM   18  C   UNL     1      -7.941   9.514  65.170  1.00  0.00    -0.117 C  
BRANCH  16  19
HETATM   19  C   UNL     1      -8.489   9.445  67.658  1.00  0.00    -0.119 C  
HETATM   20  C   UNL     1      -7.715   9.012  68.669  1.00  0.00    -0.096 C  
BRANCH  20  21
HETATM   21  C   UNL     1      -7.601   9.648  70.028  1.00  0.00    -0.147 C  
HETATM   22  O   UNL     1      -7.884  11.040  69.945  1.00  0.00    -0.315 OA 
HETATM   23  H   UNL     1      -7.811  11.442  70.803  1.00  0.00     0.000 HD 
BRANCH  21  24
HETATM   24  C   UNL     1      -8.571   9.017  71.033  1.00  0.00    -0.264 C  
BRANCH  24  25
HETATM   25  C   UNL     1     -10.016   9.523  70.947  1.00  0.00    -0.308 C  
BRANCH  25  26
HETATM   26  C   UNL     1     -11.013   8.419  70.597  1.00  0.00    -0.266 C  
BRANCH  26  27
HETATM   27  C   UNL     1     -12.325   8.584  71.361  1.00  0.00    -0.332 C  
HETATM   28  C   UNL     1     -12.694  10.052  71.495  1.00  0.00    -0.532 C  
ENDBRANCH  26  27
ENDBRANCH  25  26
ENDBRANCH  24  25
ENDBRANCH  21  24
ENDBRANCH  20  21
ENDBRANCH  16  19
ENDBRANCH   9  10
ENDBRANCH   2   9
TORSDOF 11
ENDMDL
MODEL      296
REMARK 921   NORMALIZED FREE ENERGY PREDICTED BY IDOCK:   -2.80 KCAL/MOL
REMARK 922        TOTAL FREE ENERGY PREDICTED BY IDOCK:   -6.99 KCAL/MOL
REMARK 923 INTER-LIGAND FREE ENERGY PREDICTED BY IDOCK:   -6.35 KCAL/MOL
REMARK 924 INTRA-LIGAND FREE ENERGY PREDICTED BY IDOCK:   -0.65 KCAL/MOL
REMARK 927      BINDING AFFINITY PREDICTED BY RF-SCORE:    0.00 PKD
ROOT
HETATM    1  C   UNL     1      -6.291  15.364  68.313  1.00  0.00    -0.123 C  
HETATM    2  C   UNL     1      -7.381  14.763  68.811  1.00  0.00    -0.129 C  
ENDROOT
BRANCH   1   3
HETATM    3  C   UNL     1      -6.230  16.729  67.684  1.00  0.00    -0.173 C  
BRANCH   3   4
HETATM    4  C   UNL     1      -7.000  17.764  68.504  1.00  0.00    -0.238 C  
BRANCH   4   5
HETATM    5  C   UNL     1      -6.457  19.180  68.304  1.00  0.00    -0.254 C  
HETATM    6  O   UNL     1      -7.008  21.354  67.516  1.00  0.00    -0.539 OA 
HETATM    7  C   UNL     1      -7.481  20.097  67.683  1.00  0.00    -0.306 C  
HETATM    8  O   UNL     1      -8.617  19.778  67.366  1.00  0.00    -0.300 OA 
ENDBRANCH   4   5
ENDBRANCH   3   4
ENDBRANCH   1   3
BRANCH   2   9
HETATM    9  C   UNL     1      -8.786  15.303  68.790  1.00  0.00    -0.195 C  
BRANCH   9  10
HETATM   10  C   UNL     1      -9.910  14.255  68.789  1.00  0.00    -0.189 C  
HETATM   11  H   UNL     1     -11.984  14.056  65.505  1.00  0.00     0.000 HD 
HETATM   12  C   UNL     1     -11.253  14.874  69.209  1.00  0.00    -0.284 C  
HETATM   13  O   UNL     1     -12.306  14.311  66.361  1.00  0.00    -0.448 OA 
HETATM   14  O   UNL     1     -11.501  16.103  68.529  1.00  0.00    -0.376 OA 
HETATM   15  C   UNL     1     -12.277  13.855  68.738  1.00  0.00    -0.232 C  
HETATM   16  C   UNL     1     -10.219  13.614  67.408  1.00  0.00    -0.241 C  
HETATM   17  H   UNL     1     -12.330  16.486  68.789  1.00  0.00     0.000 HD 
HETATM   18  C   UNL     1     -11.759  13.445  67.360  1.00  0.00    -0.373 C  
BRANCH  16  19
HETATM   19  C   UNL     1      -9.482  12.317  67.163  1.00  0.00    -0.196 C  
HETATM   20  C   UNL     1     -10.008  11.088  67.306  1.00  0.00    -0.210 C  
BRANCH  20  21
HETATM   21  C   UNL     1      -9.271   9.787  67.134  1.00  0.00    -0.138 C  
HETATM   22  O   UNL     1      -8.060   9.805  67.881  1.00  0.00    -0.111 OA 
HETATM   23  H   UNL     1      -7.595   8.985  67.772  1.00  0.00     0.000 HD 
BRANCH  21  24
HETATM   24  C   UNL     1     -10.110   8.593  67.604  1.00  0.00    -0.271 C  
BRANCH  24  25
HETATM   25  C   UNL     1      -9.349   7.546  68.425  1.00  0.00    -0.141 C  
BRANCH  25  26
HETATM   26  C   UNL     1      -9.855   7.434  69.862  1.00  0.00    -0.178 C  
BRANCH  26  27
HETATM   27  C   UNL     1     -11.279   6.885  69.915  1.00  0.00    -0.334 C  
HETATM   28  C   UNL     1     -11.610   6.368  71.305  1.00  0.00    -0.370 C  
ENDBRANCH  26  27
ENDBRANCH  25  26
ENDBRANCH  24  25
ENDBRANCH  21  24
ENDBRANCH  20  21
ENDBRANCH  16  19
ENDBRANCH   9  10
ENDBRANCH   2   9
TORSDOF 11
ENDMDL
MODEL      297
REMARK 921   NORMALIZED FREE ENERGY PREDICTED BY IDOCK:   -2.78 KCAL/MOL
REMARK 922        TOTAL FREE ENERGY PREDICTED BY IDOCK:   -6.96 KCAL/MOL
REMARK 923 INTER-LIGAND FREE ENERGY PREDICTED BY IDOCK:   -4.87 KCAL/MOL
REMARK 924 INTRA-LIGAND FREE ENERGY PREDICTED BY IDOCK:   -2.08 KCAL/MOL
REMARK 927      BINDING AFFINITY PREDICTED BY RF-SCORE:    0.00 PKD
ROOT
HETATM    1  C   UNL     1     -11.000   5.984  69.226  1.00  0.00    -0.436 C  
HETATM    2  C   UNL     1     -10.987   6.368  67.940  1.00  0.00    -0.416 C  
ENDROOT
BRANCH   1   3
HETATM    3  C   UNL     1     -10.190   4.875  69.837  1.00  0.00    -0.299 C  
BRANCH   3   4
HETATM    4  C   UNL     1      -9.485   5.329  71.116  1.00  0.00    -0.206 C  
BRANCH   4   5
HETATM    5  C   UNL     1      -9.919   6.730  71.549  1.00  0.00    -0.189 C  
HETATM    6  O   UNL     1     -11.301   7.929  73.067  1.00  0.00    -0.408 OA 
HETATM    7  C   UNL     1     -10.924   6.690  72.673  1.00  0.00    -0.255 C  
HETATM    8  O   UNL     1     -11.360   5.676  73.197  1.00  0.00    -0.262 OA 
ENDBRANCH   4   5
ENDBRANCH   3   4
ENDBRANCH   1   3
BRANCH   2   9
HETATM    9  C   UNL     1     -10.202   5.728  66.827  1.00  0.00    -0.269 C  
BRANCH   9  10
HETATM   10  C   UNL     1      -8.721   6.128  66.731  1.00  0.00    -0.116 C  
HETATM   11  H   UNL     1      -6.967   5.182  63.391  1.00  0.00     0.000 HD 
HETATM   12  C   UNL     1      -7.800   4.974  67.158  1.00  0.00    -0.096 C  
HETATM   13  O   UNL     1      -6.756   4.846  64.254  1.00  0.00    -0.041 OA 
HETATM   14  O   UNL     1      -8.188   3.741  66.553  1.00  0.00    -0.099 OA 
HETATM   15  C   UNL     1      -6.446   5.374  66.595  1.00  0.00    -0.044 C  
HETATM   16  C   UNL     1      -8.223   6.486  65.303  1.00  0.00    -0.135 C  
HETATM   17  H   UNL     1      -7.618   3.028  66.817  1.00  0.00     0.000 HD 
HETATM   18  C   UNL     1      -6.785   5.913  65.206  1.00  0.00    -0.044 C  
BRANCH  16  19
HETATM   19  C   UNL     1      -8.284   7.963  64.992  1.00  0.00    -0.134 C  
HETATM   20  C   UNL     1      -7.394   8.881  65.409  1.00  0.00    -0.085 C  
BRANCH  20  21
HETATM   21  C   UNL     1      -7.477  10.364  65.167  1.00  0.00    -0.093 C  
HETATM   22  O   UNL     1      -7.423  10.639  63.772  1.00  0.00    -0.350 OA 
HETATM   23  H   UNL     1      -7.476  11.575  63.619  1.00  0.00     0.000 HD 
BRANCH  21  24
HETATM   24  C   UNL     1      -8.774  10.958  65.727  1.00  0.00    -0.196 C  
BRANCH  24  25
HETATM   25  C   UNL     1      -8.725  11.344  67.210  1.00  0.00    -0.148 C  
BRANCH  25  26
HETATM   26  C   UNL     1     -10.103  11.342  67.871  1.00  0.00    -0.195 C  
BRANCH  26  27
HETATM   27  C   UNL     1     -10.290  10.125  68.776  1.00  0.00    -0.211 C  
HETATM   28  C   UNL     1      -8.952   9.485  69.108  1.00  0.00    -0.148 C  
ENDBRANCH  26  27
ENDBRANCH  25  26
ENDBRANCH  24  25
ENDBRANCH  21  24
ENDBRANCH  20  21
ENDBRANCH  16  19
ENDBRANCH   9  10
ENDBRANCH   2   9
TORSDOF 11
ENDMDL
MODEL      298
REMARK 921   NORMALIZED FREE ENERGY PREDICTED BY IDOCK:   -2.76 KCAL/MOL
REMARK 922        TOTAL FREE ENERGY PREDICTED BY IDOCK:   -6.93 KCAL/MOL
REMARK 923 INTER-LIGAND FREE ENERGY PREDICTED BY IDOCK:   -5.84 KCAL/MOL
REMARK 924 INTRA-LIGAND FREE ENERGY PREDICTED BY IDOCK:   -1.09 KCAL/MOL
REMARK 927      BINDING AFFINITY PREDICTED BY RF-SCORE:    0.00 PKD
ROOT
HETATM    1  C   UNL     1     -11.187   9.954  68.873  1.00  0.00    -0.126 C  
HETATM    2  C   UNL     1     -10.425  10.692  68.052  1.00  0.00    -0.228 C  
ENDROOT
BRANCH   1   3
HETATM    3  C   UNL     1     -12.001  10.458  70.033  1.00  0.00    -0.324 C  
BRANCH   3   4
HETATM    4  C   UNL     1     -11.635   9.741  71.334  1.00  0.00    -0.452 C  
BRANCH   4   5
HETATM    5  C   UNL     1     -12.060   8.272  71.322  1.00  0.00    -0.307 C  
HETATM    6  O   UNL     1     -11.523   6.111  72.153  1.00  0.00    -0.285 OA 
HETATM    7  C   UNL     1     -11.141   7.410  72.151  1.00  0.00    -0.252 C  
HETATM    8  O   UNL     1     -10.165   7.806  72.769  1.00  0.00    -0.246 OA 
ENDBRANCH   4   5
ENDBRANCH   3   4
ENDBRANCH   1   3
BRANCH   2   9
HETATM    9  C   UNL     1     -10.177  12.173  68.156  1.00  0.00    -0.203 C  
BRANCH   9  10
HETATM   10  C   UNL     1     -10.813  13.041  67.059  1.00  0.00    -0.278 C  
HETATM   11  H   UNL     1      -8.713  16.129  65.971  1.00  0.00     0.000 HD 
HETATM   12  C   UNL     1     -11.609  14.210  67.662  1.00  0.00    -0.365 C  
HETATM   13  O   UNL     1      -9.565  16.145  66.391  1.00  0.00    -0.249 OA 
HETATM   14  O   UNL     1     -10.870  14.879  68.682  1.00  0.00    -0.236 OA 
HETATM   15  C   UNL     1     -11.776  15.166  66.492  1.00  0.00    -0.030 C  
HETATM   16  C   UNL     1      -9.808  13.738  66.100  1.00  0.00    -0.310 C  
HETATM   17  H   UNL     1     -11.363  15.601  69.055  1.00  0.00     0.000 HD 
HETATM   18  C   UNL     1     -10.406  15.141  65.816  1.00  0.00    -0.339 C  
BRANCH  16  19
HETATM   19  C   UNL     1      -9.533  12.955  64.837  1.00  0.00     0.387 C  
HETATM   20  C   UNL     1      -9.930  11.691  64.606  1.00  0.00    -0.291 C  
BRANCH  20  21
HETATM   21  C   UNL     1      -9.605  10.874  63.385  1.00  0.00    -0.332 C  
HETATM   22  O   UNL     1      -8.804  11.631  62.484  1.00  0.00    -0.567 OA 
HETATM   23  H   UNL     1      -8.599  11.115  61.714  1.00  0.00     0.000 HD 
BRANCH  21  24
HETATM   24  C   UNL     1      -8.846   9.592  63.746  1.00  0.00    -0.257 C  
BRANCH  24  25
HETATM   25  C   UNL     1      -8.196   9.590  65.134  1.00  0.00    -0.134 C  
BRANCH  25  26
HETATM   26  C   UNL     1      -9.002   8.806  66.168  1.00  0.00    -0.225 C  
BRANCH  26  27
HETATM   27  C   UNL     1      -8.310   7.497  66.545  1.00  0.00    -0.126 C  
HETATM   28  C   UNL     1      -6.876   7.747  66.980  1.00  0.00    -0.069 C  
ENDBRANCH  26  27
ENDBRANCH  25  26
ENDBRANCH  24  25
ENDBRANCH  21  24
ENDBRANCH  20  21
ENDBRANCH  16  19
ENDBRANCH   9  10
ENDBRANCH   2   9
TORSDOF 11
ENDMDL
MODEL      299
REMARK 921   NORMALIZED FREE ENERGY PREDICTED BY IDOCK:   -2.74 KCAL/MOL
REMARK 922        TOTAL FREE ENERGY PREDICTED BY IDOCK:   -6.89 KCAL/MOL
REMARK 923 INTER-LIGAND FREE ENERGY PREDICTED BY IDOCK:   -4.93 KCAL/MOL
REMARK 924 INTRA-LIGAND FREE ENERGY PREDICTED BY IDOCK:   -1.96 KCAL/MOL
REMARK 927      BINDING AFFINITY PREDICTED BY RF-SCORE:    0.00 PKD
ROOT
HETATM    1  C   UNL     1     -11.342  11.266  67.378  1.00  0.00    -0.349 C  
HETATM    2  C   UNL     1     -11.064  11.559  66.099  1.00  0.00    -0.302 C  
ENDROOT
BRANCH   1   3
HETATM    3  C   UNL     1     -10.385  10.717  68.399  1.00  0.00    -0.197 C  
BRANCH   3   4
HETATM    4  C   UNL     1     -11.076   9.745  69.356  1.00  0.00    -0.205 C  
BRANCH   4   5
HETATM    5  C   UNL     1     -10.095   9.109  70.342  1.00  0.00    -0.264 C  
HETATM    6  O   UNL     1      -9.728   7.220  71.738  1.00  0.00    -0.155 OA 
HETATM    7  C   UNL     1     -10.601   7.792  70.875  1.00  0.00    -0.213 C  
HETATM    8  O   UNL     1     -11.663   7.268  70.576  1.00  0.00    -0.285 OA 
ENDBRANCH   4   5
ENDBRANCH   3   4
ENDBRANCH   1   3
BRANCH   2   9
HETATM    9  C   UNL     1      -9.749  11.341  65.400  1.00  0.00    -0.271 C  
BRANCH   9  10
HETATM   10  C   UNL     1      -9.609  10.020  64.626  1.00  0.00    -0.363 C  
HETATM   11  H   UNL     1      -6.292   8.086  65.242  1.00  0.00     0.000 HD 
HETATM   12  C   UNL     1      -8.857  10.225  63.301  1.00  0.00    -0.222 C  
HETATM   13  O   UNL     1      -6.579   8.466  64.420  1.00  0.00    -0.066 OA 
HETATM   14  O   UNL     1      -7.679  11.008  63.481  1.00  0.00    -0.315 OA 
HETATM   15  C   UNL     1      -8.437   8.817  62.910  1.00  0.00    -0.154 C  
HETATM   16  C   UNL     1      -8.789   8.913  65.345  1.00  0.00    -0.234 C  
HETATM   17  H   UNL     1      -7.215  11.135  62.662  1.00  0.00     0.000 HD 
HETATM   18  C   UNL     1      -7.973   8.207  64.232  1.00  0.00    -0.144 C  
BRANCH  16  19
HETATM   19  C   UNL     1      -9.638   7.953  66.145  1.00  0.00    -0.127 C  
HETATM   20  C   UNL     1      -9.285   6.698  66.478  1.00  0.00    -0.183 C  
BRANCH  20  21
HETATM   21  C   UNL     1     -10.144   5.706  67.213  1.00  0.00    -0.177 C  
HETATM   22  O   UNL     1     -11.202   6.375  67.888  1.00  0.00    -0.471 OA 
HETATM   23  H   UNL     1     -11.745   5.748  68.352  1.00  0.00     0.000 HD 
BRANCH  21  24
HETATM   24  C   UNL     1     -10.756   4.672  66.261  1.00  0.00     0.011 C  
BRANCH  24  25
HETATM   25  C   UNL     1      -9.773   4.037  65.271  1.00  0.00    -0.197 C  
BRANCH  25  26
HETATM   26  C   UNL     1      -9.450   2.581  65.604  1.00  0.00     0.088 C  
BRANCH  26  27
HETATM   27  C   UNL     1      -8.200   2.467  66.474  1.00  0.00    -0.087 C  
HETATM   28  C   UNL     1      -7.091   1.734  65.738  1.00  0.00    -0.051 C  
ENDBRANCH  26  27
ENDBRANCH  25  26
ENDBRANCH  24  25
ENDBRANCH  21  24
ENDBRANCH  20  21
ENDBRANCH  16  19
ENDBRANCH   9  10
ENDBRANCH   2   9
TORSDOF 11
ENDMDL
MODEL      300
REMARK 921   NORMALIZED FREE ENERGY PREDICTED BY IDOCK:   -2.74 KCAL/MOL
REMARK 922        TOTAL FREE ENERGY PREDICTED BY IDOCK:   -6.89 KCAL/MOL
REMARK 923 INTER-LIGAND FREE ENERGY PREDICTED BY IDOCK:   -5.20 KCAL/MOL
REMARK 924 INTRA-LIGAND FREE ENERGY PREDICTED BY IDOCK:   -1.69 KCAL/MOL
REMARK 927      BINDING AFFINITY PREDICTED BY RF-SCORE:    0.00 PKD
ROOT
HETATM    1  C   UNL     1      -6.097   9.422  67.913  1.00  0.00    -0.053 C  
HETATM    2  C   UNL     1      -6.975   8.424  68.092  1.00  0.00    -0.081 C  
ENDROOT
BRANCH   1   3
HETATM    3  C   UNL     1      -5.365   9.753  66.642  1.00  0.00    -0.045 C  
BRANCH   3   4
HETATM    4  C   UNL     1      -6.213  10.622  65.712  1.00  0.00    -0.126 C  
BRANCH   4   5
HETATM    5  C   UNL     1      -6.673   9.860  64.469  1.00  0.00    -0.124 C  
HETATM    6  O   UNL     1      -8.572   9.294  63.156  1.00  0.00    -0.201 OA 
HETATM    7  C   UNL     1      -8.164   9.958  64.263  1.00  0.00    -0.161 C  
HETATM    8  O   UNL     1      -8.940  10.565  64.985  1.00  0.00    -0.183 OA 
ENDBRANCH   4   5
ENDBRANCH   3   4
ENDBRANCH   1   3
BRANCH   2   9
HETATM    9  C   UNL     1      -7.367   7.388  67.073  1.00  0.00    -0.097 C  
BRANCH   9  10
HETATM   10  C   UNL     1      -8.875   7.136  66.915  1.00  0.00    -0.132 C  
HETATM   11  H   UNL     1     -10.611   5.511  69.993  1.00  0.00     0.000 HD 
HETATM   12  C   UNL     1      -9.154   5.707  66.420  1.00  0.00    -0.147 C  
HETATM   13  O   UNL     1     -10.519   5.127  69.129  1.00  0.00    -0.198 OA 
HETATM   14  O   UNL     1      -8.400   4.741  67.149  1.00  0.00    -0.106 OA 
HETATM   15  C   UNL     1     -10.626   5.502  66.740  1.00  0.00    -0.360 C  
HETATM   16  C   UNL     1      -9.705   7.239  68.224  1.00  0.00    -0.152 C  
HETATM   17  H   UNL     1      -8.573   3.858  66.842  1.00  0.00     0.000 HD 
HETATM   18  C   UNL     1     -10.774   6.119  68.130  1.00  0.00    -0.294 C  
BRANCH  16  19
HETATM   19  C   UNL     1     -10.310   8.604  68.453  1.00  0.00    -0.239 C  
HETATM   20  C   UNL     1     -10.817   9.399  67.493  1.00  0.00    -0.208 C  
BRANCH  20  21
HETATM   21  C   UNL     1     -11.358  10.788  67.693  1.00  0.00    -0.252 C  
HETATM   22  O   UNL     1     -12.439  10.767  68.619  1.00  0.00    -0.793 OA 
HETATM   23  H   UNL     1     -12.781  11.644  68.746  1.00  0.00     0.000 HD 
BRANCH  21  24
HETATM   24  C   UNL     1     -10.285  11.744  68.226  1.00  0.00    -0.209 C  
BRANCH  24  25
HETATM   25  C   UNL     1     -10.810  13.088  68.745  1.00  0.00    -0.277 C  
BRANCH  25  26
HETATM   26  C   UNL     1     -10.930  14.144  67.647  1.00  0.00    -0.278 C  
BRANCH  26  27
HETATM   27  C   UNL     1      -9.911  15.266  67.835  1.00  0.00    -0.216 C  
HETATM   28  C   UNL     1      -9.737  15.601  69.307  1.00  0.00    -0.271 C  
ENDBRANCH  26  27
ENDBRANCH  25  26
ENDBRANCH  24  25
ENDBRANCH  21  24
ENDBRANCH  20  21
ENDBRANCH  16  19
ENDBRANCH   9  10
ENDBRANCH   2   9
TORSDOF 11
ENDMDL
MODEL      301
REMARK 921   NORMALIZED FREE ENERGY PREDICTED BY IDOCK:   -2.72 KCAL/MOL
REMARK 922        TOTAL FREE ENERGY PREDICTED BY IDOCK:   -6.87 KCAL/MOL
REMARK 923 INTER-LIGAND FREE ENERGY PREDICTED BY IDOCK:   -5.53 KCAL/MOL
REMARK 924 INTRA-LIGAND FREE ENERGY PREDICTED BY IDOCK:   -1.33 KCAL/MOL
REMARK 927      BINDING AFFINITY PREDICTED BY RF-SCORE:    0.00 PKD
ROOT
HETATM    1  C   UNL     1      -8.283   3.887  69.610  1.00  0.00    -0.067 C  
HETATM    2  C   UNL     1      -7.346   4.667  70.171  1.00  0.00    -0.050 C  
ENDROOT
BRANCH   1   3
HETATM    3  C   UNL     1      -9.628   4.328  69.102  1.00  0.00    -0.249 C  
BRANCH   3   4
HETATM    4  C   UNL     1      -9.636   4.473  67.579  1.00  0.00    -0.211 C  
BRANCH   4   5
HETATM    5  C   UNL     1      -9.010   5.791  67.121  1.00  0.00    -0.113 C  
HETATM    6  O   UNL     1      -9.496   8.025  66.470  1.00  0.00    -0.190 OA 
HETATM    7  C   UNL     1     -10.049   6.853  66.863  1.00  0.00    -0.218 C  
HETATM    8  O   UNL     1     -11.255   6.710  66.993  1.00  0.00    -0.404 OA 
ENDBRANCH   4   5
ENDBRANCH   3   4
ENDBRANCH   1   3
BRANCH   2   9
HETATM    9  C   UNL     1      -7.470   6.138  70.464  1.00  0.00    -0.090 C  
BRANCH   9  10
HETATM   10  C   UNL     1      -8.655   6.551  71.351  1.00  0.00    -0.126 C  
HETATM   11  H   UNL     1      -8.025   9.648  73.617  1.00  0.00     0.000 HD 
HETATM   12  C   UNL     1      -8.554   5.920  72.750  1.00  0.00    -0.122 C  
HETATM   13  O   UNL     1      -8.195   8.760  73.909  1.00  0.00    -0.346 OA 
HETATM   14  O   UNL     1      -7.244   6.063  73.296  1.00  0.00    -0.084 OA 
HETATM   15  C   UNL     1      -9.510   6.755  73.585  1.00  0.00    -0.204 C  
HETATM   16  C   UNL     1      -8.767   8.073  71.642  1.00  0.00    -0.169 C  
HETATM   17  H   UNL     1      -7.181   5.673  74.160  1.00  0.00     0.000 HD 
HETATM   18  C   UNL     1      -9.237   8.183  73.116  1.00  0.00    -0.266 C  
BRANCH  16  19
HETATM   19  C   UNL     1      -9.676   8.808  70.684  1.00  0.00    -0.239 C  
HETATM   20  C   UNL     1      -9.318   9.865  69.933  1.00  0.00    -0.250 C  
BRANCH  20  21
HETATM   21  C   UNL     1     -10.227  10.651  69.028  1.00  0.00    -0.215 C  
HETATM   22  O   UNL     1     -10.790  11.752  69.732  1.00  0.00    -0.458 OA 
HETATM   23  H   UNL     1     -11.364  12.249  69.160  1.00  0.00     0.000 HD 
BRANCH  21  24
HETATM   24  C   UNL     1      -9.479  11.192  67.804  1.00  0.00    -0.173 C  
BRANCH  24  25
HETATM   25  C   UNL     1      -9.318  12.716  67.761  1.00  0.00    -0.198 C  
BRANCH  25  26
HETATM   26  C   UNL     1      -9.770  13.325  66.435  1.00  0.00    -0.279 C  
BRANCH  26  27
HETATM   27  C   UNL     1     -11.109  14.047  66.575  1.00  0.00    -0.315 C  
HETATM   28  C   UNL     1     -12.226  13.248  65.924  1.00  0.00    -0.497 C  
ENDBRANCH  26  27
ENDBRANCH  25  26
ENDBRANCH  24  25
ENDBRANCH  21  24
ENDBRANCH  20  21
ENDBRANCH  16  19
ENDBRANCH   9  10
ENDBRANCH   2   9
TORSDOF 11
ENDMDL
MODEL      302
REMARK 921   NORMALIZED FREE ENERGY PREDICTED BY IDOCK:   -2.72 KCAL/MOL
REMARK 922        TOTAL FREE ENERGY PREDICTED BY IDOCK:   -6.86 KCAL/MOL
REMARK 923 INTER-LIGAND FREE ENERGY PREDICTED BY IDOCK:   -4.92 KCAL/MOL
REMARK 924 INTRA-LIGAND FREE ENERGY PREDICTED BY IDOCK:   -1.94 KCAL/MOL
REMARK 927      BINDING AFFINITY PREDICTED BY RF-SCORE:    0.00 PKD
ROOT
HETATM    1  C   UNL     1      -6.561   9.976  68.541  1.00  0.00    -0.053 C  
HETATM    2  C   UNL     1      -6.978  10.610  67.434  1.00  0.00    -0.082 C  
ENDROOT
BRANCH   1   3
HETATM    3  C   UNL     1      -7.024   8.632  69.031  1.00  0.00    -0.064 C  
BRANCH   3   4
HETATM    4  C   UNL     1      -6.230   7.493  68.390  1.00  0.00    -0.036 C  
BRANCH   4   5
HETATM    5  C   UNL     1      -6.869   6.127  68.647  1.00  0.00    -0.070 C  
HETATM    6  O   UNL     1      -8.450   4.559  67.816  1.00  0.00    -0.102 OA 
HETATM    7  C   UNL     1      -7.892   5.773  67.598  1.00  0.00    -0.098 C  
HETATM    8  O   UNL     1      -8.198   6.472  66.643  1.00  0.00    -0.108 OA 
ENDBRANCH   4   5
ENDBRANCH   3   4
ENDBRANCH   1   3
BRANCH   2   9
HETATM    9  C   UNL     1      -8.043  10.135  66.483  1.00  0.00    -0.121 C  
BRANCH   9  10
HETATM   10  C   UNL     1      -7.755  10.350  64.988  1.00  0.00    -0.095 C  
HETATM   11  H   UNL     1      -9.642   7.949  62.579  1.00  0.00     0.000 HD 
HETATM   12  C   UNL     1      -6.629   9.425  64.497  1.00  0.00    -0.089 C  
HETATM   13  O   UNL     1      -8.701   7.999  62.705  1.00  0.00     0.016 OA 
HETATM   14  O   UNL     1      -6.820   8.083  64.943  1.00  0.00    -0.057 OA 
HETATM   15  C   UNL     1      -6.785   9.449  62.985  1.00  0.00    -0.099 C  
HETATM   16  C   UNL     1      -8.937  10.029  64.032  1.00  0.00    -0.270 C  
HETATM   17  H   UNL     1      -6.124   7.512  64.639  1.00  0.00     0.000 HD 
HETATM   18  C   UNL     1      -8.297   9.369  62.783  1.00  0.00    -0.181 C  
BRANCH  16  19
HETATM   19  C   UNL     1      -9.782  11.233  63.687  1.00  0.00    -0.351 C  
HETATM   20  C   UNL     1     -11.015  11.478  64.165  1.00  0.00    -0.434 C  
BRANCH  20  21
HETATM   21  C   UNL     1     -11.897  12.634  63.778  1.00  0.00    -0.498 C  
HETATM   22  O   UNL     1     -13.177  12.163  63.374  1.00  0.00    -0.689 OA 
HETATM   23  H   UNL     1     -13.735  12.892  63.130  1.00  0.00     0.000 HD 
BRANCH  21  24
HETATM   24  C   UNL     1     -12.089  13.615  64.941  1.00  0.00    -0.426 C  
BRANCH  24  25
HETATM   25  C   UNL     1     -10.803  14.274  65.453  1.00  0.00    -0.348 C  
BRANCH  25  26
HETATM   26  C   UNL     1     -10.339  13.710  66.795  1.00  0.00    -0.268 C  
BRANCH  26  27
HETATM   27  C   UNL     1      -8.874  14.044  67.069  1.00  0.00    -0.234 C  
HETATM   28  C   UNL     1      -8.748  15.038  68.212  1.00  0.00    -0.166 C  
ENDBRANCH  26  27
ENDBRANCH  25  26
ENDBRANCH  24  25
ENDBRANCH  21  24
ENDBRANCH  20  21
ENDBRANCH  16  19
ENDBRANCH   9  10
ENDBRANCH   2   9
TORSDOF 11
ENDMDL
MODEL      303
REMARK 921   NORMALIZED FREE ENERGY PREDICTED BY IDOCK:   -2.72 KCAL/MOL
REMARK 922        TOTAL FREE ENERGY PREDICTED BY IDOCK:   -6.86 KCAL/MOL
REMARK 923 INTER-LIGAND FREE ENERGY PREDICTED BY IDOCK:   -5.89 KCAL/MOL
REMARK 924 INTRA-LIGAND FREE ENERGY PREDICTED BY IDOCK:   -0.98 KCAL/MOL
REMARK 927      BINDING AFFINITY PREDICTED BY RF-SCORE:    0.00 PKD
ROOT
HETATM    1  C   UNL     1      -7.061  15.339  67.258  1.00  0.00    -0.187 C  
HETATM    2  C   UNL     1      -7.781  14.388  67.871  1.00  0.00    -0.152 C  
ENDROOT
BRANCH   1   3
HETATM    3  C   UNL     1      -7.584  16.623  66.677  1.00  0.00    -0.314 C  
BRANCH   3   4
HETATM    4  C   UNL     1      -8.072  17.580  67.766  1.00  0.00    -0.221 C  
BRANCH   4   5
HETATM    5  C   UNL     1      -8.216  19.013  67.254  1.00  0.00    -0.294 C  
HETATM    6  O   UNL     1      -9.756  20.797  66.943  1.00  0.00    -0.377 OA 
HETATM    7  C   UNL     1      -9.629  19.523  67.384  1.00  0.00    -0.334 C  
HETATM    8  O   UNL     1     -10.570  18.891  67.839  1.00  0.00    -0.395 OA 
ENDBRANCH   4   5
ENDBRANCH   3   4
ENDBRANCH   1   3
BRANCH   2   9
HETATM    9  C   UNL     1      -9.275  14.379  68.051  1.00  0.00    -0.193 C  
BRANCH   9  10
HETATM   10  C   UNL     1      -9.953  13.001  67.983  1.00  0.00    -0.233 C  
HETATM   11  H   UNL     1     -12.159  12.396  64.838  1.00  0.00     0.000 HD 
HETATM   12  C   UNL     1     -11.376  13.047  68.565  1.00  0.00    -0.288 C  
HETATM   13  O   UNL     1     -12.458  12.430  65.739  1.00  0.00    -0.615 OA 
HETATM   14  O   UNL     1     -12.110  14.165  68.068  1.00  0.00    -0.485 OA 
HETATM   15  C   UNL     1     -12.020  11.780  68.028  1.00  0.00    -0.195 C  
HETATM   16  C   UNL     1     -10.160  12.433  66.552  1.00  0.00    -0.246 C  
HETATM   17  H   UNL     1     -12.989  14.194  68.428  1.00  0.00     0.000 HD 
HETATM   18  C   UNL     1     -11.539  11.725  66.578  1.00  0.00    -0.181 C  
BRANCH  16  19
HETATM   19  C   UNL     1      -9.046  11.522  66.093  1.00  0.00    -0.217 C  
HETATM   20  C   UNL     1      -9.093  10.178  66.093  1.00  0.00    -0.184 C  
BRANCH  20  21
HETATM   21  C   UNL     1      -7.969   9.256  65.707  1.00  0.00    -0.109 C  
HETATM   22  O   UNL     1      -6.756   9.672  66.324  1.00  0.00    -0.073 OA 
HETATM   23  H   UNL     1      -6.046   9.090  66.080  1.00  0.00     0.000 HD 
BRANCH  21  24
HETATM   24  C   UNL     1      -8.252   7.809  66.126  1.00  0.00    -0.123 C  
BRANCH  24  25
HETATM   25  C   UNL     1      -8.752   7.635  67.564  1.00  0.00    -0.125 C  
BRANCH  25  26
HETATM   26  C   UNL     1      -8.256   6.345  68.215  1.00  0.00    -0.116 C  
BRANCH  26  27
HETATM   27  C   UNL     1      -8.298   6.432  69.739  1.00  0.00    -0.127 C  
HETATM   28  C   UNL     1      -8.350   5.046  70.361  1.00  0.00    -0.100 C  
ENDBRANCH  26  27
ENDBRANCH  25  26
ENDBRANCH  24  25
ENDBRANCH  21  24
ENDBRANCH  20  21
ENDBRANCH  16  19
ENDBRANCH   9  10
ENDBRANCH   2   9
TORSDOF 11
ENDMDL
MODEL      304
REMARK 921   NORMALIZED FREE ENERGY PREDICTED BY IDOCK:   -2.72 KCAL/MOL
REMARK 922        TOTAL FREE ENERGY PREDICTED BY IDOCK:   -6.86 KCAL/MOL
REMARK 923 INTER-LIGAND FREE ENERGY PREDICTED BY IDOCK:   -5.35 KCAL/MOL
REMARK 924 INTRA-LIGAND FREE ENERGY PREDICTED BY IDOCK:   -1.51 KCAL/MOL
REMARK 927      BINDING AFFINITY PREDICTED BY RF-SCORE:    0.00 PKD
ROOT
HETATM    1  C   UNL     1     -10.990   6.126  72.525  1.00  0.00    -0.296 C  
HETATM    2  C   UNL     1     -10.749   5.024  71.799  1.00  0.00    -0.150 C  
ENDROOT
BRANCH   1   3
HETATM    3  C   UNL     1     -10.343   7.472  72.350  1.00  0.00    -0.277 C  
BRANCH   3   4
HETATM    4  C   UNL     1     -11.380   8.594  72.293  1.00  0.00    -0.411 C  
BRANCH   4   5
HETATM    5  C   UNL     1     -11.119   9.564  71.140  1.00  0.00    -0.450 C  
HETATM    6  O   UNL     1     -11.988  11.447  69.979  1.00  0.00    -0.310 OA 
HETATM    7  C   UNL     1     -12.223  10.580  70.991  1.00  0.00    -0.400 C  
HETATM    8  O   UNL     1     -13.222  10.647  71.691  1.00  0.00    -0.412 OA 
ENDBRANCH   4   5
ENDBRANCH   3   4
ENDBRANCH   1   3
BRANCH   2   9
HETATM    9  C   UNL     1      -9.735   4.887  70.696  1.00  0.00    -0.271 C  
BRANCH   9  10
HETATM   10  C   UNL     1      -8.829   6.106  70.459  1.00  0.00    -0.146 C  
HETATM   11  H   UNL     1      -6.791   6.032  67.147  1.00  0.00     0.000 HD 
HETATM   12  C   UNL     1      -7.399   5.846  70.958  1.00  0.00    -0.082 C  
HETATM   13  O   UNL     1      -6.437   6.018  68.028  1.00  0.00    -0.045 OA 
HETATM   14  O   UNL     1      -6.915   4.575  70.528  1.00  0.00    -0.036 OA 
HETATM   15  C   UNL     1      -6.580   6.924  70.267  1.00  0.00    -0.048 C  
HETATM   16  C   UNL     1      -8.631   6.505  68.970  1.00  0.00    -0.125 C  
HETATM   17  H   UNL     1      -6.031   4.414  70.837  1.00  0.00     0.000 HD 
HETATM   18  C   UNL     1      -7.150   6.947  68.849  1.00  0.00    -0.089 C  
BRANCH  16  19
HETATM   19  C   UNL     1      -9.596   7.565  68.493  1.00  0.00    -0.150 C  
HETATM   20  C   UNL     1      -9.527   8.201  67.309  1.00  0.00    -0.196 C  
BRANCH  20  21
HETATM   21  C   UNL     1     -10.437   9.306  66.847  1.00  0.00    -0.214 C  
HETATM   22  O   UNL     1     -11.347   9.660  67.882  1.00  0.00    -0.507 OA 
HETATM   23  H   UNL     1     -11.921  10.358  67.591  1.00  0.00     0.000 HD 
BRANCH  21  24
HETATM   24  C   UNL     1      -9.649  10.559  66.448  1.00  0.00    -0.220 C  
BRANCH  24  25
HETATM   25  C   UNL     1      -8.269  10.695  67.100  1.00  0.00    -0.121 C  
BRANCH  25  26
HETATM   26  C   UNL     1      -8.322  11.362  68.474  1.00  0.00    -0.153 C  
BRANCH  26  27
HETATM   27  C   UNL     1      -6.927  11.533  69.070  1.00  0.00    -0.112 C  
HETATM   28  C   UNL     1      -6.719  10.591  70.244  1.00  0.00    -0.127 C  
ENDBRANCH  26  27
ENDBRANCH  25  26
ENDBRANCH  24  25
ENDBRANCH  21  24
ENDBRANCH  20  21
ENDBRANCH  16  19
ENDBRANCH   9  10
ENDBRANCH   2   9
TORSDOF 11
ENDMDL
MODEL      305
REMARK 921   NORMALIZED FREE ENERGY PREDICTED BY IDOCK:   -2.68 KCAL/MOL
REMARK 922        TOTAL FREE ENERGY PREDICTED BY IDOCK:   -6.80 KCAL/MOL
REMARK 923 INTER-LIGAND FREE ENERGY PREDICTED BY IDOCK:   -5.56 KCAL/MOL
REMARK 924 INTRA-LIGAND FREE ENERGY PREDICTED BY IDOCK:   -1.23 KCAL/MOL
REMARK 927      BINDING AFFINITY PREDICTED BY RF-SCORE:    0.00 PKD
ROOT
HETATM    1  C   UNL     1      -8.359  13.571  67.426  1.00  0.00    -0.199 C  
HETATM    2  C   UNL     1      -7.381  14.396  67.828  1.00  0.00    -0.186 C  
ENDROOT
BRANCH   1   3
HETATM    3  C   UNL     1      -9.482  13.907  66.484  1.00  0.00    -0.288 C  
BRANCH   3   4
HETATM    4  C   UNL     1      -9.189  15.178  65.685  1.00  0.00     0.054 C  
BRANCH   4   5
HETATM    5  C   UNL     1     -10.467  15.906  65.268  1.00  0.00    -0.403 C  
HETATM    6  O   UNL     1     -11.441  18.051  64.953  1.00  0.00    -0.029 OA 
HETATM    7  C   UNL     1     -10.315  17.404  65.335  1.00  0.00     0.071 C  
HETATM    8  O   UNL     1      -9.304  17.998  65.678  1.00  0.00    -0.359 OA 
ENDBRANCH   4   5
ENDBRANCH   3   4
ENDBRANCH   1   3
BRANCH   2   9
HETATM    9  C   UNL     1      -7.238  15.850  67.470  1.00  0.00    -0.204 C  
BRANCH   9  10
HETATM   10  C   UNL     1      -7.337  16.845  68.638  1.00  0.00    -0.222 C  
HETATM   11  H   UNL     1      -8.478  20.433  67.661  1.00  0.00     0.000 HD 
HETATM   12  C   UNL     1      -6.041  17.657  68.793  1.00  0.00    -0.189 C  
HETATM   13  O   UNL     1      -7.635  20.187  68.023  1.00  0.00    -0.294 OA 
HETATM   14  O   UNL     1      -5.582  18.160  67.540  1.00  0.00    -0.139 OA 
HETATM   15  C   UNL     1      -6.463  18.837  69.653  1.00  0.00    -0.212 C  
HETATM   16  C   UNL     1      -8.436  17.934  68.490  1.00  0.00    -0.303 C  
HETATM   17  H   UNL     1      -4.781  18.661  67.636  1.00  0.00     0.000 HD 
HETATM   18  C   UNL     1      -7.819  19.232  69.071  1.00  0.00    -0.278 C  
BRANCH  16  19
HETATM   19  C   UNL     1      -9.747  17.566  69.146  1.00  0.00    -0.105 C  
HETATM   20  C   UNL     1     -10.240  16.319  69.249  1.00  0.00    -0.269 C  
BRANCH  20  21
HETATM   21  C   UNL     1     -11.573  15.943  69.835  1.00  0.00    -0.336 C  
HETATM   22  O   UNL     1     -12.584  15.995  68.835  1.00  0.00    -0.265 OA 
HETATM   23  H   UNL     1     -13.425  15.758  69.205  1.00  0.00     0.000 HD 
BRANCH  21  24
HETATM   24  C   UNL     1     -11.553  14.530  70.429  1.00  0.00    -0.308 C  
BRANCH  24  25
HETATM   25  C   UNL     1     -11.651  13.393  69.405  1.00  0.00    -0.365 C  
BRANCH  25  26
HETATM   26  C   UNL     1     -11.414  12.015  70.021  1.00  0.00    -0.183 C  
BRANCH  26  27
HETATM   27  C   UNL     1     -11.149  10.959  68.950  1.00  0.00    -0.307 C  
HETATM   28  C   UNL     1     -10.286   9.834  69.499  1.00  0.00    -0.247 C  
ENDBRANCH  26  27
ENDBRANCH  25  26
ENDBRANCH  24  25
ENDBRANCH  21  24
ENDBRANCH  20  21
ENDBRANCH  16  19
ENDBRANCH   9  10
ENDBRANCH   2   9
TORSDOF 11
ENDMDL
MODEL      306
REMARK 921   NORMALIZED FREE ENERGY PREDICTED BY IDOCK:   -2.67 KCAL/MOL
REMARK 922        TOTAL FREE ENERGY PREDICTED BY IDOCK:   -6.79 KCAL/MOL
REMARK 923 INTER-LIGAND FREE ENERGY PREDICTED BY IDOCK:   -5.77 KCAL/MOL
REMARK 924 INTRA-LIGAND FREE ENERGY PREDICTED BY IDOCK:   -1.02 KCAL/MOL
REMARK 927      BINDING AFFINITY PREDICTED BY RF-SCORE:    0.00 PKD
ROOT
HETATM    1  C   UNL     1     -11.186   5.391  72.771  1.00  0.00    -0.358 C  
HETATM    2  C   UNL     1     -10.773   4.155  72.453  1.00  0.00    -0.050 C  
ENDROOT
BRANCH   1   3
HETATM    3  C   UNL     1     -10.489   6.681  72.437  1.00  0.00    -0.232 C  
BRANCH   3   4
HETATM    4  C   UNL     1     -11.419   7.885  72.602  1.00  0.00    -0.454 C  
BRANCH   4   5
HETATM    5  C   UNL     1     -11.231   8.916  71.489  1.00  0.00    -0.396 C  
HETATM    6  O   UNL     1     -12.122  10.908  70.546  1.00  0.00    -0.309 OA 
HETATM    7  C   UNL     1     -12.293   9.986  71.523  1.00  0.00    -0.419 C  
HETATM    8  O   UNL     1     -13.208  10.050  72.330  1.00  0.00    -0.427 OA 
ENDBRANCH   4   5
ENDBRANCH   3   4
ENDBRANCH   1   3
BRANCH   2   9
HETATM    9  C   UNL     1      -9.492   3.797  71.749  1.00  0.00    -0.214 C  
BRANCH   9  10
HETATM   10  C   UNL     1      -8.599   4.977  71.334  1.00  0.00    -0.132 C  
HETATM   11  H   UNL     1      -6.151   4.246  68.402  1.00  0.00     0.000 HD 
HETATM   12  C   UNL     1      -7.237   4.925  72.047  1.00  0.00    -0.076 C  
HETATM   13  O   UNL     1      -5.912   4.460  69.296  1.00  0.00    -0.021 OA 
HETATM   14  O   UNL     1      -6.666   3.619  71.995  1.00  0.00    -0.018 OA 
HETATM   15  C   UNL     1      -6.368   5.857  71.218  1.00  0.00    -0.044 C  
HETATM   16  C   UNL     1      -8.222   5.026  69.828  1.00  0.00    -0.077 C  
HETATM   17  H   UNL     1      -5.825   3.588  72.436  1.00  0.00     0.000 HD 
HETATM   18  C   UNL     1      -6.751   5.513  69.780  1.00  0.00    -0.051 C  
BRANCH  16  19
HETATM   19  C   UNL     1      -9.148   5.886  68.999  1.00  0.00    -0.123 C  
HETATM   20  C   UNL     1      -9.395   5.718  67.687  1.00  0.00    -0.108 C  
BRANCH  20  21
HETATM   21  C   UNL     1     -10.258   6.605  66.832  1.00  0.00    -0.220 C  
HETATM   22  O   UNL     1     -11.556   6.729  67.403  1.00  0.00    -0.704 OA 
HETATM   23  H   UNL     1     -12.101   7.289  66.863  1.00  0.00     0.000 HD 
BRANCH  21  24
HETATM   24  C   UNL     1      -9.660   8.009  66.686  1.00  0.00    -0.297 C  
BRANCH  24  25
HETATM   25  C   UNL     1     -10.487   9.137  67.314  1.00  0.00    -0.335 C  
BRANCH  25  26
HETATM   26  C   UNL     1      -9.626  10.186  68.016  1.00  0.00    -0.160 C  
BRANCH  26  27
HETATM   27  C   UNL     1     -10.141  11.601  67.757  1.00  0.00    -0.200 C  
HETATM   28  C   UNL     1     -11.267  11.589  66.737  1.00  0.00    -0.350 C  
ENDBRANCH  26  27
ENDBRANCH  25  26
ENDBRANCH  24  25
ENDBRANCH  21  24
ENDBRANCH  20  21
ENDBRANCH  16  19
ENDBRANCH   9  10
ENDBRANCH   2   9
TORSDOF 11
ENDMDL
MODEL      307
REMARK 921   NORMALIZED FREE ENERGY PREDICTED BY IDOCK:   -2.67 KCAL/MOL
REMARK 922        TOTAL FREE ENERGY PREDICTED BY IDOCK:   -6.78 KCAL/MOL
REMARK 923 INTER-LIGAND FREE ENERGY PREDICTED BY IDOCK:   -4.67 KCAL/MOL
REMARK 924 INTRA-LIGAND FREE ENERGY PREDICTED BY IDOCK:   -2.11 KCAL/MOL
REMARK 927      BINDING AFFINITY PREDICTED BY RF-SCORE:    0.00 PKD
ROOT
HETATM    1  C   UNL     1      -7.643   4.591  71.790  1.00  0.00    -0.075 C  
HETATM    2  C   UNL     1      -8.596   4.472  70.853  1.00  0.00    -0.115 C  
ENDROOT
BRANCH   1   3
HETATM    3  C   UNL     1      -7.856   4.874  73.251  1.00  0.00    -0.097 C  
BRANCH   3   4
HETATM    4  C   UNL     1      -6.873   5.923  73.772  1.00  0.00    -0.081 C  
BRANCH   4   5
HETATM    5  C   UNL     1      -6.579   7.006  72.734  1.00  0.00    -0.061 C  
HETATM    6  O   UNL     1      -6.817   9.322  72.254  1.00  0.00    -0.299 OA 
HETATM    7  C   UNL     1      -7.087   8.359  73.166  1.00  0.00    -0.069 C  
HETATM    8  O   UNL     1      -7.668   8.595  74.214  1.00  0.00    -0.390 OA 
ENDBRANCH   4   5
ENDBRANCH   3   4
ENDBRANCH   1   3
BRANCH   2   9
HETATM    9  C   UNL     1     -10.076   4.657  71.057  1.00  0.00    -0.246 C  
BRANCH   9  10
HETATM   10  C   UNL     1     -10.663   5.986  70.555  1.00  0.00    -0.349 C  
HETATM   11  H   UNL     1      -9.601   9.133  72.579  1.00  0.00     0.000 HD 
HETATM   12  C   UNL     1     -11.955   6.346  71.306  1.00  0.00    -0.227 C  
HETATM   13  O   UNL     1     -10.481   8.784  72.498  1.00  0.00    -0.255 OA 
HETATM   14  O   UNL     1     -11.806   6.185  72.716  1.00  0.00    -0.499 OA 
HETATM   15  C   UNL     1     -12.135   7.826  71.014  1.00  0.00    -0.264 C  
HETATM   16  C   UNL     1      -9.759   7.232  70.763  1.00  0.00    -0.171 C  
HETATM   17  H   UNL     1     -12.604   6.407  73.180  1.00  0.00     0.000 HD 
HETATM   18  C   UNL     1     -10.720   8.388  71.145  1.00  0.00    -0.230 C  
BRANCH  16  19
HETATM   19  C   UNL     1      -8.896   7.562  69.568  1.00  0.00    -0.137 C  
HETATM   20  C   UNL     1      -9.294   7.505  68.284  1.00  0.00    -0.141 C  
BRANCH  20  21
HETATM   21  C   UNL     1      -8.429   7.762  67.081  1.00  0.00    -0.124 C  
HETATM   22  O   UNL     1      -7.055   7.620  67.422  1.00  0.00    -0.081 OA 
HETATM   23  H   UNL     1      -6.509   7.782  66.662  1.00  0.00     0.000 HD 
BRANCH  21  24
HETATM   24  C   UNL     1      -8.745   6.792  65.937  1.00  0.00    -0.147 C  
BRANCH  24  25
HETATM   25  C   UNL     1      -9.575   5.566  66.336  1.00  0.00    -0.174 C  
BRANCH  25  26
HETATM   26  C   UNL     1      -8.715   4.353  66.686  1.00  0.00    -0.112 C  
BRANCH  26  27
HETATM   27  C   UNL     1      -8.920   3.212  65.691  1.00  0.00    -0.145 C  
HETATM   28  C   UNL     1      -9.905   3.611  64.604  1.00  0.00    -0.181 C  
ENDBRANCH  26  27
ENDBRANCH  25  26
ENDBRANCH  24  25
ENDBRANCH  21  24
ENDBRANCH  20  21
ENDBRANCH  16  19
ENDBRANCH   9  10
ENDBRANCH   2   9
TORSDOF 11
ENDMDL
MODEL      308
REMARK 921   NORMALIZED FREE ENERGY PREDICTED BY IDOCK:   -2.67 KCAL/MOL
REMARK 922        TOTAL FREE ENERGY PREDICTED BY IDOCK:   -6.78 KCAL/MOL
REMARK 923 INTER-LIGAND FREE ENERGY PREDICTED BY IDOCK:   -6.61 KCAL/MOL
REMARK 924 INTRA-LIGAND FREE ENERGY PREDICTED BY IDOCK:   -0.17 KCAL/MOL
REMARK 927      BINDING AFFINITY PREDICTED BY RF-SCORE:    0.00 PKD
ROOT
HETATM    1  C   UNL     1      -9.751  11.838  64.451  1.00  0.00    -0.166 C  
HETATM    2  C   UNL     1      -9.058  10.872  65.071  1.00  0.00    -0.209 C  
ENDROOT
BRANCH   1   3
HETATM    3  C   UNL     1     -11.063  11.679  63.734  1.00  0.00    -0.499 C  
BRANCH   3   4
HETATM    4  C   UNL     1     -12.250  11.916  64.669  1.00  0.00    -0.176 C  
BRANCH   4   5
HETATM    5  C   UNL     1     -11.895  12.843  65.831  1.00  0.00    -0.476 C  
HETATM    6  O   UNL     1     -11.993  15.093  66.593  1.00  0.00    -0.081 OA 
HETATM    7  C   UNL     1     -12.296  14.272  65.560  1.00  0.00    -0.408 C  
HETATM    8  O   UNL     1     -12.841  14.673  64.544  1.00  0.00    -0.579 OA 
ENDBRANCH   4   5
ENDBRANCH   3   4
ENDBRANCH   1   3
BRANCH   2   9
HETATM    9  C   UNL     1      -9.418   9.411  65.126  1.00  0.00    -0.255 C  
BRANCH   9  10
HETATM   10  C   UNL     1      -8.564   8.542  66.063  1.00  0.00    -0.162 C  
HETATM   11  H   UNL     1      -8.132   9.932  69.670  1.00  0.00     0.000 HD 
HETATM   12  C   UNL     1      -7.096   8.999  66.066  1.00  0.00    -0.085 C  
HETATM   13  O   UNL     1      -7.444   9.807  69.027  1.00  0.00    -0.074 OA 
HETATM   14  O   UNL     1      -6.986  10.415  66.202  1.00  0.00    -0.111 OA 
HETATM   15  C   UNL     1      -6.527   8.356  67.321  1.00  0.00    -0.058 C  
HETATM   16  C   UNL     1      -8.966   8.591  67.563  1.00  0.00    -0.142 C  
HETATM   17  H   UNL     1      -6.079  10.697  66.204  1.00  0.00     0.000 HD 
HETATM   18  C   UNL     1      -7.634   8.558  68.355  1.00  0.00    -0.096 C  
BRANCH  16  19
HETATM   19  C   UNL     1      -9.915   7.489  67.972  1.00  0.00    -0.204 C  
HETATM   20  C   UNL     1     -10.562   7.420  69.150  1.00  0.00    -0.213 C  
BRANCH  20  21
HETATM   21  C   UNL     1     -11.455   6.296  69.601  1.00  0.00    -0.355 C  
HETATM   22  O   UNL     1     -10.702   5.097  69.745  1.00  0.00    -0.225 OA 
HETATM   23  H   UNL     1     -11.265   4.387  70.030  1.00  0.00     0.000 HD 
BRANCH  21  24
HETATM   24  C   UNL     1     -12.126   6.609  70.943  1.00  0.00    -0.379 C  
BRANCH  24  25
HETATM   25  C   UNL     1     -11.216   7.265  71.988  1.00  0.00    -0.285 C  
BRANCH  25  26
HETATM   26  C   UNL     1     -11.593   8.717  72.279  1.00  0.00    -0.424 C  
BRANCH  26  27
HETATM   27  C   UNL     1     -12.979   9.058  71.733  1.00  0.00    -0.436 C  
HETATM   28  C   UNL     1     -13.069  10.529  71.363  1.00  0.00    -0.509 C  
ENDBRANCH  26  27
ENDBRANCH  25  26
ENDBRANCH  24  25
ENDBRANCH  21  24
ENDBRANCH  20  21
ENDBRANCH  16  19
ENDBRANCH   9  10
ENDBRANCH   2   9
TORSDOF 11
ENDMDL
MODEL      309
REMARK 921   NORMALIZED FREE ENERGY PREDICTED BY IDOCK:   -2.66 KCAL/MOL
REMARK 922        TOTAL FREE ENERGY PREDICTED BY IDOCK:   -6.77 KCAL/MOL
REMARK 923 INTER-LIGAND FREE ENERGY PREDICTED BY IDOCK:   -4.88 KCAL/MOL
REMARK 924 INTRA-LIGAND FREE ENERGY PREDICTED BY IDOCK:   -1.90 KCAL/MOL
REMARK 927      BINDING AFFINITY PREDICTED BY RF-SCORE:    0.00 PKD
ROOT
HETATM    1  C   UNL     1      -9.743   3.605  72.969  1.00  0.00    -0.175 C  
HETATM    2  C   UNL     1     -10.886   4.039  72.417  1.00  0.00     0.066 C  
ENDROOT
BRANCH   1   3
HETATM    3  C   UNL     1      -8.970   4.275  74.071  1.00  0.00    -0.094 C  
BRANCH   3   4
HETATM    4  C   UNL     1      -7.485   3.913  74.020  1.00  0.00    -0.066 C  
BRANCH   4   5
HETATM    5  C   UNL     1      -6.586   5.123  74.274  1.00  0.00    -0.074 C  
HETATM    6  O   UNL     1      -5.750   7.131  73.314  1.00  0.00    -0.045 OA 
HETATM    7  C   UNL     1      -6.536   6.052  73.087  1.00  0.00    -0.068 C  
HETATM    8  O   UNL     1      -7.131   5.886  72.033  1.00  0.00    -0.082 OA 
ENDBRANCH   4   5
ENDBRANCH   3   4
ENDBRANCH   1   3
BRANCH   2   9
HETATM    9  C   UNL     1     -11.604   5.320  72.745  1.00  0.00    -0.270 C  
BRANCH   9  10
HETATM   10  C   UNL     1     -11.838   6.281  71.567  1.00  0.00    -0.291 C  
HETATM   11  H   UNL     1      -9.081   8.977  71.062  1.00  0.00     0.000 HD 
HETATM   12  C   UNL     1     -12.546   7.566  72.025  1.00  0.00    -0.237 C  
HETATM   13  O   UNL     1      -9.990   9.135  71.290  1.00  0.00    -0.280 OA 
HETATM   14  O   UNL     1     -11.948   8.104  73.203  1.00  0.00    -0.600 OA 
HETATM   15  C   UNL     1     -12.298   8.535  70.881  1.00  0.00    -0.055 C  
HETATM   16  C   UNL     1     -10.550   6.800  70.870  1.00  0.00    -0.252 C  
HETATM   17  H   UNL     1     -12.387   8.898  73.486  1.00  0.00     0.000 HD 
HETATM   18  C   UNL     1     -10.836   8.282  70.514  1.00  0.00    -0.232 C  
BRANCH  16  19
HETATM   19  C   UNL     1     -10.137   5.982  69.669  1.00  0.00    -0.244 C  
HETATM   20  C   UNL     1     -10.760   5.985  68.477  1.00  0.00    -0.354 C  
BRANCH  20  21
HETATM   21  C   UNL     1     -10.406   5.125  67.295  1.00  0.00    -0.168 C  
HETATM   22  O   UNL     1     -11.075   5.591  66.129  1.00  0.00    -0.747 OA 
HETATM   23  H   UNL     1     -10.852   5.049  65.382  1.00  0.00     0.000 HD 
BRANCH  21  24
HETATM   24  C   UNL     1      -8.898   5.131  67.020  1.00  0.00    -0.109 C  
BRANCH  24  25
HETATM   25  C   UNL     1      -8.108   4.007  67.702  1.00  0.00    -0.090 C  
BRANCH  25  26
HETATM   26  C   UNL     1      -8.878   2.688  67.757  1.00  0.00    -0.160 C  
BRANCH  26  27
HETATM   27  C   UNL     1      -9.212   2.292  69.193  1.00  0.00    -0.194 C  
HETATM   28  C   UNL     1      -7.967   2.304  70.063  1.00  0.00    -0.053 C  
ENDBRANCH  26  27
ENDBRANCH  25  26
ENDBRANCH  24  25
ENDBRANCH  21  24
ENDBRANCH  20  21
ENDBRANCH  16  19
ENDBRANCH   9  10
ENDBRANCH   2   9
TORSDOF 11
ENDMDL
MODEL      310
REMARK 921   NORMALIZED FREE ENERGY PREDICTED BY IDOCK:   -2.59 KCAL/MOL
REMARK 922        TOTAL FREE ENERGY PREDICTED BY IDOCK:   -6.66 KCAL/MOL
REMARK 923 INTER-LIGAND FREE ENERGY PREDICTED BY IDOCK:   -5.24 KCAL/MOL
REMARK 924 INTRA-LIGAND FREE ENERGY PREDICTED BY IDOCK:   -1.42 KCAL/MOL
REMARK 927      BINDING AFFINITY PREDICTED BY RF-SCORE:    0.00 PKD
ROOT
HETATM    1  C   UNL     1      -8.205   8.244  65.663  1.00  0.00    -0.134 C  
HETATM    2  C   UNL     1      -9.475   8.662  65.768  1.00  0.00    -0.192 C  
ENDROOT
BRANCH   1   3
HETATM    3  C   UNL     1      -7.511   7.258  66.561  1.00  0.00    -0.088 C  
BRANCH   3   4
HETATM    4  C   UNL     1      -6.997   6.047  65.781  1.00  0.00    -0.061 C  
BRANCH   4   5
HETATM    5  C   UNL     1      -8.098   5.018  65.521  1.00  0.00    -0.115 C  
HETATM    6  O   UNL     1      -9.466   4.052  63.834  1.00  0.00    -0.148 OA 
HETATM    7  C   UNL     1      -8.501   4.972  64.069  1.00  0.00    -0.135 C  
HETATM    8  O   UNL     1      -8.025   5.661  63.180  1.00  0.00    -0.090 OA 
ENDBRANCH   4   5
ENDBRANCH   3   4
ENDBRANCH   1   3
BRANCH   2   9
HETATM    9  C   UNL     1     -10.454   8.279  66.844  1.00  0.00    -0.365 C  
BRANCH   9  10
HETATM   10  C   UNL     1     -10.466   9.174  68.094  1.00  0.00    -0.260 C  
HETATM   11  H   UNL     1      -6.975   9.882  69.654  1.00  0.00     0.000 HD 
HETATM   12  C   UNL     1     -10.505   8.336  69.382  1.00  0.00    -0.220 C  
HETATM   13  O   UNL     1      -7.690   9.408  70.062  1.00  0.00    -0.089 OA 
HETATM   14  O   UNL     1      -9.556   7.272  69.346  1.00  0.00    -0.154 OA 
HETATM   15  C   UNL     1     -10.075   9.320  70.458  1.00  0.00    -0.313 C  
HETATM   16  C   UNL     1      -9.212  10.072  68.278  1.00  0.00    -0.129 C  
HETATM   17  H   UNL     1      -9.580   6.754  70.142  1.00  0.00     0.000 HD 
HETATM   18  C   UNL     1      -8.924  10.082  69.802  1.00  0.00    -0.185 C  
BRANCH  16  19
HETATM   19  C   UNL     1      -9.371  11.461  67.706  1.00  0.00    -0.162 C  
HETATM   20  C   UNL     1     -10.499  12.192  67.747  1.00  0.00    -0.222 C  
BRANCH  20  21
HETATM   21  C   UNL     1     -10.696  13.547  67.122  1.00  0.00    -0.279 C  
HETATM   22  O   UNL     1     -12.074  13.901  67.138  1.00  0.00    -0.407 OA 
HETATM   23  H   UNL     1     -12.199  14.756  66.743  1.00  0.00     0.000 HD 
BRANCH  21  24
HETATM   24  C   UNL     1      -9.910  14.633  67.864  1.00  0.00    -0.217 C  
BRANCH  24  25
HETATM   25  C   UNL     1     -10.478  15.028  69.232  1.00  0.00    -0.252 C  
BRANCH  25  26
HETATM   26  C   UNL     1     -10.700  16.533  69.374  1.00  0.00    -0.330 C  
BRANCH  26  27
HETATM   27  C   UNL     1     -10.896  17.202  68.015  1.00  0.00    -0.317 C  
HETATM   28  C   UNL     1     -10.014  18.433  67.884  1.00  0.00    -0.370 C  
ENDBRANCH  26  27
ENDBRANCH  25  26
ENDBRANCH  24  25
ENDBRANCH  21  24
ENDBRANCH  20  21
ENDBRANCH  16  19
ENDBRANCH   9  10
ENDBRANCH   2   9
TORSDOF 11
ENDMDL
MODEL      311
REMARK 921   NORMALIZED FREE ENERGY PREDICTED BY IDOCK:   -2.58 KCAL/MOL
REMARK 922        TOTAL FREE ENERGY PREDICTED BY IDOCK:   -6.64 KCAL/MOL
REMARK 923 INTER-LIGAND FREE ENERGY PREDICTED BY IDOCK:   -5.67 KCAL/MOL
REMARK 924 INTRA-LIGAND FREE ENERGY PREDICTED BY IDOCK:   -0.96 KCAL/MOL
REMARK 927      BINDING AFFINITY PREDICTED BY RF-SCORE:    0.00 PKD
ROOT
HETATM    1  C   UNL     1      -9.410  12.135  68.171  1.00  0.00    -0.204 C  
HETATM    2  C   UNL     1      -8.304  11.381  68.263  1.00  0.00    -0.152 C  
ENDROOT
BRANCH   1   3
HETATM    3  C   UNL     1     -10.816  11.641  67.974  1.00  0.00    -0.259 C  
BRANCH   3   4
HETATM    4  C   UNL     1     -11.647  12.620  67.143  1.00  0.00    -0.434 C  
BRANCH   4   5
HETATM    5  C   UNL     1     -11.338  12.517  65.649  1.00  0.00    -0.372 C  
HETATM    6  O   UNL     1     -12.096  13.137  63.484  1.00  0.00    -0.526 OA 
HETATM    7  C   UNL     1     -12.375  13.216  64.806  1.00  0.00    -0.423 C  
HETATM    8  O   UNL     1     -13.356  13.804  65.234  1.00  0.00    -0.710 OA 
ENDBRANCH   4   5
ENDBRANCH   3   4
ENDBRANCH   1   3
BRANCH   2   9
HETATM    9  C   UNL     1      -8.232   9.884  68.127  1.00  0.00    -0.109 C  
BRANCH   9  10
HETATM   10  C   UNL     1      -8.360   9.331  66.698  1.00  0.00    -0.122 C  
HETATM   11  H   UNL     1      -5.132   7.708  65.260  1.00  0.00     0.000 HD 
HETATM   12  C   UNL     1      -7.908  10.366  65.655  1.00  0.00    -0.154 C  
HETATM   13  O   UNL     1      -5.567   8.486  64.931  1.00  0.00    -0.046 OA 
HETATM   14  O   UNL     1      -6.667  10.969  66.017  1.00  0.00    -0.273 OA 
HETATM   15  C   UNL     1      -7.683   9.533  64.404  1.00  0.00    -0.123 C  
HETATM   16  C   UNL     1      -7.480   8.088  66.387  1.00  0.00    -0.087 C  
HETATM   17  H   UNL     1      -6.388  11.609  65.373  1.00  0.00     0.000 HD 
HETATM   18  C   UNL     1      -6.983   8.282  64.931  1.00  0.00    -0.074 C  
BRANCH  16  19
HETATM   19  C   UNL     1      -8.196   6.773  66.589  1.00  0.00    -0.115 C  
HETATM   20  C   UNL     1      -9.352   6.420  65.998  1.00  0.00    -0.053 C  
BRANCH  20  21
HETATM   21  C   UNL     1     -10.113   5.145  66.240  1.00  0.00    -0.231 C  
HETATM   22  O   UNL     1     -11.355   5.174  65.547  1.00  0.00    -0.798 OA 
HETATM   23  H   UNL     1     -11.836   4.369  65.699  1.00  0.00     0.000 HD 
BRANCH  21  24
HETATM   24  C   UNL     1      -9.326   3.917  65.769  1.00  0.00    -0.162 C  
BRANCH  24  25
HETATM   25  C   UNL     1      -9.952   3.154  64.596  1.00  0.00    -0.045 C  
BRANCH  25  26
HETATM   26  C   UNL     1      -9.167   3.312  63.295  1.00  0.00    -0.095 C  
BRANCH  26  27
HETATM   27  C   UNL     1      -7.662   3.374  63.552  1.00  0.00    -0.068 C  
HETATM   28  C   UNL     1      -7.069   4.655  62.989  1.00  0.00    -0.039 C  
ENDBRANCH  26  27
ENDBRANCH  25  26
ENDBRANCH  24  25
ENDBRANCH  21  24
ENDBRANCH  20  21
ENDBRANCH  16  19
ENDBRANCH   9  10
ENDBRANCH   2   9
TORSDOF 11
ENDMDL
MODEL      312
REMARK 921   NORMALIZED FREE ENERGY PREDICTED BY IDOCK:   -2.55 KCAL/MOL
REMARK 922        TOTAL FREE ENERGY PREDICTED BY IDOCK:   -6.58 KCAL/MOL
REMARK 923 INTER-LIGAND FREE ENERGY PREDICTED BY IDOCK:   -5.57 KCAL/MOL
REMARK 924 INTRA-LIGAND FREE ENERGY PREDICTED BY IDOCK:   -1.02 KCAL/MOL
REMARK 927      BINDING AFFINITY PREDICTED BY RF-SCORE:    0.00 PKD
ROOT
HETATM    1  C   UNL     1      -8.184  20.488  67.059  1.00  0.00    -0.314 C  
HETATM    2  C   UNL     1      -7.966  20.164  68.342  1.00  0.00    -0.088 C  
ENDROOT
BRANCH   1   3
HETATM    3  C   UNL     1      -8.769  19.596  65.999  1.00  0.00    -0.265 C  
BRANCH   3   4
HETATM    4  C   UNL     1     -10.079  18.956  66.459  1.00  0.00    -0.447 C  
BRANCH   4   5
HETATM    5  C   UNL     1     -10.967  18.548  65.283  1.00  0.00     0.683 C  
HETATM    6  O   UNL     1     -11.635  16.714  63.926  1.00  0.00    -1.204 OA 
HETATM    7  C   UNL     1     -10.840  17.080  64.959  1.00  0.00    -0.006 C  
HETATM    8  O   UNL     1     -10.123  16.285  65.546  1.00  0.00    -0.477 OA 
ENDBRANCH   4   5
ENDBRANCH   3   4
ENDBRANCH   1   3
BRANCH   2   9
HETATM    9  C   UNL     1      -8.205  18.821  68.977  1.00  0.00    -0.163 C  
BRANCH   9  10
HETATM   10  C   UNL     1      -7.427  17.642  68.370  1.00  0.00    -0.253 C  
HETATM   11  H   UNL     1      -6.141  15.015  70.933  1.00  0.00     0.000 HD 
HETATM   12  C   UNL     1      -5.912  17.906  68.380  1.00  0.00    -0.174 C  
HETATM   13  O   UNL     1      -5.606  15.572  70.380  1.00  0.00    -0.142 OA 
HETATM   14  O   UNL     1      -5.474  18.401  69.644  1.00  0.00    -0.192 OA 
HETATM   15  C   UNL     1      -5.310  16.525  68.176  1.00  0.00    -0.110 C  
HETATM   16  C   UNL     1      -7.569  16.293  69.128  1.00  0.00    -0.227 C  
HETATM   17  H   UNL     1      -4.538  18.564  69.651  1.00  0.00     0.000 HD 
HETATM   18  C   UNL     1      -6.169  15.629  69.066  1.00  0.00    -0.113 C  
BRANCH  16  19
HETATM   19  C   UNL     1      -8.661  15.403  68.582  1.00  0.00    -0.191 C  
HETATM   20  C   UNL     1      -8.465  14.219  67.973  1.00  0.00    -0.164 C  
BRANCH  20  21
HETATM   21  C   UNL     1      -9.534  13.354  67.363  1.00  0.00    -0.222 C  
HETATM   22  O   UNL     1      -9.417  13.353  65.945  1.00  0.00    -0.474 OA 
HETATM   23  H   UNL     1     -10.091  12.807  65.559  1.00  0.00     0.000 HD 
BRANCH  21  24
HETATM   24  C   UNL     1      -9.441  11.905  67.856  1.00  0.00    -0.194 C  
BRANCH  24  25
HETATM   25  C   UNL     1     -10.741  11.099  67.755  1.00  0.00    -0.267 C  
BRANCH  25  26
HETATM   26  C   UNL     1     -10.572   9.792  66.981  1.00  0.00    -0.269 C  
BRANCH  26  27
HETATM   27  C   UNL     1      -9.495   8.906  67.604  1.00  0.00    -0.164 C  
HETATM   28  C   UNL     1      -8.564   8.353  66.537  1.00  0.00    -0.128 C  
ENDBRANCH  26  27
ENDBRANCH  25  26
ENDBRANCH  24  25
ENDBRANCH  21  24
ENDBRANCH  20  21
ENDBRANCH  16  19
ENDBRANCH   9  10
ENDBRANCH   2   9
TORSDOF 11
ENDMDL
MODEL      313
REMARK 921   NORMALIZED FREE ENERGY PREDICTED BY IDOCK:   -2.55 KCAL/MOL
REMARK 922        TOTAL FREE ENERGY PREDICTED BY IDOCK:   -6.58 KCAL/MOL
REMARK 923 INTER-LIGAND FREE ENERGY PREDICTED BY IDOCK:   -5.75 KCAL/MOL
REMARK 924 INTRA-LIGAND FREE ENERGY PREDICTED BY IDOCK:   -0.83 KCAL/MOL
REMARK 927      BINDING AFFINITY PREDICTED BY RF-SCORE:    0.00 PKD
ROOT
HETATM    1  C   UNL     1      -5.787  17.162  68.521  1.00  0.00    -0.142 C  
HETATM    2  C   UNL     1      -7.033  17.250  69.009  1.00  0.00    -0.235 C  
ENDROOT
BRANCH   1   3
HETATM    3  C   UNL     1      -5.387  17.221  67.073  1.00  0.00    -0.183 C  
BRANCH   3   4
HETATM    4  C   UNL     1      -6.305  18.143  66.270  1.00  0.00    -0.249 C  
BRANCH   4   5
HETATM    5  C   UNL     1      -5.719  19.546  66.111  1.00  0.00    -0.173 C  
HETATM    6  O   UNL     1      -5.131  21.213  64.521  1.00  0.00    -0.199 OA 
HETATM    7  C   UNL     1      -5.637  19.966  64.664  1.00  0.00    -0.194 C  
HETATM    8  O   UNL     1      -5.989  19.289  63.710  1.00  0.00    -0.444 OA 
ENDBRANCH   4   5
ENDBRANCH   3   4
ENDBRANCH   1   3
BRANCH   2   9
HETATM    9  C   UNL     1      -8.300  17.365  68.205  1.00  0.00    -0.240 C  
BRANCH   9  10
HETATM   10  C   UNL     1      -9.195  16.116  68.175  1.00  0.00    -0.193 C  
HETATM   11  H   UNL     1      -9.498  14.382  64.706  1.00  0.00     0.000 HD 
HETATM   12  C   UNL     1     -10.632  16.466  67.756  1.00  0.00    -0.321 C  
HETATM   13  O   UNL     1     -10.200  14.798  65.193  1.00  0.00    -0.381 OA 
HETATM   14  O   UNL     1     -10.653  17.317  66.611  1.00  0.00    -0.278 OA 
HETATM   15  C   UNL     1     -11.224  15.123  67.361  1.00  0.00    -0.323 C  
HETATM   16  C   UNL     1      -8.772  15.022  67.155  1.00  0.00    -0.242 C  
HETATM   17  H   UNL     1     -11.541  17.533  66.352  1.00  0.00     0.000 HD 
HETATM   18  C   UNL     1     -10.095  14.455  66.578  1.00  0.00    -0.276 C  
BRANCH  16  19
HETATM   19  C   UNL     1      -7.888  13.950  67.748  1.00  0.00    -0.172 C  
HETATM   20  C   UNL     1      -8.304  12.736  68.150  1.00  0.00    -0.172 C  
BRANCH  20  21
HETATM   21  C   UNL     1      -7.452  11.683  68.805  1.00  0.00    -0.114 C  
HETATM   22  O   UNL     1      -6.777  12.228  69.933  1.00  0.00    -0.353 OA 
HETATM   23  H   UNL     1      -6.239  11.564  70.347  1.00  0.00     0.000 HD 
BRANCH  21  24
HETATM   24  C   UNL     1      -8.289  10.487  69.274  1.00  0.00    -0.144 C  
BRANCH  24  25
HETATM   25  C   UNL     1      -7.695   9.111  68.950  1.00  0.00    -0.083 C  
BRANCH  25  26
HETATM   26  C   UNL     1      -8.104   8.598  67.570  1.00  0.00    -0.106 C  
BRANCH  26  27
HETATM   27  C   UNL     1      -9.215   7.554  67.665  1.00  0.00    -0.135 C  
HETATM   28  C   UNL     1     -10.531   8.116  67.154  1.00  0.00    -0.396 C  
ENDBRANCH  26  27
ENDBRANCH  25  26
ENDBRANCH  24  25
ENDBRANCH  21  24
ENDBRANCH  20  21
ENDBRANCH  16  19
ENDBRANCH   9  10
ENDBRANCH   2   9
TORSDOF 11
ENDMDL
MODEL      314
REMARK 921   NORMALIZED FREE ENERGY PREDICTED BY IDOCK:   -2.52 KCAL/MOL
REMARK 922        TOTAL FREE ENERGY PREDICTED BY IDOCK:   -6.53 KCAL/MOL
REMARK 923 INTER-LIGAND FREE ENERGY PREDICTED BY IDOCK:   -4.53 KCAL/MOL
REMARK 924 INTRA-LIGAND FREE ENERGY PREDICTED BY IDOCK:   -2.00 KCAL/MOL
REMARK 927      BINDING AFFINITY PREDICTED BY RF-SCORE:    0.00 PKD
ROOT
HETATM    1  C   UNL     1     -12.703   9.668  71.029  1.00  0.00    -0.354 C  
HETATM    2  C   UNL     1     -11.390   9.931  70.953  1.00  0.00    -0.446 C  
ENDROOT
BRANCH   1   3
HETATM    3  C   UNL     1     -13.380   8.765  72.022  1.00  0.00    -0.455 C  
BRANCH   3   4
HETATM    4  C   UNL     1     -13.374   7.308  71.556  1.00  0.00    -0.435 C  
BRANCH   4   5
HETATM    5  C   UNL     1     -12.075   6.589  71.923  1.00  0.00    -0.388 C  
HETATM    6  O   UNL     1     -11.179   4.698  73.051  1.00  0.00    -0.253 OA 
HETATM    7  C   UNL     1     -12.326   5.344  72.736  1.00  0.00     0.306 C  
HETATM    8  O   UNL     1     -13.424   4.931  73.077  1.00  0.00     0.553 OA 
ENDBRANCH   4   5
ENDBRANCH   3   4
ENDBRANCH   1   3
BRANCH   2   9
HETATM    9  C   UNL     1     -10.310   9.328  71.809  1.00  0.00    -0.204 C  
BRANCH   9  10
HETATM   10  C   UNL     1      -8.999   8.972  71.088  1.00  0.00    -0.303 C  
HETATM   11  H   UNL     1      -8.714   5.279  69.903  1.00  0.00     0.000 HD 
HETATM   12  C   UNL     1      -7.963   8.392  72.064  1.00  0.00    -0.135 C  
HETATM   13  O   UNL     1      -8.169   5.707  70.552  1.00  0.00    -0.112 OA 
HETATM   14  O   UNL     1      -8.537   7.398  72.911  1.00  0.00    -0.117 OA 
HETATM   15  C   UNL     1      -6.956   7.713  71.150  1.00  0.00    -0.050 C  
HETATM   16  C   UNL     1      -9.122   7.878  69.991  1.00  0.00    -0.152 C  
HETATM   17  H   UNL     1      -7.897   7.040  73.514  1.00  0.00     0.000 HD 
HETATM   18  C   UNL     1      -7.833   7.024  70.106  1.00  0.00    -0.109 C  
BRANCH  16  19
HETATM   19  C   UNL     1      -9.330   8.434  68.601  1.00  0.00    -0.143 C  
HETATM   20  C   UNL     1      -8.349   8.746  67.735  1.00  0.00    -0.118 C  
BRANCH  20  21
HETATM   21  C   UNL     1      -8.536   9.364  66.377  1.00  0.00    -0.126 C  
HETATM   22  O   UNL     1      -8.065   8.481  65.365  1.00  0.00    -0.112 OA 
HETATM   23  H   UNL     1      -8.183   8.871  64.507  1.00  0.00     0.000 HD 
BRANCH  21  24
HETATM   24  C   UNL     1     -10.009   9.680  66.095  1.00  0.00    -0.346 C  
BRANCH  24  25
HETATM   25  C   UNL     1     -10.359  11.172  66.058  1.00  0.00    -0.308 C  
BRANCH  25  26
HETATM   26  C   UNL     1     -10.935  11.681  67.379  1.00  0.00    -0.313 C  
BRANCH  26  27
HETATM   27  C   UNL     1      -9.842  12.225  68.296  1.00  0.00    -0.217 C  
HETATM   28  C   UNL     1      -8.785  12.971  67.498  1.00  0.00    -0.197 C  
ENDBRANCH  26  27
ENDBRANCH  25  26
ENDBRANCH  24  25
ENDBRANCH  21  24
ENDBRANCH  20  21
ENDBRANCH  16  19
ENDBRANCH   9  10
ENDBRANCH   2   9
TORSDOF 11
ENDMDL
MODEL      315
REMARK 921   NORMALIZED FREE ENERGY PREDICTED BY IDOCK:   -2.49 KCAL/MOL
REMARK 922        TOTAL FREE ENERGY PREDICTED BY IDOCK:   -6.48 KCAL/MOL
REMARK 923 INTER-LIGAND FREE ENERGY PREDICTED BY IDOCK:   -4.70 KCAL/MOL
REMARK 924 INTRA-LIGAND FREE ENERGY PREDICTED BY IDOCK:   -1.78 KCAL/MOL
REMARK 927      BINDING AFFINITY PREDICTED BY RF-SCORE:    0.00 PKD
ROOT
HETATM    1  C   UNL     1      -9.375  11.218  68.643  1.00  0.00    -0.167 C  
HETATM    2  C   UNL     1      -9.136  11.321  67.327  1.00  0.00    -0.156 C  
ENDROOT
BRANCH   1   3
HETATM    3  C   UNL     1     -10.705  10.960  69.294  1.00  0.00    -0.271 C  
BRANCH   3   4
HETATM    4  C   UNL     1     -11.029   9.466  69.344  1.00  0.00    -0.165 C  
BRANCH   4   5
HETATM    5  C   UNL     1     -11.090   8.936  70.777  1.00  0.00    -0.312 C  
HETATM    6  O   UNL     1     -12.510   8.650  72.662  1.00  0.00    -0.375 OA 
HETATM    7  C   UNL     1     -12.450   9.131  71.397  1.00  0.00    -0.328 C  
HETATM    8  O   UNL     1     -13.411   9.648  70.848  1.00  0.00    -0.272 OA 
ENDBRANCH   4   5
ENDBRANCH   3   4
ENDBRANCH   1   3
BRANCH   2   9
HETATM    9  C   UNL     1     -10.162  11.260  66.228  1.00  0.00    -0.280 C  
BRANCH   9  10
HETATM   10  C   UNL     1      -9.990  10.121  65.209  1.00  0.00    -0.381 C  
HETATM   11  H   UNL     1      -6.394   8.664  64.949  1.00  0.00     0.000 HD 
HETATM   12  C   UNL     1      -9.517  10.654  63.848  1.00  0.00    -0.282 C  
HETATM   13  O   UNL     1      -6.868   9.121  64.265  1.00  0.00    -0.083 OA 
HETATM   14  O   UNL     1      -8.437  11.575  63.991  1.00  0.00    -0.093 OA 
HETATM   15  C   UNL     1      -8.993   9.413  63.143  1.00  0.00    -0.166 C  
HETATM   16  C   UNL     1      -8.920   9.057  65.579  1.00  0.00    -0.252 C  
HETATM   17  H   UNL     1      -8.145  11.905  63.149  1.00  0.00     0.000 HD 
HETATM   18  C   UNL     1      -8.228   8.678  64.244  1.00  0.00    -0.158 C  
BRANCH  16  19
HETATM   19  C   UNL     1      -9.482   7.857  66.305  1.00  0.00    -0.220 C  
HETATM   20  C   UNL     1      -8.973   6.613  66.258  1.00  0.00    -0.168 C  
BRANCH  20  21
HETATM   21  C   UNL     1      -9.559   5.394  66.917  1.00  0.00    -0.142 C  
HETATM   22  O   UNL     1      -9.491   4.278  66.036  1.00  0.00    -0.150 OA 
HETATM   23  H   UNL     1      -9.861   3.508  66.452  1.00  0.00     0.000 HD 
BRANCH  21  24
HETATM   24  C   UNL     1      -8.816   5.036  68.209  1.00  0.00    -0.110 C  
BRANCH  24  25
HETATM   25  C   UNL     1      -7.633   4.076  68.035  1.00  0.00    -0.067 C  
BRANCH  25  26
HETATM   26  C   UNL     1      -6.281   4.755  68.243  1.00  0.00    -0.035 C  
BRANCH  26  27
HETATM   27  C   UNL     1      -6.400   5.981  69.147  1.00  0.00    -0.041 C  
HETATM   28  C   UNL     1      -5.872   5.681  70.540  1.00  0.00    -0.024 C  
ENDBRANCH  26  27
ENDBRANCH  25  26
ENDBRANCH  24  25
ENDBRANCH  21  24
ENDBRANCH  20  21
ENDBRANCH  16  19
ENDBRANCH   9  10
ENDBRANCH   2   9
TORSDOF 11
ENDMDL
MODEL      316
REMARK 921   NORMALIZED FREE ENERGY PREDICTED BY IDOCK:   -2.47 KCAL/MOL
REMARK 922        TOTAL FREE ENERGY PREDICTED BY IDOCK:   -6.45 KCAL/MOL
REMARK 923 INTER-LIGAND FREE ENERGY PREDICTED BY IDOCK:   -4.75 KCAL/MOL
REMARK 924 INTRA-LIGAND FREE ENERGY PREDICTED BY IDOCK:   -1.70 KCAL/MOL
REMARK 927      BINDING AFFINITY PREDICTED BY RF-SCORE:    0.00 PKD
ROOT
HETATM    1  C   UNL     1      -9.100   5.963  67.906  1.00  0.00    -0.109 C  
HETATM    2  C   UNL     1      -9.723   7.136  67.718  1.00  0.00    -0.161 C  
ENDROOT
BRANCH   1   3
HETATM    3  C   UNL     1      -8.583   5.043  66.835  1.00  0.00    -0.105 C  
BRANCH   3   4
HETATM    4  C   UNL     1      -9.527   3.863  66.600  1.00  0.00    -0.217 C  
BRANCH   4   5
HETATM    5  C   UNL     1     -10.463   4.098  65.415  1.00  0.00    -0.128 C  
HETATM    6  O   UNL     1     -10.870   3.523  63.144  1.00  0.00    -0.214 OA 
HETATM    7  C   UNL     1     -10.035   3.327  64.192  1.00  0.00    -0.177 C  
HETATM    8  O   UNL     1      -9.061   2.592  64.123  1.00  0.00    -0.104 OA 
ENDBRANCH   4   5
ENDBRANCH   3   4
ENDBRANCH   1   3
BRANCH   2   9
HETATM    9  C   UNL     1     -10.090   7.749  66.393  1.00  0.00    -0.124 C  
BRANCH   9  10
HETATM   10  C   UNL     1      -9.072   8.740  65.805  1.00  0.00    -0.267 C  
HETATM   11  H   UNL     1      -9.919  10.062  62.246  1.00  0.00     0.000 HD 
HETATM   12  C   UNL     1      -8.032   8.020  64.930  1.00  0.00    -0.138 C  
HETATM   13  O   UNL     1      -9.170   9.530  62.487  1.00  0.00    -0.273 OA 
HETATM   14  O   UNL     1      -8.649   7.100  64.031  1.00  0.00    -0.333 OA 
HETATM   15  C   UNL     1      -7.418   9.144  64.112  1.00  0.00    -0.109 C  
HETATM   16  C   UNL     1      -9.667   9.817  64.856  1.00  0.00    -0.262 C  
HETATM   17  H   UNL     1      -8.006   6.655  63.490  1.00  0.00     0.000 HD 
HETATM   18  C   UNL     1      -8.624   9.999  63.723  1.00  0.00    -0.198 C  
BRANCH  16  19
HETATM   19  C   UNL     1     -10.007  11.115  65.550  1.00  0.00    -0.298 C  
HETATM   20  C   UNL     1     -11.186  11.757  65.459  1.00  0.00    -0.316 C  
BRANCH  20  21
HETATM   21  C   UNL     1     -11.518  13.084  66.086  1.00  0.00    -0.340 C  
HETATM   22  O   UNL     1     -12.772  13.013  66.754  1.00  0.00    -0.068 OA 
HETATM   23  H   UNL     1     -12.982  13.851  67.149  1.00  0.00     0.000 HD 
BRANCH  21  24
HETATM   24  C   UNL     1     -10.453  13.513  67.103  1.00  0.00    -0.256 C  
BRANCH  24  25
HETATM   25  C   UNL     1     -10.898  13.467  68.569  1.00  0.00    -0.285 C  
BRANCH  25  26
HETATM   26  C   UNL     1     -10.431  12.205  69.293  1.00  0.00     0.120 C  
BRANCH  26  27
HETATM   27  C   UNL     1     -11.490  11.690  70.266  1.00  0.00    -0.118 C  
HETATM   28  C   UNL     1     -11.870  10.254  69.944  1.00  0.00    -0.267 C  
ENDBRANCH  26  27
ENDBRANCH  25  26
ENDBRANCH  24  25
ENDBRANCH  21  24
ENDBRANCH  20  21
ENDBRANCH  16  19
ENDBRANCH   9  10
ENDBRANCH   2   9
TORSDOF 11
ENDMDL
MODEL      317
REMARK 921   NORMALIZED FREE ENERGY PREDICTED BY IDOCK:   -2.46 KCAL/MOL
REMARK 922        TOTAL FREE ENERGY PREDICTED BY IDOCK:   -6.44 KCAL/MOL
REMARK 923 INTER-LIGAND FREE ENERGY PREDICTED BY IDOCK:   -5.52 KCAL/MOL
REMARK 924 INTRA-LIGAND FREE ENERGY PREDICTED BY IDOCK:   -0.92 KCAL/MOL
REMARK 927      BINDING AFFINITY PREDICTED BY RF-SCORE:    0.00 PKD
ROOT
HETATM    1  C   UNL     1      -7.528   7.918  69.819  1.00  0.00    -0.088 C  
HETATM    2  C   UNL     1      -8.402   8.638  70.539  1.00  0.00    -0.147 C  
ENDROOT
BRANCH   1   3
HETATM    3  C   UNL     1      -7.790   6.591  69.161  1.00  0.00    -0.110 C  
BRANCH   3   4
HETATM    4  C   UNL     1      -8.796   6.717  68.016  1.00  0.00    -0.115 C  
BRANCH   4   5
HETATM    5  C   UNL     1      -8.160   7.288  66.748  1.00  0.00    -0.119 C  
HETATM    6  O   UNL     1      -7.762   6.868  64.443  1.00  0.00    -0.101 OA 
HETATM    7  C   UNL     1      -8.313   6.359  65.570  1.00  0.00    -0.147 C  
HETATM    8  O   UNL     1      -8.873   5.274  65.592  1.00  0.00    -0.144 OA 
ENDBRANCH   4   5
ENDBRANCH   3   4
ENDBRANCH   1   3
BRANCH   2   9
HETATM    9  C   UNL     1      -9.810   8.240  70.890  1.00  0.00    -0.215 C  
BRANCH   9  10
HETATM   10  C   UNL     1     -10.921   8.863  70.028  1.00  0.00    -0.217 C  
HETATM   11  H   UNL     1     -10.944  12.751  69.920  1.00  0.00     0.000 HD 
HETATM   12  C   UNL     1     -12.157   9.209  70.874  1.00  0.00    -0.214 C  
HETATM   13  O   UNL     1     -11.622  12.192  70.280  1.00  0.00    -0.208 OA 
HETATM   14  O   UNL     1     -11.799   9.889  72.075  1.00  0.00    -0.192 OA 
HETATM   15  C   UNL     1     -12.930  10.177  69.993  1.00  0.00     0.235 C  
HETATM   16  C   UNL     1     -10.554  10.210  69.347  1.00  0.00    -0.261 C  
HETATM   17  H   UNL     1     -12.563  10.102  72.598  1.00  0.00     0.000 HD 
HETATM   18  C   UNL     1     -11.839  11.076  69.413  1.00  0.00    -0.335 C  
BRANCH  16  19
HETATM   19  C   UNL     1     -10.028  10.055  67.939  1.00  0.00    -0.183 C  
HETATM   20  C   UNL     1      -9.985  11.031  67.014  1.00  0.00    -0.223 C  
BRANCH  20  21
HETATM   21  C   UNL     1      -9.530  10.876  65.589  1.00  0.00    -0.215 C  
HETATM   22  O   UNL     1      -9.933   9.611  65.078  1.00  0.00    -0.425 OA 
HETATM   23  H   UNL     1      -9.646   9.513  64.178  1.00  0.00     0.000 HD 
BRANCH  21  24
HETATM   24  C   UNL     1     -10.113  11.969  64.686  1.00  0.00    -0.291 C  
BRANCH  24  25
HETATM   25  C   UNL     1     -11.292  11.530  63.811  1.00  0.00    -0.420 C  
BRANCH  25  26
HETATM   26  C   UNL     1     -12.523  12.419  63.980  1.00  0.00    -0.554 C  
BRANCH  26  27
HETATM   27  C   UNL     1     -12.134  13.878  64.210  1.00  0.00    -0.477 C  
HETATM   28  C   UNL     1     -11.717  14.107  65.654  1.00  0.00    -0.357 C  
ENDBRANCH  26  27
ENDBRANCH  25  26
ENDBRANCH  24  25
ENDBRANCH  21  24
ENDBRANCH  20  21
ENDBRANCH  16  19
ENDBRANCH   9  10
ENDBRANCH   2   9
TORSDOF 11
ENDMDL
MODEL      318
REMARK 921   NORMALIZED FREE ENERGY PREDICTED BY IDOCK:   -2.44 KCAL/MOL
REMARK 922        TOTAL FREE ENERGY PREDICTED BY IDOCK:   -6.40 KCAL/MOL
REMARK 923 INTER-LIGAND FREE ENERGY PREDICTED BY IDOCK:   -5.89 KCAL/MOL
REMARK 924 INTRA-LIGAND FREE ENERGY PREDICTED BY IDOCK:   -0.51 KCAL/MOL
REMARK 927      BINDING AFFINITY PREDICTED BY RF-SCORE:    0.00 PKD
ROOT
HETATM    1  C   UNL     1     -12.462  15.222  70.127  1.00  0.00    -0.374 C  
HETATM    2  C   UNL     1     -12.508  13.897  69.923  1.00  0.00    -0.285 C  
ENDROOT
BRANCH   1   3
HETATM    3  C   UNL     1     -11.225  16.071  70.222  1.00  0.00    -0.397 C  
BRANCH   3   4
HETATM    4  C   UNL     1     -10.709  16.474  68.840  1.00  0.00    -0.337 C  
BRANCH   4   5
HETATM    5  C   UNL     1      -9.653  17.577  68.916  1.00  0.00    -0.224 C  
HETATM    6  O   UNL     1      -8.660  19.372  67.716  1.00  0.00    -0.296 OA 
HETATM    7  C   UNL     1      -9.585  18.387  67.646  1.00  0.00    -0.279 C  
HETATM    8  O   UNL     1     -10.276  18.208  66.655  1.00  0.00    -0.343 OA 
ENDBRANCH   4   5
ENDBRANCH   3   4
ENDBRANCH   1   3
BRANCH   2   9
HETATM    9  C   UNL     1     -11.328  12.971  69.808  1.00  0.00    -0.114 C  
BRANCH   9  10
HETATM   10  C   UNL     1     -11.283  12.090  68.549  1.00  0.00    -0.306 C  
HETATM   11  H   UNL     1      -8.454  12.957  66.025  1.00  0.00     0.000 HD 
HETATM   12  C   UNL     1     -12.061  12.733  67.389  1.00  0.00    -0.158 C  
HETATM   13  O   UNL     1      -9.388  13.024  65.870  1.00  0.00    -0.102 OA 
HETATM   14  O   UNL     1     -11.734  14.113  67.237  1.00  0.00    -0.351 OA 
HETATM   15  C   UNL     1     -11.554  11.987  66.166  1.00  0.00    -0.371 C  
HETATM   16  C   UNL     1      -9.867  11.855  67.955  1.00  0.00    -0.190 C  
HETATM   17  H   UNL     1     -12.216  14.509  66.520  1.00  0.00     0.000 HD 
HETATM   18  C   UNL     1     -10.051  11.879  66.415  1.00  0.00    -0.214 C  
BRANCH  16  19
HETATM   19  C   UNL     1      -9.207  10.587  68.443  1.00  0.00    -0.154 C  
HETATM   20  C   UNL     1      -9.847   9.547  69.007  1.00  0.00    -0.178 C  
BRANCH  20  21
HETATM   21  C   UNL     1      -9.199   8.308  69.562  1.00  0.00    -0.158 C  
HETATM   22  O   UNL     1      -8.047   8.653  70.323  1.00  0.00    -0.096 OA 
HETATM   23  H   UNL     1      -7.637   7.871  70.673  1.00  0.00     0.000 HD 
BRANCH  21  24
HETATM   24  C   UNL     1     -10.157   7.523  70.466  1.00  0.00    -0.188 C  
BRANCH  24  25
HETATM   25  C   UNL     1     -11.309   8.342  71.059  1.00  0.00    -0.299 C  
BRANCH  25  26
HETATM   26  C   UNL     1     -12.677   7.707  70.817  1.00  0.00     0.054 C  
BRANCH  26  27
HETATM   27  C   UNL     1     -13.812   8.665  71.174  1.00  0.00    -0.108 C  
HETATM   28  C   UNL     1     -13.754   9.051  72.643  1.00  0.00    -0.422 C  
ENDBRANCH  26  27
ENDBRANCH  25  26
ENDBRANCH  24  25
ENDBRANCH  21  24
ENDBRANCH  20  21
ENDBRANCH  16  19
ENDBRANCH   9  10
ENDBRANCH   2   9
TORSDOF 11
ENDMDL
MODEL      319
REMARK 921   NORMALIZED FREE ENERGY PREDICTED BY IDOCK:   -2.42 KCAL/MOL
REMARK 922        TOTAL FREE ENERGY PREDICTED BY IDOCK:   -6.38 KCAL/MOL
REMARK 923 INTER-LIGAND FREE ENERGY PREDICTED BY IDOCK:   -6.19 KCAL/MOL
REMARK 924 INTRA-LIGAND FREE ENERGY PREDICTED BY IDOCK:   -0.19 KCAL/MOL
REMARK 927      BINDING AFFINITY PREDICTED BY RF-SCORE:    0.00 PKD
ROOT
HETATM    1  C   UNL     1      -8.549   9.281  63.715  1.00  0.00    -0.206 C  
HETATM    2  C   UNL     1      -9.239   9.741  64.769  1.00  0.00    -0.319 C  
ENDROOT
BRANCH   1   3
HETATM    3  C   UNL     1      -7.698   8.041  63.674  1.00  0.00    -0.136 C  
BRANCH   3   4
HETATM    4  C   UNL     1      -7.990   7.197  62.433  1.00  0.00    -0.131 C  
BRANCH   4   5
HETATM    5  C   UNL     1      -8.079   5.705  62.757  1.00  0.00    -0.105 C  
HETATM    6  O   UNL     1      -6.795   3.736  63.108  1.00  0.00    -0.034 OA 
HETATM    7  C   UNL     1      -6.720   5.054  62.809  1.00  0.00    -0.026 C  
HETATM    8  O   UNL     1      -5.655   5.622  62.619  1.00  0.00    -0.014 OA 
ENDBRANCH   4   5
ENDBRANCH   3   4
ENDBRANCH   1   3
BRANCH   2   9
HETATM    9  C   UNL     1      -9.257   9.147  66.151  1.00  0.00    -0.259 C  
BRANCH   9  10
HETATM   10  C   UNL     1      -9.178  10.147  67.316  1.00  0.00    -0.154 C  
HETATM   11  H   UNL     1     -10.452  13.731  66.505  1.00  0.00     0.000 HD 
HETATM   12  C   UNL     1      -7.873  10.958  67.269  1.00  0.00    -0.116 C  
HETATM   13  O   UNL     1      -9.563  13.487  66.736  1.00  0.00    -0.251 OA 
HETATM   14  O   UNL     1      -7.609  11.454  65.958  1.00  0.00    -0.363 OA 
HETATM   15  C   UNL     1      -8.158  12.143  68.177  1.00  0.00    -0.161 C  
HETATM   16  C   UNL     1     -10.286  11.236  67.330  1.00  0.00    -0.217 C  
HETATM   17  H   UNL     1      -6.802  11.955  65.929  1.00  0.00     0.000 HD 
HETATM   18  C   UNL     1      -9.587  12.537  67.805  1.00  0.00    -0.203 C  
BRANCH  16  19
HETATM   19  C   UNL     1     -11.482  10.874  68.180  1.00  0.00    -0.368 C  
HETATM   20  C   UNL     1     -11.521  10.919  69.523  1.00  0.00    -0.372 C  
BRANCH  20  21
HETATM   21  C   UNL     1     -12.678  10.496  70.387  1.00  0.00    -0.252 C  
HETATM   22  O   UNL     1     -12.575   9.113  70.706  1.00  0.00    -0.499 OA 
HETATM   23  H   UNL     1     -13.306   8.846  71.251  1.00  0.00     0.000 HD 
BRANCH  21  24
HETATM   24  C   UNL     1     -12.730  11.291  71.696  1.00  0.00    -0.448 C  
BRANCH  24  25
HETATM   25  C   UNL     1     -13.359  12.685  71.587  1.00  0.00    -0.315 C  
BRANCH  25  26
HETATM   26  C   UNL     1     -12.487  13.781  72.197  1.00  0.00    -0.099 C  
BRANCH  26  27
HETATM   27  C   UNL     1     -13.333  14.880  72.838  1.00  0.00    -0.576 C  
HETATM   28  C   UNL     1     -14.238  15.537  71.809  1.00  0.00    -0.563 C  
ENDBRANCH  26  27
ENDBRANCH  25  26
ENDBRANCH  24  25
ENDBRANCH  21  24
ENDBRANCH  20  21
ENDBRANCH  16  19
ENDBRANCH   9  10
ENDBRANCH   2   9
TORSDOF 11
ENDMDL
MODEL      320
REMARK 921   NORMALIZED FREE ENERGY PREDICTED BY IDOCK:   -2.38 KCAL/MOL
REMARK 922        TOTAL FREE ENERGY PREDICTED BY IDOCK:   -6.31 KCAL/MOL
REMARK 923 INTER-LIGAND FREE ENERGY PREDICTED BY IDOCK:   -5.38 KCAL/MOL
REMARK 924 INTRA-LIGAND FREE ENERGY PREDICTED BY IDOCK:   -0.93 KCAL/MOL
REMARK 927      BINDING AFFINITY PREDICTED BY RF-SCORE:    0.00 PKD
ROOT
HETATM    1  C   UNL     1      -6.349  15.301  68.392  1.00  0.00    -0.107 C  
HETATM    2  C   UNL     1      -7.428  14.578  68.729  1.00  0.00    -0.132 C  
ENDROOT
BRANCH   1   3
HETATM    3  C   UNL     1      -6.329  16.758  68.022  1.00  0.00    -0.152 C  
BRANCH   3   4
HETATM    4  C   UNL     1      -6.435  17.657  69.255  1.00  0.00    -0.240 C  
BRANCH   4   5
HETATM    5  C   UNL     1      -5.590  18.924  69.121  1.00  0.00    -0.215 C  
HETATM    6  O   UNL     1      -5.641  21.206  68.456  1.00  0.00    -0.332 OA 
HETATM    7  C   UNL     1      -6.384  20.079  68.564  1.00  0.00    -0.287 C  
HETATM    8  O   UNL     1      -7.563  20.039  68.247  1.00  0.00    -0.289 OA 
ENDBRANCH   4   5
ENDBRANCH   3   4
ENDBRANCH   1   3
BRANCH   2   9
HETATM    9  C   UNL     1      -8.853  15.059  68.748  1.00  0.00    -0.192 C  
BRANCH   9  10
HETATM   10  C   UNL     1      -9.923  14.009  68.406  1.00  0.00    -0.236 C  
HETATM   11  H   UNL     1     -11.646  14.472  64.950  1.00  0.00     0.000 HD 
HETATM   12  C   UNL     1     -11.328  14.492  68.800  1.00  0.00    -0.274 C  
HETATM   13  O   UNL     1     -12.064  14.530  65.801  1.00  0.00    -0.350 OA 
HETATM   14  O   UNL     1     -11.562  15.833  68.372  1.00  0.00    -0.373 OA 
HETATM   15  C   UNL     1     -12.252  13.575  68.016  1.00  0.00    -0.158 C  
HETATM   16  C   UNL     1     -10.061  13.673  66.895  1.00  0.00    -0.260 C  
HETATM   17  H   UNL     1     -12.431  16.131  68.616  1.00  0.00     0.000 HD 
HETATM   18  C   UNL     1     -11.580  13.482  66.647  1.00  0.00    -0.363 C  
BRANCH  16  19
HETATM   19  C   UNL     1      -9.245  12.477  66.462  1.00  0.00    -0.210 C  
HETATM   20  C   UNL     1      -9.727  11.235  66.278  1.00  0.00    -0.246 C  
BRANCH  20  21
HETATM   21  C   UNL     1      -8.918  10.019  65.916  1.00  0.00    -0.154 C  
HETATM   22  O   UNL     1      -7.549  10.222  66.248  1.00  0.00    -0.106 OA 
HETATM   23  H   UNL     1      -7.038   9.455  66.019  1.00  0.00     0.000 HD 
BRANCH  21  24
HETATM   24  C   UNL     1      -9.413   8.769  66.651  1.00  0.00    -0.263 C  
BRANCH  24  25
HETATM   25  C   UNL     1      -8.310   7.820  67.136  1.00  0.00    -0.118 C  
BRANCH  25  26
HETATM   26  C   UNL     1      -8.752   6.358  67.162  1.00  0.00    -0.110 C  
BRANCH  26  27
HETATM   27  C   UNL     1      -8.146   5.567  66.005  1.00  0.00    -0.108 C  
HETATM   28  C   UNL     1      -8.169   4.075  66.296  1.00  0.00    -0.104 C  
ENDBRANCH  26  27
ENDBRANCH  25  26
ENDBRANCH  24  25
ENDBRANCH  21  24
ENDBRANCH  20  21
ENDBRANCH  16  19
ENDBRANCH   9  10
ENDBRANCH   2   9
TORSDOF 11
ENDMDL
MODEL      321
REMARK 921   NORMALIZED FREE ENERGY PREDICTED BY IDOCK:   -2.25 KCAL/MOL
REMARK 922        TOTAL FREE ENERGY PREDICTED BY IDOCK:   -6.09 KCAL/MOL
REMARK 923 INTER-LIGAND FREE ENERGY PREDICTED BY IDOCK:   -6.24 KCAL/MOL
REMARK 924 INTRA-LIGAND FREE ENERGY PREDICTED BY IDOCK:    0.14 KCAL/MOL
REMARK 927      BINDING AFFINITY PREDICTED BY RF-SCORE:    0.00 PKD
ROOT
HETATM    1  C   UNL     1     -11.610  11.285  64.190  1.00  0.00     0.079 C  
HETATM    2  C   UNL     1     -10.389  10.972  64.650  1.00  0.00    -0.410 C  
ENDROOT
BRANCH   1   3
HETATM    3  C   UNL     1     -12.504  12.381  64.700  1.00  0.00    -0.500 C  
BRANCH   3   4
HETATM    4  C   UNL     1     -11.697  13.572  65.220  1.00  0.00    -0.341 C  
BRANCH   4   5
HETATM    5  C   UNL     1     -12.053  14.871  64.496  1.00  0.00    -0.420 C  
HETATM    6  O   UNL     1     -11.434  17.150  64.224  1.00  0.00    -1.062 OA 
HETATM    7  C   UNL     1     -11.129  16.002  64.873  1.00  0.00    -0.370 C  
HETATM    8  O   UNL     1     -10.198  15.923  65.660  1.00  0.00    -0.334 OA 
ENDBRANCH   4   5
ENDBRANCH   3   4
ENDBRANCH   1   3
BRANCH   2   9
HETATM    9  C   UNL     1      -9.684  11.613  65.814  1.00  0.00    -0.262 C  
BRANCH   9  10
HETATM   10  C   UNL     1      -8.643  10.739  66.535  1.00  0.00    -0.150 C  
HETATM   11  H   UNL     1      -5.185  10.495  64.771  1.00  0.00     0.000 HD 
HETATM   12  C   UNL     1      -8.650   9.300  65.994  1.00  0.00    -0.144 C  
HETATM   13  O   UNL     1      -5.795   9.782  64.919  1.00  0.00    -0.073 OA 
HETATM   14  O   UNL     1      -8.655   9.275  64.568  1.00  0.00    -0.178 OA 
HETATM   15  C   UNL     1      -7.324   8.734  66.475  1.00  0.00    -0.081 C  
HETATM   16  C   UNL     1      -7.166  11.189  66.361  1.00  0.00    -0.094 C  
HETATM   17  H   UNL     1      -8.659   8.385  64.234  1.00  0.00     0.000 HD 
HETATM   18  C   UNL     1      -6.342   9.881  66.237  1.00  0.00    -0.072 C  
BRANCH  16  19
HETATM   19  C   UNL     1      -6.671  12.086  67.471  1.00  0.00    -0.120 C  
HETATM   20  C   UNL     1      -7.252  13.236  67.857  1.00  0.00    -0.137 C  
BRANCH  20  21
HETATM   21  C   UNL     1      -6.735  14.176  68.912  1.00  0.00    -0.103 C  
HETATM   22  O   UNL     1      -5.456  14.678  68.540  1.00  0.00    -0.090 OA 
HETATM   23  H   UNL     1      -5.129  15.271  69.206  1.00  0.00     0.000 HD 
BRANCH  21  24
HETATM   24  C   UNL     1      -7.678  15.366  69.123  1.00  0.00    -0.207 C  
BRANCH  24  25
HETATM   25  C   UNL     1      -9.172  15.030  69.061  1.00  0.00    -0.205 C  
BRANCH  25  26
HETATM   26  C   UNL     1     -10.065  16.222  69.404  1.00  0.00    -0.253 C  
BRANCH  26  27
HETATM   27  C   UNL     1     -11.482  16.036  68.867  1.00  0.00    -0.362 C  
HETATM   28  C   UNL     1     -11.859  14.564  68.830  1.00  0.00    -0.350 C  
ENDBRANCH  26  27
ENDBRANCH  25  26
ENDBRANCH  24  25
ENDBRANCH  21  24
ENDBRANCH  20  21
ENDBRANCH  16  19
ENDBRANCH   9  10
ENDBRANCH   2   9
TORSDOF 11
ENDMDL
MODEL      322
REMARK 921   NORMALIZED FREE ENERGY PREDICTED BY IDOCK:   -2.24 KCAL/MOL
REMARK 922        TOTAL FREE ENERGY PREDICTED BY IDOCK:   -6.07 KCAL/MOL
REMARK 923 INTER-LIGAND FREE ENERGY PREDICTED BY IDOCK:   -3.57 KCAL/MOL
REMARK 924 INTRA-LIGAND FREE ENERGY PREDICTED BY IDOCK:   -2.50 KCAL/MOL
REMARK 927      BINDING AFFINITY PREDICTED BY RF-SCORE:    0.00 PKD
ROOT
HETATM    1  C   UNL     1      -6.186   5.343  67.744  1.00  0.00    -0.038 C  
HETATM    2  C   UNL     1      -6.041   5.065  69.048  1.00  0.00    -0.029 C  
ENDROOT
BRANCH   1   3
HETATM    3  C   UNL     1      -6.663   6.641  67.153  1.00  0.00    -0.063 C  
BRANCH   3   4
HETATM    4  C   UNL     1      -5.958   6.954  65.833  1.00  0.00    -0.035 C  
BRANCH   4   5
HETATM    5  C   UNL     1      -5.969   8.449  65.512  1.00  0.00    -0.045 C  
HETATM    6  O   UNL     1      -7.196  10.172  64.429  1.00  0.00    -0.138 OA 
HETATM    7  C   UNL     1      -7.178   8.847  64.703  1.00  0.00    -0.096 C  
HETATM    8  O   UNL     1      -8.062   8.089  64.331  1.00  0.00    -0.148 OA 
ENDBRANCH   4   5
ENDBRANCH   3   4
ENDBRANCH   1   3
BRANCH   2   9
HETATM    9  C   UNL     1      -6.382   5.974  70.197  1.00  0.00    -0.032 C  
BRANCH   9  10
HETATM   10  C   UNL     1      -7.793   5.814  70.786  1.00  0.00    -0.101 C  
HETATM   11  H   UNL     1      -9.216   8.973  72.552  1.00  0.00     0.000 HD 
HETATM   12  C   UNL     1      -7.738   5.415  72.270  1.00  0.00    -0.102 C  
HETATM   13  O   UNL     1      -9.017   8.139  72.961  1.00  0.00    -0.225 OA 
HETATM   14  O   UNL     1      -6.811   6.218  72.996  1.00  0.00    -0.073 OA 
HETATM   15  C   UNL     1      -9.137   5.730  72.774  1.00  0.00    -0.133 C  
HETATM   16  C   UNL     1      -8.662   7.102  70.785  1.00  0.00    -0.147 C  
HETATM   17  H   UNL     1      -6.777   5.971  73.913  1.00  0.00     0.000 HD 
HETATM   18  C   UNL     1      -9.456   7.072  72.116  1.00  0.00    -0.137 C  
BRANCH  16  19
HETATM   19  C   UNL     1      -9.558   7.228  69.575  1.00  0.00    -0.155 C  
HETATM   20  C   UNL     1     -10.119   6.199  68.914  1.00  0.00    -0.211 C  
BRANCH  20  21
HETATM   21  C   UNL     1     -10.955   6.302  67.668  1.00  0.00    -0.342 C  
HETATM   22  O   UNL     1     -11.219   7.667  67.363  1.00  0.00    -0.499 OA 
HETATM   23  H   UNL     1     -11.747   7.732  66.576  1.00  0.00     0.000 HD 
BRANCH  21  24
HETATM   24  C   UNL     1     -10.257   5.664  66.462  1.00  0.00    -0.259 C  
BRANCH  24  25
HETATM   25  C   UNL     1      -9.905   4.181  66.624  1.00  0.00    -0.210 C  
BRANCH  25  26
HETATM   26  C   UNL     1      -9.335   3.562  65.348  1.00  0.00    -0.158 C  
BRANCH  26  27
HETATM   27  C   UNL     1      -8.575   4.592  64.515  1.00  0.00    -0.140 C  
HETATM   28  C   UNL     1      -7.204   4.067  64.122  1.00  0.00    -0.051 C  
ENDBRANCH  26  27
ENDBRANCH  25  26
ENDBRANCH  24  25
ENDBRANCH  21  24
ENDBRANCH  20  21
ENDBRANCH  16  19
ENDBRANCH   9  10
ENDBRANCH   2   9
TORSDOF 11
ENDMDL
MODEL      323
REMARK 921   NORMALIZED FREE ENERGY PREDICTED BY IDOCK:   -2.23 KCAL/MOL
REMARK 922        TOTAL FREE ENERGY PREDICTED BY IDOCK:   -6.06 KCAL/MOL
REMARK 923 INTER-LIGAND FREE ENERGY PREDICTED BY IDOCK:   -4.63 KCAL/MOL
REMARK 924 INTRA-LIGAND FREE ENERGY PREDICTED BY IDOCK:   -1.42 KCAL/MOL
REMARK 927      BINDING AFFINITY PREDICTED BY RF-SCORE:    0.00 PKD
ROOT
HETATM    1  C   UNL     1      -5.769  12.745  69.064  1.00  0.00    -0.072 C  
HETATM    2  C   UNL     1      -6.554  12.315  68.064  1.00  0.00    -0.076 C  
ENDROOT
BRANCH   1   3
HETATM    3  C   UNL     1      -6.141  13.740  70.128  1.00  0.00    -0.139 C  
BRANCH   3   4
HETATM    4  C   UNL     1      -5.408  15.069  69.940  1.00  0.00    -0.103 C  
BRANCH   4   5
HETATM    5  C   UNL     1      -5.175  15.396  68.464  1.00  0.00    -0.097 C  
HETATM    6  O   UNL     1      -6.057  16.566  66.593  1.00  0.00    -0.307 OA 
HETATM    7  C   UNL     1      -6.268  16.265  67.895  1.00  0.00    -0.126 C  
HETATM    8  O   UNL     1      -7.238  16.676  68.513  1.00  0.00    -0.165 OA 
ENDBRANCH   4   5
ENDBRANCH   3   4
ENDBRANCH   1   3
BRANCH   2   9
HETATM    9  C   UNL     1      -7.952  12.783  67.763  1.00  0.00    -0.157 C  
BRANCH   9  10
HETATM   10  C   UNL     1      -8.998  11.680  67.538  1.00  0.00    -0.165 C  
HETATM   11  H   UNL     1     -12.229  12.817  65.696  1.00  0.00     0.000 HD 
HETATM   12  C   UNL     1     -10.044  11.662  68.665  1.00  0.00    -0.198 C  
HETATM   13  O   UNL     1     -12.172  12.495  66.588  1.00  0.00    -0.552 OA 
HETATM   14  O   UNL     1     -10.524  12.973  68.957  1.00  0.00    -0.412 OA 
HETATM   15  C   UNL     1     -11.189  10.857  68.074  1.00  0.00    -0.378 C  
HETATM   16  C   UNL     1      -9.852  11.829  66.249  1.00  0.00    -0.245 C  
HETATM   17  H   UNL     1     -11.170  12.962  69.654  1.00  0.00     0.000 HD 
HETATM   18  C   UNL     1     -11.283  11.375  66.640  1.00  0.00    -0.231 C  
BRANCH  16  19
HETATM   19  C   UNL     1      -9.302  11.067  65.066  1.00  0.00    -0.250 C  
HETATM   20  C   UNL     1      -8.075  10.519  64.998  1.00  0.00    -0.096 C  
BRANCH  20  21
HETATM   21  C   UNL     1      -7.487   9.818  63.804  1.00  0.00    -0.128 C  
HETATM   22  O   UNL     1      -6.309  10.489  63.370  1.00  0.00    -0.289 OA 
HETATM   23  H   UNL     1      -5.937  10.047  62.617  1.00  0.00     0.000 HD 
BRANCH  21  24
HETATM   24  C   UNL     1      -7.124   8.363  64.122  1.00  0.00    -0.083 C  
BRANCH  24  25
HETATM   25  C   UNL     1      -7.297   7.956  65.590  1.00  0.00    -0.079 C  
BRANCH  25  26
HETATM   26  C   UNL     1      -7.439   6.446  65.776  1.00  0.00    -0.082 C  
BRANCH  26  27
HETATM   27  C   UNL     1      -8.570   5.878  64.921  1.00  0.00    -0.037 C  
HETATM   28  C   UNL     1      -9.400   4.881  65.713  1.00  0.00    -0.165 C  
ENDBRANCH  26  27
ENDBRANCH  25  26
ENDBRANCH  24  25
ENDBRANCH  21  24
ENDBRANCH  20  21
ENDBRANCH  16  19
ENDBRANCH   9  10
ENDBRANCH   2   9
TORSDOF 11
ENDMDL
MODEL      324
REMARK 921   NORMALIZED FREE ENERGY PREDICTED BY IDOCK:   -2.22 KCAL/MOL
REMARK 922        TOTAL FREE ENERGY PREDICTED BY IDOCK:   -6.04 KCAL/MOL
REMARK 923 INTER-LIGAND FREE ENERGY PREDICTED BY IDOCK:   -6.67 KCAL/MOL
REMARK 924 INTRA-LIGAND FREE ENERGY PREDICTED BY IDOCK:    0.63 KCAL/MOL
REMARK 927      BINDING AFFINITY PREDICTED BY RF-SCORE:    0.00 PKD
ROOT
HETATM    1  C   UNL     1     -11.591  11.200  64.065  1.00  0.00     0.324 C  
HETATM    2  C   UNL     1     -10.484  11.191  64.822  1.00  0.00    -0.388 C  
ENDROOT
BRANCH   1   3
HETATM    3  C   UNL     1     -12.734  12.172  64.162  1.00  0.00    -0.416 C  
BRANCH   3   4
HETATM    4  C   UNL     1     -12.336  13.438  64.922  1.00  0.00    -0.457 C  
BRANCH   4   5
HETATM    5  C   UNL     1     -12.328  14.674  64.021  1.00  0.00    -0.167 C  
HETATM    6  O   UNL     1     -11.591  16.928  63.858  1.00  0.00    -0.982 OA 
HETATM    7  C   UNL     1     -11.611  15.837  64.659  1.00  0.00    -0.218 C  
HETATM    8  O   UNL     1     -11.088  15.826  65.763  1.00  0.00    -0.248 OA 
ENDBRANCH   4   5
ENDBRANCH   3   4
ENDBRANCH   1   3
BRANCH   2   9
HETATM    9  C   UNL     1     -10.181  12.118  65.969  1.00  0.00    -0.265 C  
BRANCH   9  10
HETATM   10  C   UNL     1      -9.121  11.627  66.968  1.00  0.00    -0.179 C  
HETATM   11  H   UNL     1      -5.451  12.557  66.074  1.00  0.00     0.000 HD 
HETATM   12  C   UNL     1      -8.532  10.273  66.540  1.00  0.00    -0.125 C  
HETATM   13  O   UNL     1      -5.815  11.681  66.125  1.00  0.00    -0.174 OA 
HETATM   14  O   UNL     1      -8.185  10.264  65.157  1.00  0.00    -0.153 OA 
HETATM   15  C   UNL     1      -7.252  10.169  67.352  1.00  0.00    -0.088 C  
HETATM   16  C   UNL     1      -7.872  12.540  67.111  1.00  0.00    -0.123 C  
HETATM   17  H   UNL     1      -7.822   9.427  64.892  1.00  0.00     0.000 HD 
HETATM   18  C   UNL     1      -6.666  11.578  67.270  1.00  0.00    -0.112 C  
BRANCH  16  19
HETATM   19  C   UNL     1      -7.975  13.537  68.242  1.00  0.00    -0.147 C  
HETATM   20  C   UNL     1      -9.047  14.307  68.501  1.00  0.00    -0.191 C  
BRANCH  20  21
HETATM   21  C   UNL     1      -9.142  15.353  69.578  1.00  0.00    -0.231 C  
HETATM   22  O   UNL     1      -8.320  16.469  69.255  1.00  0.00    -0.201 OA 
HETATM   23  H   UNL     1      -8.380  17.130  69.935  1.00  0.00     0.000 HD 
BRANCH  21  24
HETATM   24  C   UNL     1     -10.581  15.849  69.762  1.00  0.00    -0.322 C  
BRANCH  24  25
HETATM   25  C   UNL     1     -11.373  15.150  70.872  1.00  0.00    -0.345 C  
BRANCH  25  26
HETATM   26  C   UNL     1     -12.784  15.711  71.041  1.00  0.00    -0.517 C  
BRANCH  26  27
HETATM   27  C   UNL     1     -13.605  14.883  72.027  1.00  0.00    -0.508 C  
HETATM   28  C   UNL     1     -12.728  14.349  73.148  1.00  0.00    -0.436 C  
ENDBRANCH  26  27
ENDBRANCH  25  26
ENDBRANCH  24  25
ENDBRANCH  21  24
ENDBRANCH  20  21
ENDBRANCH  16  19
ENDBRANCH   9  10
ENDBRANCH   2   9
TORSDOF 11
ENDMDL
MODEL      325
REMARK 921   NORMALIZED FREE ENERGY PREDICTED BY IDOCK:   -2.11 KCAL/MOL
REMARK 922        TOTAL FREE ENERGY PREDICTED BY IDOCK:   -5.86 KCAL/MOL
REMARK 923 INTER-LIGAND FREE ENERGY PREDICTED BY IDOCK:   -5.42 KCAL/MOL
REMARK 924 INTRA-LIGAND FREE ENERGY PREDICTED BY IDOCK:   -0.44 KCAL/MOL
REMARK 927      BINDING AFFINITY PREDICTED BY RF-SCORE:    0.00 PKD
ROOT
HETATM    1  C   UNL     1     -12.495  15.185  70.333  1.00  0.00    -0.416 C  
HETATM    2  C   UNL     1     -12.564  14.021  69.670  1.00  0.00    -0.066 C  
ENDROOT
BRANCH   1   3
HETATM    3  C   UNL     1     -11.281  15.759  71.009  1.00  0.00    -0.396 C  
BRANCH   3   4
HETATM    4  C   UNL     1     -10.664  16.895  70.192  1.00  0.00     0.141 C  
BRANCH   4   5
HETATM    5  C   UNL     1     -10.320  16.461  68.767  1.00  0.00    -0.275 C  
HETATM    6  O   UNL     1      -8.759  16.745  66.996  1.00  0.00    -0.190 OA 
HETATM    7  C   UNL     1      -9.073  17.137  68.253  1.00  0.00    -0.259 C  
HETATM    8  O   UNL     1      -8.396  17.941  68.876  1.00  0.00    -0.243 OA 
ENDBRANCH   4   5
ENDBRANCH   3   4
ENDBRANCH   1   3
BRANCH   2   9
HETATM    9  C   UNL     1     -11.456  13.015  69.517  1.00  0.00    -0.289 C  
BRANCH   9  10
HETATM   10  C   UNL     1     -11.398  12.278  68.169  1.00  0.00    -0.349 C  
HETATM   11  H   UNL     1      -8.758  13.634  65.655  1.00  0.00     0.000 HD 
HETATM   12  C   UNL     1     -12.274  12.972  67.113  1.00  0.00    -0.138 C  
HETATM   13  O   UNL     1      -9.701  13.640  65.541  1.00  0.00    -0.189 OA 
HETATM   14  O   UNL     1     -12.063  14.382  67.099  1.00  0.00    -0.487 OA 
HETATM   15  C   UNL     1     -11.764  12.402  65.799  1.00  0.00    -0.470 C  
HETATM   16  C   UNL     1      -9.995  12.223  67.503  1.00  0.00    -0.201 C  
HETATM   17  H   UNL     1     -12.605  14.811  66.447  1.00  0.00     0.000 HD 
HETATM   18  C   UNL     1     -10.247  12.393  65.982  1.00  0.00    -0.245 C  
BRANCH  16  19
HETATM   19  C   UNL     1      -9.217  10.970  67.828  1.00  0.00    -0.155 C  
HETATM   20  C   UNL     1      -8.366  10.347  66.993  1.00  0.00    -0.127 C  
BRANCH  20  21
HETATM   21  C   UNL     1      -7.637   9.061  67.275  1.00  0.00    -0.088 C  
HETATM   22  O   UNL     1      -8.450   8.196  68.060  1.00  0.00    -0.130 OA 
HETATM   23  H   UNL     1      -7.990   7.384  68.238  1.00  0.00     0.000 HD 
BRANCH  21  24
HETATM   24  C   UNL     1      -7.260   8.328  65.982  1.00  0.00    -0.072 C  
BRANCH  24  25
HETATM   25  C   UNL     1      -8.218   8.550  64.806  1.00  0.00    -0.164 C  
BRANCH  25  26
HETATM   26  C   UNL     1      -7.535   9.182  63.594  1.00  0.00    -0.106 C  
BRANCH  26  27
HETATM   27  C   UNL     1      -8.554   9.718  62.591  1.00  0.00    -0.199 C  
HETATM   28  C   UNL     1      -9.677  10.457  63.300  1.00  0.00    -0.308 C  
ENDBRANCH  26  27
ENDBRANCH  25  26
ENDBRANCH  24  25
ENDBRANCH  21  24
ENDBRANCH  20  21
ENDBRANCH  16  19
ENDBRANCH   9  10
ENDBRANCH   2   9
TORSDOF 11
ENDMDL
MODEL      326
REMARK 921   NORMALIZED FREE ENERGY PREDICTED BY IDOCK:   -2.08 KCAL/MOL
REMARK 922        TOTAL FREE ENERGY PREDICTED BY IDOCK:   -5.81 KCAL/MOL
REMARK 923 INTER-LIGAND FREE ENERGY PREDICTED BY IDOCK:   -5.06 KCAL/MOL
REMARK 924 INTRA-LIGAND FREE ENERGY PREDICTED BY IDOCK:   -0.76 KCAL/MOL
REMARK 927      BINDING AFFINITY PREDICTED BY RF-SCORE:    0.00 PKD
ROOT
HETATM    1  C   UNL     1      -9.335  11.260  68.901  1.00  0.00    -0.084 C  
HETATM    2  C   UNL     1      -8.847  11.453  67.666  1.00  0.00    -0.139 C  
ENDROOT
BRANCH   1   3
HETATM    3  C   UNL     1     -10.780  11.076  69.273  1.00  0.00    -0.263 C  
BRANCH   3   4
HETATM    4  C   UNL     1     -11.143   9.597  69.414  1.00  0.00    -0.170 C  
BRANCH   4   5
HETATM    5  C   UNL     1     -11.322   9.184  70.875  1.00  0.00    -0.359 C  
HETATM    6  O   UNL     1     -12.592   9.587  72.844  1.00  0.00     0.115 OA 
HETATM    7  C   UNL     1     -12.423   9.960  71.554  1.00  0.00    -0.411 C  
HETATM    8  O   UNL     1     -13.109  10.823  71.027  1.00  0.00    -0.350 OA 
ENDBRANCH   4   5
ENDBRANCH   3   4
ENDBRANCH   1   3
BRANCH   2   9
HETATM    9  C   UNL     1      -9.649  11.585  66.400  1.00  0.00    -0.230 C  
BRANCH   9  10
HETATM   10  C   UNL     1      -9.997  13.020  65.971  1.00  0.00    -0.277 C  
HETATM   11  H   UNL     1     -10.995  15.416  68.868  1.00  0.00     0.000 HD 
HETATM   12  C   UNL     1     -11.510  13.188  65.754  1.00  0.00    -0.325 C  
HETATM   13  O   UNL     1     -11.552  15.132  68.153  1.00  0.00    -0.333 OA 
HETATM   14  O   UNL     1     -12.261  12.623  66.827  1.00  0.00    -0.506 OA 
HETATM   15  C   UNL     1     -11.707  14.694  65.778  1.00  0.00    -0.302 C  
HETATM   16  C   UNL     1      -9.651  14.124  67.008  1.00  0.00    -0.264 C  
HETATM   17  H   UNL     1     -13.196  12.726  66.692  1.00  0.00     0.000 HD 
HETATM   18  C   UNL     1     -10.811  15.150  66.929  1.00  0.00    -0.317 C  
BRANCH  16  19
HETATM   19  C   UNL     1      -8.297  14.758  66.790  1.00  0.00    -0.114 C  
HETATM   20  C   UNL     1      -8.030  16.072  66.893  1.00  0.00    -0.283 C  
BRANCH  20  21
HETATM   21  C   UNL     1      -6.706  16.728  66.611  1.00  0.00    -0.206 C  
HETATM   22  O   UNL     1      -6.816  17.601  65.493  1.00  0.00    -0.303 OA 
HETATM   23  H   UNL     1      -5.980  18.015  65.315  1.00  0.00     0.000 HD 
BRANCH  21  24
HETATM   24  C   UNL     1      -6.210  17.542  67.812  1.00  0.00    -0.169 C  
BRANCH  24  25
HETATM   25  C   UNL     1      -7.264  17.819  68.890  1.00  0.00    -0.256 C  
BRANCH  25  26
HETATM   26  C   UNL     1      -7.349  16.710  69.938  1.00  0.00     0.664 C  
BRANCH  26  27
HETATM   27  C   UNL     1      -6.046  15.918  70.024  1.00  0.00    -0.138 C  
HETATM   28  C   UNL     1      -5.253  16.311  71.259  1.00  0.00    -0.035 C  
ENDBRANCH  26  27
ENDBRANCH  25  26
ENDBRANCH  24  25
ENDBRANCH  21  24
ENDBRANCH  20  21
ENDBRANCH  16  19
ENDBRANCH   9  10
ENDBRANCH   2   9
TORSDOF 11
ENDMDL
MODEL      327
REMARK 921   NORMALIZED FREE ENERGY PREDICTED BY IDOCK:   -2.03 KCAL/MOL
REMARK 922        TOTAL FREE ENERGY PREDICTED BY IDOCK:   -5.73 KCAL/MOL
REMARK 923 INTER-LIGAND FREE ENERGY PREDICTED BY IDOCK:   -4.17 KCAL/MOL
REMARK 924 INTRA-LIGAND FREE ENERGY PREDICTED BY IDOCK:   -1.56 KCAL/MOL
REMARK 927      BINDING AFFINITY PREDICTED BY RF-SCORE:    0.00 PKD
ROOT
HETATM    1  C   UNL     1      -6.194   5.343  67.742  1.00  0.00    -0.038 C  
HETATM    2  C   UNL     1      -6.070   5.073  69.050  1.00  0.00    -0.029 C  
ENDROOT
BRANCH   1   3
HETATM    3  C   UNL     1      -6.672   6.633  67.136  1.00  0.00    -0.063 C  
BRANCH   3   4
HETATM    4  C   UNL     1      -5.951   6.941  65.823  1.00  0.00    -0.035 C  
BRANCH   4   5
HETATM    5  C   UNL     1      -5.970   8.434  65.490  1.00  0.00    -0.045 C  
HETATM    6  O   UNL     1      -7.200  10.139  64.380  1.00  0.00    -0.138 OA 
HETATM    7  C   UNL     1      -7.174   8.815  64.666  1.00  0.00    -0.095 C  
HETATM    8  O   UNL     1      -8.048   8.048  64.292  1.00  0.00    -0.151 OA 
ENDBRANCH   4   5
ENDBRANCH   3   4
ENDBRANCH   1   3
BRANCH   2   9
HETATM    9  C   UNL     1      -6.441   5.985  70.188  1.00  0.00    -0.039 C  
BRANCH   9  10
HETATM   10  C   UNL     1      -7.868   5.831  70.738  1.00  0.00    -0.101 C  
HETATM   11  H   UNL     1      -9.334   9.003  72.444  1.00  0.00     0.000 HD 
HETATM   12  C   UNL     1      -7.856   5.440  72.225  1.00  0.00    -0.103 C  
HETATM   13  O   UNL     1      -9.149   8.171  72.864  1.00  0.00    -0.221 OA 
HETATM   14  O   UNL     1      -6.948   6.247  72.972  1.00  0.00    -0.077 OA 
HETATM   15  C   UNL     1      -9.268   5.761  72.687  1.00  0.00    -0.139 C  
HETATM   16  C   UNL     1      -8.734   7.120  70.704  1.00  0.00    -0.148 C  
HETATM   17  H   UNL     1      -6.940   6.005  73.891  1.00  0.00     0.000 HD 
HETATM   18  C   UNL     1      -9.566   7.099  72.013  1.00  0.00    -0.143 C  
BRANCH  16  19
HETATM   19  C   UNL     1      -9.595   7.241  69.469  1.00  0.00    -0.155 C  
HETATM   20  C   UNL     1      -9.313   8.004  68.398  1.00  0.00    -0.138 C  
BRANCH  20  21
HETATM   21  C   UNL     1     -10.191   8.190  67.191  1.00  0.00    -0.296 C  
HETATM   22  O   UNL     1     -11.311   7.315  67.257  1.00  0.00    -0.544 OA 
HETATM   23  H   UNL     1     -11.866   7.432  66.495  1.00  0.00     0.000 HD 
BRANCH  21  24
HETATM   24  C   UNL     1     -10.709   9.629  67.082  1.00  0.00    -0.258 C  
BRANCH  24  25
HETATM   25  C   UNL     1      -9.621  10.706  66.993  1.00  0.00    -0.196 C  
BRANCH  25  26
HETATM   26  C   UNL     1     -10.186  12.104  66.748  1.00  0.00    -0.224 C  
BRANCH  26  27
HETATM   27  C   UNL     1     -11.577  12.263  67.359  1.00  0.00    -0.425 C  
HETATM   28  C   UNL     1     -11.582  13.349  68.422  1.00  0.00    -0.368 C  
ENDBRANCH  26  27
ENDBRANCH  25  26
ENDBRANCH  24  25
ENDBRANCH  21  24
ENDBRANCH  20  21
ENDBRANCH  16  19
ENDBRANCH   9  10
ENDBRANCH   2   9
TORSDOF 11
ENDMDL
MODEL      328
REMARK 921   NORMALIZED FREE ENERGY PREDICTED BY IDOCK:   -1.99 KCAL/MOL
REMARK 922        TOTAL FREE ENERGY PREDICTED BY IDOCK:   -5.67 KCAL/MOL
REMARK 923 INTER-LIGAND FREE ENERGY PREDICTED BY IDOCK:   -5.34 KCAL/MOL
REMARK 924 INTRA-LIGAND FREE ENERGY PREDICTED BY IDOCK:   -0.33 KCAL/MOL
REMARK 927      BINDING AFFINITY PREDICTED BY RF-SCORE:    0.00 PKD
ROOT
HETATM    1  C   UNL     1     -11.093  10.715  68.303  1.00  0.00    -0.334 C  
HETATM    2  C   UNL     1     -11.148   9.526  68.921  1.00  0.00    -0.050 C  
ENDROOT
BRANCH   1   3
HETATM    3  C   UNL     1      -9.877  11.346  67.682  1.00  0.00    -0.189 C  
BRANCH   3   4
HETATM    4  C   UNL     1     -10.094  11.650  66.199  1.00  0.00    -0.259 C  
BRANCH   4   5
HETATM    5  C   UNL     1     -10.199  13.151  65.926  1.00  0.00    -0.294 C  
HETATM    6  O   UNL     1     -11.689  14.887  65.280  1.00  0.00    -0.335 OA 
HETATM    7  C   UNL     1     -11.590  13.556  65.509  1.00  0.00    -0.320 C  
HETATM    8  O   UNL     1     -12.543  12.800  65.393  1.00  0.00    -0.607 OA 
ENDBRANCH   4   5
ENDBRANCH   3   4
ENDBRANCH   1   3
BRANCH   2   9
HETATM    9  C   UNL     1      -9.991   8.599  69.176  1.00  0.00    -0.193 C  
BRANCH   9  10
HETATM   10  C   UNL     1     -10.159   7.157  68.670  1.00  0.00    -0.177 C  
HETATM   11  H   UNL     1      -6.944   5.536  67.199  1.00  0.00     0.000 HD 
HETATM   12  C   UNL     1     -10.466   7.124  67.164  1.00  0.00    -0.319 C  
HETATM   13  O   UNL     1      -7.745   5.729  66.727  1.00  0.00    -0.098 OA 
HETATM   14  O   UNL     1      -9.591   7.979  66.431  1.00  0.00    -0.235 OA 
HETATM   15  C   UNL     1     -10.164   5.687  66.772  1.00  0.00    -0.276 C  
HETATM   16  C   UNL     1      -8.901   6.255  68.808  1.00  0.00    -0.123 C  
HETATM   17  H   UNL     1      -9.781   7.959  65.500  1.00  0.00     0.000 HD 
HETATM   18  C   UNL     1      -8.875   5.376  67.531  1.00  0.00    -0.105 C  
BRANCH  16  19
HETATM   19  C   UNL     1      -8.875   5.439  70.079  1.00  0.00    -0.141 C  
HETATM   20  C   UNL     1      -8.541   4.138  70.158  1.00  0.00    -0.104 C  
BRANCH  20  21
HETATM   21  C   UNL     1      -8.578   3.293  71.402  1.00  0.00    -0.072 C  
HETATM   22  O   UNL     1      -7.864   3.933  72.454  1.00  0.00    -0.076 OA 
HETATM   23  H   UNL     1      -7.887   3.399  73.239  1.00  0.00     0.000 HD 
BRANCH  21  24
HETATM   24  C   UNL     1     -10.014   3.042  71.876  1.00  0.00    -0.210 C  
BRANCH  24  25
HETATM   25  C   UNL     1     -10.444   3.853  73.104  1.00  0.00    -0.254 C  
BRANCH  25  26
HETATM   26  C   UNL     1      -9.894   5.278  73.099  1.00  0.00    -0.173 C  
BRANCH  26  27
HETATM   27  C   UNL     1     -10.968   6.296  73.479  1.00  0.00    -0.105 C  
HETATM   28  C   UNL     1     -11.806   6.677  72.270  1.00  0.00    -0.289 C  
ENDBRANCH  26  27
ENDBRANCH  25  26
ENDBRANCH  24  25
ENDBRANCH  21  24
ENDBRANCH  20  21
ENDBRANCH  16  19
ENDBRANCH   9  10
ENDBRANCH   2   9
TORSDOF 11
ENDMDL
MODEL      329
REMARK 921   NORMALIZED FREE ENERGY PREDICTED BY IDOCK:   -1.95 KCAL/MOL
REMARK 922        TOTAL FREE ENERGY PREDICTED BY IDOCK:   -5.59 KCAL/MOL
REMARK 923 INTER-LIGAND FREE ENERGY PREDICTED BY IDOCK:   -3.92 KCAL/MOL
REMARK 924 INTRA-LIGAND FREE ENERGY PREDICTED BY IDOCK:   -1.68 KCAL/MOL
REMARK 927      BINDING AFFINITY PREDICTED BY RF-SCORE:    0.00 PKD
ROOT
HETATM    1  C   UNL     1     -10.022   8.576  72.381  1.00  0.00    -0.365 C  
HETATM    2  C   UNL     1      -8.692   8.550  72.213  1.00  0.00    -0.261 C  
ENDROOT
BRANCH   1   3
HETATM    3  C   UNL     1     -10.872   7.482  72.967  1.00  0.00    -0.445 C  
BRANCH   3   4
HETATM    4  C   UNL     1     -11.442   6.568  71.882  1.00  0.00    -0.345 C  
BRANCH   4   5
HETATM    5  C   UNL     1     -10.461   5.466  71.480  1.00  0.00    -0.289 C  
HETATM    6  O   UNL     1      -9.548   3.372  72.139  1.00  0.00    -0.120 OA 
HETATM    7  C   UNL     1     -10.407   4.355  72.498  1.00  0.00    -0.188 C  
HETATM    8  O   UNL     1     -11.057   4.310  73.531  1.00  0.00    -0.260 OA 
ENDBRANCH   4   5
ENDBRANCH   3   4
ENDBRANCH   1   3
BRANCH   2   9
HETATM    9  C   UNL     1      -7.777   7.395  72.519  1.00  0.00    -0.102 C  
BRANCH   9  10
HETATM   10  C   UNL     1      -6.813   6.984  71.394  1.00  0.00    -0.060 C  
HETATM   11  H   UNL     1      -8.351   4.695  68.653  1.00  0.00     0.000 HD 
HETATM   12  C   UNL     1      -6.154   5.627  71.691  1.00  0.00    -0.030 C  
HETATM   13  O   UNL     1      -7.652   4.465  69.253  1.00  0.00    -0.055 OA 
HETATM   14  O   UNL     1      -7.111   4.661  72.121  1.00  0.00    -0.061 OA 
HETATM   15  C   UNL     1      -5.615   5.191  70.338  1.00  0.00    -0.015 C  
HETATM   16  C   UNL     1      -7.469   6.777  70.001  1.00  0.00    -0.094 C  
HETATM   17  H   UNL     1      -6.704   3.822  72.304  1.00  0.00     0.000 HD 
HETATM   18  C   UNL     1      -6.740   5.561  69.373  1.00  0.00    -0.059 C  
BRANCH  16  19
HETATM   19  C   UNL     1      -7.422   8.003  69.120  1.00  0.00    -0.095 C  
HETATM   20  C   UNL     1      -8.497   8.670  68.661  1.00  0.00    -0.130 C  
BRANCH  20  21
HETATM   21  C   UNL     1      -8.470   9.849  67.727  1.00  0.00    -0.118 C  
HETATM   22  O   UNL     1      -8.932  11.017  68.396  1.00  0.00    -0.145 OA 
HETATM   23  H   UNL     1      -8.915  11.762  67.807  1.00  0.00     0.000 HD 
BRANCH  21  24
HETATM   24  C   UNL     1      -7.058  10.122  67.198  1.00  0.00    -0.089 C  
BRANCH  24  25
HETATM   25  C   UNL     1      -6.923  10.112  65.671  1.00  0.00    -0.125 C  
BRANCH  25  26
HETATM   26  C   UNL     1      -8.259  10.296  64.954  1.00  0.00    -0.157 C  
BRANCH  26  27
HETATM   27  C   UNL     1      -8.696   9.017  64.243  1.00  0.00    -0.140 C  
HETATM   28  C   UNL     1      -8.050   8.911  62.872  1.00  0.00    -0.174 C  
ENDBRANCH  26  27
ENDBRANCH  25  26
ENDBRANCH  24  25
ENDBRANCH  21  24
ENDBRANCH  20  21
ENDBRANCH  16  19
ENDBRANCH   9  10
ENDBRANCH   2   9
TORSDOF 11
ENDMDL
MODEL      330
REMARK 921   NORMALIZED FREE ENERGY PREDICTED BY IDOCK:   -1.93 KCAL/MOL
REMARK 922        TOTAL FREE ENERGY PREDICTED BY IDOCK:   -5.56 KCAL/MOL
REMARK 923 INTER-LIGAND FREE ENERGY PREDICTED BY IDOCK:   -3.28 KCAL/MOL
REMARK 924 INTRA-LIGAND FREE ENERGY PREDICTED BY IDOCK:   -2.28 KCAL/MOL
REMARK 927      BINDING AFFINITY PREDICTED BY RF-SCORE:    0.00 PKD
ROOT
HETATM    1  C   UNL     1      -7.170   3.705  68.722  1.00  0.00    -0.050 C  
HETATM    2  C   UNL     1      -8.372   3.675  68.127  1.00  0.00    -0.095 C  
ENDROOT
BRANCH   1   3
HETATM    3  C   UNL     1      -6.849   4.312  70.060  1.00  0.00    -0.038 C  
BRANCH   3   4
HETATM    4  C   UNL     1      -7.410   3.474  71.210  1.00  0.00    -0.033 C  
BRANCH   4   5
HETATM    5  C   UNL     1      -7.483   4.264  72.518  1.00  0.00    -0.074 C  
HETATM    6  O   UNL     1      -8.950   5.435  73.975  1.00  0.00    -0.120 OA 
HETATM    7  C   UNL     1      -8.880   4.748  72.811  1.00  0.00    -0.117 C  
HETATM    8  O   UNL     1      -9.860   4.550  72.109  1.00  0.00    -0.162 OA 
ENDBRANCH   4   5
ENDBRANCH   3   4
ENDBRANCH   1   3
BRANCH   2   9
HETATM    9  C   UNL     1      -9.640   4.298  68.645  1.00  0.00    -0.210 C  
BRANCH   9  10
HETATM   10  C   UNL     1     -10.194   5.477  67.828  1.00  0.00    -0.237 C  
HETATM   11  H   UNL     1      -7.522   7.982  66.520  1.00  0.00     0.000 HD 
HETATM   12  C   UNL     1     -10.435   6.709  68.716  1.00  0.00    -0.213 C  
HETATM   13  O   UNL     1      -8.214   8.169  67.144  1.00  0.00    -0.117 OA 
HETATM   14  O   UNL     1      -9.322   6.967  69.570  1.00  0.00    -0.149 OA 
HETATM   15  C   UNL     1     -10.543   7.849  67.717  1.00  0.00    -0.244 C  
HETATM   16  C   UNL     1      -9.255   6.008  66.710  1.00  0.00    -0.143 C  
HETATM   17  H   UNL     1      -9.471   7.728  70.118  1.00  0.00     0.000 HD 
HETATM   18  C   UNL     1      -9.430   7.549  66.715  1.00  0.00    -0.179 C  
BRANCH  16  19
HETATM   19  C   UNL     1      -9.517   5.396  65.355  1.00  0.00     0.047 C  
HETATM   20  C   UNL     1     -10.452   4.464  65.092  1.00  0.00    -0.184 C  
BRANCH  20  21
HETATM   21  C   UNL     1     -10.680   3.793  63.766  1.00  0.00    -0.232 C  
HETATM   22  O   UNL     1     -10.095   4.559  62.719  1.00  0.00    -0.372 OA 
HETATM   23  H   UNL     1     -10.239   4.136  61.881  1.00  0.00     0.000 HD 
BRANCH  21  24
HETATM   24  C   UNL     1     -10.075   2.385  63.730  1.00  0.00    -0.139 C  
BRANCH  24  25
HETATM   25  C   UNL     1      -8.561   2.334  63.499  1.00  0.00    -0.085 C  
BRANCH  25  26
HETATM   26  C   UNL     1      -7.769   2.110  64.786  1.00  0.00    -0.069 C  
BRANCH  26  27
HETATM   27  C   UNL     1      -6.492   2.948  64.814  1.00  0.00    -0.027 C  
HETATM   28  C   UNL     1      -6.549   4.057  63.776  1.00  0.00    -0.042 C  
ENDBRANCH  26  27
ENDBRANCH  25  26
ENDBRANCH  24  25
ENDBRANCH  21  24
ENDBRANCH  20  21
ENDBRANCH  16  19
ENDBRANCH   9  10
ENDBRANCH   2   9
TORSDOF 11
ENDMDL
MODEL      331
REMARK 921   NORMALIZED FREE ENERGY PREDICTED BY IDOCK:   -1.86 KCAL/MOL
REMARK 922        TOTAL FREE ENERGY PREDICTED BY IDOCK:   -5.46 KCAL/MOL
REMARK 923 INTER-LIGAND FREE ENERGY PREDICTED BY IDOCK:   -5.23 KCAL/MOL
REMARK 924 INTRA-LIGAND FREE ENERGY PREDICTED BY IDOCK:   -0.23 KCAL/MOL
REMARK 927      BINDING AFFINITY PREDICTED BY RF-SCORE:    0.00 PKD
ROOT
HETATM    1  C   UNL     1      -9.459  11.869  68.167  1.00  0.00    -0.195 C  
HETATM    2  C   UNL     1      -8.465  10.968  68.159  1.00  0.00    -0.135 C  
ENDROOT
BRANCH   1   3
HETATM    3  C   UNL     1     -10.932  11.577  68.107  1.00  0.00    -0.279 C  
BRANCH   3   4
HETATM    4  C   UNL     1     -11.433  10.928  69.398  1.00  0.00    -0.373 C  
BRANCH   4   5
HETATM    5  C   UNL     1     -12.229  11.904  70.264  1.00  0.00    -0.353 C  
HETATM    6  O   UNL     1     -13.318  12.163  72.361  1.00  0.00    -0.427 OA 
HETATM    7  C   UNL     1     -12.624  11.297  71.587  1.00  0.00    -0.251 C  
HETATM    8  O   UNL     1     -12.356  10.162  71.953  1.00  0.00    -0.362 OA 
ENDBRANCH   4   5
ENDBRANCH   3   4
ENDBRANCH   1   3
BRANCH   2   9
HETATM    9  C   UNL     1      -8.615   9.476  68.026  1.00  0.00    -0.120 C  
BRANCH   9  10
HETATM   10  C   UNL     1      -8.935   8.955  66.615  1.00  0.00    -0.165 C  
HETATM   11  H   UNL     1      -5.880   7.615  64.616  1.00  0.00     0.000 HD 
HETATM   12  C   UNL     1      -8.730  10.049  65.555  1.00  0.00    -0.155 C  
HETATM   13  O   UNL     1      -6.415   8.368  64.392  1.00  0.00    -0.065 OA 
HETATM   14  O   UNL     1      -7.491  10.732  65.737  1.00  0.00    -0.236 OA 
HETATM   15  C   UNL     1      -8.656   9.271  64.252  1.00  0.00    -0.214 C  
HETATM   16  C   UNL     1      -8.035   7.790  66.119  1.00  0.00    -0.105 C  
HETATM   17  H   UNL     1      -7.365  11.409  65.082  1.00  0.00     0.000 HD 
HETATM   18  C   UNL     1      -7.795   8.060  64.611  1.00  0.00    -0.140 C  
BRANCH  16  19
HETATM   19  C   UNL     1      -8.617   6.420  66.380  1.00  0.00    -0.134 C  
HETATM   20  C   UNL     1      -9.727   5.927  65.804  1.00  0.00     0.151 C  
BRANCH  20  21
HETATM   21  C   UNL     1     -10.359   4.595  66.104  1.00  0.00    -0.275 C  
HETATM   22  O   UNL     1     -11.438   4.348  65.209  1.00  0.00    -1.003 OA 
HETATM   23  H   UNL     1     -11.837   3.507  65.398  1.00  0.00     0.000 HD 
BRANCH  21  24
HETATM   24  C   UNL     1      -9.351   3.447  65.973  1.00  0.00    -0.148 C  
BRANCH  24  25
HETATM   25  C   UNL     1      -9.611   2.483  64.810  1.00  0.00    -0.052 C  
BRANCH  25  26
HETATM   26  C   UNL     1      -8.853   2.865  63.540  1.00  0.00    -0.092 C  
BRANCH  26  27
HETATM   27  C   UNL     1      -7.596   3.673  63.857  1.00  0.00    -0.074 C  
HETATM   28  C   UNL     1      -6.577   3.553  62.736  1.00  0.00    -0.026 C  
ENDBRANCH  26  27
ENDBRANCH  25  26
ENDBRANCH  24  25
ENDBRANCH  21  24
ENDBRANCH  20  21
ENDBRANCH  16  19
ENDBRANCH   9  10
ENDBRANCH   2   9
TORSDOF 11
ENDMDL
MODEL      332
REMARK 921   NORMALIZED FREE ENERGY PREDICTED BY IDOCK:   -1.85 KCAL/MOL
REMARK 922        TOTAL FREE ENERGY PREDICTED BY IDOCK:   -5.43 KCAL/MOL
REMARK 923 INTER-LIGAND FREE ENERGY PREDICTED BY IDOCK:   -4.90 KCAL/MOL
REMARK 924 INTRA-LIGAND FREE ENERGY PREDICTED BY IDOCK:   -0.53 KCAL/MOL
REMARK 927      BINDING AFFINITY PREDICTED BY RF-SCORE:    0.00 PKD
ROOT
HETATM    1  C   UNL     1      -9.133   8.570  69.373  1.00  0.00    -0.150 C  
HETATM    2  C   UNL     1      -9.138   8.788  68.049  1.00  0.00    -0.144 C  
ENDROOT
BRANCH   1   3
HETATM    3  C   UNL     1      -8.142   9.113  70.365  1.00  0.00    -0.166 C  
BRANCH   3   4
HETATM    4  C   UNL     1      -6.704   8.973  69.862  1.00  0.00    -0.046 C  
BRANCH   4   5
HETATM    5  C   UNL     1      -6.102   7.611  70.206  1.00  0.00    -0.030 C  
HETATM    6  O   UNL     1      -5.455   5.512  69.297  1.00  0.00    -0.007 OA 
HETATM    7  C   UNL     1      -6.000   6.714  68.997  1.00  0.00    -0.022 C  
HETATM    8  O   UNL     1      -6.349   7.010  67.865  1.00  0.00    -0.039 OA 
ENDBRANCH   4   5
ENDBRANCH   3   4
ENDBRANCH   1   3
BRANCH   2   9
HETATM    9  C   UNL     1      -8.116   9.572  67.270  1.00  0.00    -0.110 C  
BRANCH   9  10
HETATM   10  C   UNL     1      -8.613  10.880  66.633  1.00  0.00    -0.148 C  
HETATM   11  H   UNL     1     -12.286  11.839  67.481  1.00  0.00     0.000 HD 
HETATM   12  C   UNL     1      -9.339  10.614  65.304  1.00  0.00    -0.214 C  
HETATM   13  O   UNL     1     -11.943  11.623  66.622  1.00  0.00    -0.503 OA 
HETATM   14  O   UNL     1     -10.274   9.543  65.420  1.00  0.00    -0.311 OA 
HETATM   15  C   UNL     1     -10.115  11.898  65.060  1.00  0.00    -0.297 C  
HETATM   16  C   UNL     1      -9.658  11.669  67.469  1.00  0.00    -0.176 C  
HETATM   17  H   UNL     1     -10.721   9.379  64.598  1.00  0.00     0.000 HD 
HETATM   18  C   UNL     1     -10.667  12.245  66.442  1.00  0.00    -0.251 C  
BRANCH  16  19
HETATM   19  C   UNL     1      -9.050  12.736  68.350  1.00  0.00    -0.129 C  
HETATM   20  C   UNL     1      -8.893  14.027  68.008  1.00  0.00    -0.181 C  
BRANCH  20  21
HETATM   21  C   UNL     1      -8.227  15.086  68.844  1.00  0.00    -0.178 C  
HETATM   22  O   UNL     1      -6.887  14.710  69.140  1.00  0.00    -0.109 OA 
HETATM   23  H   UNL     1      -6.466  15.378  69.667  1.00  0.00     0.000 HD 
BRANCH  21  24
HETATM   24  C   UNL     1      -8.201  16.441  68.127  1.00  0.00    -0.170 C  
BRANCH  24  25
HETATM   25  C   UNL     1      -9.153  17.498  68.699  1.00  0.00    -0.263 C  
BRANCH  25  26
HETATM   26  C   UNL     1      -8.750  18.924  68.330  1.00  0.00    -0.367 C  
BRANCH  26  27
HETATM   27  C   UNL     1      -9.114  19.254  66.884  1.00  0.00    -0.358 C  
HETATM   28  C   UNL     1     -10.621  19.245  66.688  1.00  0.00    -0.530 C  
ENDBRANCH  26  27
ENDBRANCH  25  26
ENDBRANCH  24  25
ENDBRANCH  21  24
ENDBRANCH  20  21
ENDBRANCH  16  19
ENDBRANCH   9  10
ENDBRANCH   2   9
TORSDOF 11
ENDMDL
MODEL      333
REMARK 921   NORMALIZED FREE ENERGY PREDICTED BY IDOCK:   -1.83 KCAL/MOL
REMARK 922        TOTAL FREE ENERGY PREDICTED BY IDOCK:   -5.41 KCAL/MOL
REMARK 923 INTER-LIGAND FREE ENERGY PREDICTED BY IDOCK:   -3.85 KCAL/MOL
REMARK 924 INTRA-LIGAND FREE ENERGY PREDICTED BY IDOCK:   -1.56 KCAL/MOL
REMARK 927      BINDING AFFINITY PREDICTED BY RF-SCORE:    0.00 PKD
ROOT
HETATM    1  C   UNL     1      -9.736   3.607  72.961  1.00  0.00    -0.175 C  
HETATM    2  C   UNL     1     -10.819   4.070  72.321  1.00  0.00     0.147 C  
ENDROOT
BRANCH   1   3
HETATM    3  C   UNL     1      -9.034   4.260  74.120  1.00  0.00    -0.094 C  
BRANCH   3   4
HETATM    4  C   UNL     1      -7.561   3.853  74.190  1.00  0.00    -0.074 C  
BRANCH   4   5
HETATM    5  C   UNL     1      -6.647   5.041  74.492  1.00  0.00    -0.070 C  
HETATM    6  O   UNL     1      -5.526   6.898  73.519  1.00  0.00    -0.045 OA 
HETATM    7  C   UNL     1      -6.325   5.838  73.252  1.00  0.00    -0.063 C  
HETATM    8  O   UNL     1      -6.729   5.590  72.126  1.00  0.00    -0.061 OA 
ENDBRANCH   4   5
ENDBRANCH   3   4
ENDBRANCH   1   3
BRANCH   2   9
HETATM    9  C   UNL     1     -11.524   5.373  72.588  1.00  0.00    -0.305 C  
BRANCH   9  10
HETATM   10  C   UNL     1     -11.522   6.389  71.434  1.00  0.00    -0.363 C  
HETATM   11  H   UNL     1      -8.804   9.160  71.677  1.00  0.00     0.000 HD 
HETATM   12  C   UNL     1     -12.352   7.634  71.784  1.00  0.00    -0.319 C  
HETATM   13  O   UNL     1      -9.745   9.288  71.706  1.00  0.00    -0.269 OA 
HETATM   14  O   UNL     1     -12.045   8.122  73.088  1.00  0.00    -0.626 OA 
HETATM   15  C   UNL     1     -11.888   8.666  70.769  1.00  0.00    -0.197 C  
HETATM   16  C   UNL     1     -10.129   6.969  71.064  1.00  0.00    -0.206 C  
HETATM   17  H   UNL     1     -12.558   8.892  73.304  1.00  0.00     0.000 HD 
HETATM   18  C   UNL     1     -10.374   8.461  70.723  1.00  0.00    -0.195 C  
BRANCH  16  19
HETATM   19  C   UNL     1      -9.438   6.222  69.947  1.00  0.00    -0.162 C  
HETATM   20  C   UNL     1      -9.778   6.281  68.647  1.00  0.00    -0.137 C  
BRANCH  20  21
HETATM   21  C   UNL     1      -9.147   5.491  67.533  1.00  0.00    -0.107 C  
HETATM   22  O   UNL     1      -9.475   4.112  67.659  1.00  0.00    -0.161 OA 
HETATM   23  H   UNL     1      -9.077   3.614  66.956  1.00  0.00     0.000 HD 
BRANCH  21  24
HETATM   24  C   UNL     1      -9.618   5.976  66.157  1.00  0.00    -0.091 C  
BRANCH  24  25
HETATM   25  C   UNL     1      -8.785   7.110  65.547  1.00  0.00    -0.042 C  
BRANCH  25  26
HETATM   26  C   UNL     1      -7.295   6.991  65.865  1.00  0.00    -0.075 C  
BRANCH  26  27
HETATM   27  C   UNL     1      -6.826   8.116  66.786  1.00  0.00    -0.069 C  
HETATM   28  C   UNL     1      -7.234   9.473  66.236  1.00  0.00    -0.093 C  
ENDBRANCH  26  27
ENDBRANCH  25  26
ENDBRANCH  24  25
ENDBRANCH  21  24
ENDBRANCH  20  21
ENDBRANCH  16  19
ENDBRANCH   9  10
ENDBRANCH   2   9
TORSDOF 11
ENDMDL
MODEL      334
REMARK 921   NORMALIZED FREE ENERGY PREDICTED BY IDOCK:   -1.35 KCAL/MOL
REMARK 922        TOTAL FREE ENERGY PREDICTED BY IDOCK:   -4.62 KCAL/MOL
REMARK 923 INTER-LIGAND FREE ENERGY PREDICTED BY IDOCK:   -4.58 KCAL/MOL
REMARK 924 INTRA-LIGAND FREE ENERGY PREDICTED BY IDOCK:   -0.04 KCAL/MOL
REMARK 927      BINDING AFFINITY PREDICTED BY RF-SCORE:    0.00 PKD
ROOT
HETATM    1  C   UNL     1      -9.147   8.516  69.382  1.00  0.00    -0.150 C  
HETATM    2  C   UNL     1      -9.252   8.756  68.067  1.00  0.00    -0.147 C  
ENDROOT
BRANCH   1   3
HETATM    3  C   UNL     1      -8.076   9.033  70.303  1.00  0.00    -0.141 C  
BRANCH   3   4
HETATM    4  C   UNL     1      -6.954   9.728  69.531  1.00  0.00    -0.064 C  
BRANCH   4   5
HETATM    5  C   UNL     1      -6.730  11.164  70.004  1.00  0.00    -0.058 C  
HETATM    6  O   UNL     1      -5.529  12.513  71.550  1.00  0.00    -0.379 OA 
HETATM    7  C   UNL     1      -5.738  11.241  71.138  1.00  0.00     0.117 C  
HETATM    8  O   UNL     1      -5.164  10.287  71.641  1.00  0.00    -0.090 OA 
ENDBRANCH   4   5
ENDBRANCH   3   4
ENDBRANCH   1   3
BRANCH   2   9
HETATM    9  C   UNL     1      -8.285   9.543  67.224  1.00  0.00    -0.114 C  
BRANCH   9  10
HETATM   10  C   UNL     1      -8.783  10.911  66.728  1.00  0.00    -0.147 C  
HETATM   11  H   UNL     1     -12.270  11.987  68.073  1.00  0.00     0.000 HD 
HETATM   12  C   UNL     1      -9.676  10.764  65.484  1.00  0.00    -0.239 C  
HETATM   13  O   UNL     1     -12.045  11.810  67.167  1.00  0.00    -0.592 OA 
HETATM   14  O   UNL     1     -10.647   9.733  65.654  1.00  0.00     0.009 OA 
HETATM   15  C   UNL     1     -10.404  12.096  65.411  1.00  0.00    -0.301 C  
HETATM   16  C   UNL     1      -9.676  11.694  67.729  1.00  0.00    -0.177 C  
HETATM   17  H   UNL     1     -11.198   9.642  64.885  1.00  0.00     0.000 HD 
HETATM   18  C   UNL     1     -10.768  12.381  66.868  1.00  0.00    -0.240 C  
BRANCH  16  19
HETATM   19  C   UNL     1      -8.910  12.674  68.587  1.00  0.00     0.050 C  
HETATM   20  C   UNL     1      -8.704  13.969  68.291  1.00  0.00    -0.182 C  
BRANCH  20  21
HETATM   21  C   UNL     1      -7.885  14.940  69.098  1.00  0.00    -0.171 C  
HETATM   22  O   UNL     1      -6.552  14.462  69.238  1.00  0.00    -0.107 OA 
HETATM   23  H   UNL     1      -6.035  15.075  69.748  1.00  0.00     0.000 HD 
BRANCH  21  24
HETATM   24  C   UNL     1      -7.836  16.324  68.441  1.00  0.00    -0.168 C  
BRANCH  24  25
HETATM   25  C   UNL     1      -8.899  17.314  68.929  1.00  0.00    -0.173 C  
BRANCH  25  26
HETATM   26  C   UNL     1      -8.521  18.771  68.667  1.00  0.00    -0.364 C  
BRANCH  26  27
HETATM   27  C   UNL     1      -8.692  19.140  67.195  1.00  0.00    -0.306 C  
HETATM   28  C   UNL     1     -10.152  19.054  66.780  1.00  0.00    -0.442 C  
ENDBRANCH  26  27
ENDBRANCH  25  26
ENDBRANCH  24  25
ENDBRANCH  21  24
ENDBRANCH  20  21
ENDBRANCH  16  19
ENDBRANCH   9  10
ENDBRANCH   2   9
TORSDOF 11
ENDMDL
MODEL      335
REMARK 921   NORMALIZED FREE ENERGY PREDICTED BY IDOCK:   -0.06 KCAL/MOL
REMARK 922        TOTAL FREE ENERGY PREDICTED BY IDOCK:   -2.49 KCAL/MOL
REMARK 923 INTER-LIGAND FREE ENERGY PREDICTED BY IDOCK:   -1.23 KCAL/MOL
REMARK 924 INTRA-LIGAND FREE ENERGY PREDICTED BY IDOCK:   -1.27 KCAL/MOL
REMARK 927      BINDING AFFINITY PREDICTED BY RF-SCORE:    0.00 PKD
ROOT
HETATM    1  C   UNL     1      -6.870   7.849  70.346  1.00  0.00    -0.041 C  
HETATM    2  C   UNL     1      -8.089   8.302  70.675  1.00  0.00    -0.110 C  
ENDROOT
BRANCH   1   3
HETATM    3  C   UNL     1      -6.559   6.611  69.551  1.00  0.00    -0.048 C  
BRANCH   3   4
HETATM    4  C   UNL     1      -7.509   6.450  68.363  1.00  0.00    -0.088 C  
BRANCH   4   5
HETATM    5  C   UNL     1      -7.105   7.328  67.178  1.00  0.00    -0.087 C  
HETATM    6  O   UNL     1      -5.743   7.421  65.232  1.00  0.00    -0.036 OA 
HETATM    7  C   UNL     1      -6.092   6.650  66.289  1.00  0.00    -0.033 C  
HETATM    8  O   UNL     1      -5.629   5.534  66.466  1.00  0.00    -0.015 OA 
ENDBRANCH   4   5
ENDBRANCH   3   4
ENDBRANCH   1   3
BRANCH   2   9
HETATM    9  C   UNL     1      -9.401   7.632  70.370  1.00  0.00    -0.160 C  
BRANCH   9  10
HETATM   10  C   UNL     1     -10.520   8.548  69.849  1.00  0.00    -0.219 C  
HETATM   11  H   UNL     1     -11.576  11.407  72.265  1.00  0.00     0.000 HD 
HETATM   12  C   UNL     1     -11.901   8.077  70.333  1.00  0.00     0.085 C  
HETATM   13  O   UNL     1     -12.119  10.683  71.976  1.00  0.00     0.130 OA 
HETATM   14  O   UNL     1     -11.894   7.777  71.727  1.00  0.00    -0.270 OA 
HETATM   15  C   UNL     1     -12.787   9.291  70.113  1.00  0.00     0.907 C  
HETATM   16  C   UNL     1     -10.446  10.024  70.330  1.00  0.00    -0.331 C  
HETATM   17  H   UNL     1     -12.748   7.485  72.026  1.00  0.00     0.000 HD 
HETATM   18  C   UNL     1     -11.915  10.456  70.578  1.00  0.00    -0.334 C  
BRANCH  16  19
HETATM   19  C   UNL     1      -9.723  10.939  69.370  1.00  0.00    -0.019 C  
HETATM   20  C   UNL     1     -10.229  11.407  68.215  1.00  0.00    -0.204 C  
BRANCH  20  21
HETATM   21  C   UNL     1      -9.499  12.262  67.215  1.00  0.00    -0.186 C  
HETATM   22  O   UNL     1      -8.130  12.389  67.581  1.00  0.00    -0.145 OA 
HETATM   23  H   UNL     1      -7.669  12.929  66.950  1.00  0.00     0.000 HD 
BRANCH  21  24
HETATM   24  C   UNL     1      -9.568  11.668  65.803  1.00  0.00    -0.255 C  
BRANCH  24  25
HETATM   25  C   UNL     1      -8.334  10.867  65.373  1.00  0.00    -0.051 C  
BRANCH  25  26
HETATM   26  C   UNL     1      -8.615   9.373  65.228  1.00  0.00    -0.182 C  
BRANCH  26  27
HETATM   27  C   UNL     1     -10.099   9.060  65.410  1.00  0.00     0.610 C  
HETATM   28  C   UNL     1     -10.310   8.083  66.555  1.00  0.00    -0.144 C  
ENDBRANCH  26  27
ENDBRANCH  25  26
ENDBRANCH  24  25
ENDBRANCH  21  24
ENDBRANCH  20  21
ENDBRANCH  16  19
ENDBRANCH   9  10
ENDBRANCH   2   9
TORSDOF 11
ENDMDL
MODEL      336
REMARK 921   NORMALIZED FREE ENERGY PREDICTED BY IDOCK:    0.89 KCAL/MOL
REMARK 922        TOTAL FREE ENERGY PREDICTED BY IDOCK:   -0.93 KCAL/MOL
REMARK 923 INTER-LIGAND FREE ENERGY PREDICTED BY IDOCK:   -0.38 KCAL/MOL
REMARK 924 INTRA-LIGAND FREE ENERGY PREDICTED BY IDOCK:   -0.55 KCAL/MOL
REMARK 927      BINDING AFFINITY PREDICTED BY RF-SCORE:    0.00 PKD
ROOT
HETATM    1  C   UNL     1      -8.327  11.680  68.029  1.00  0.00    -0.148 C  
HETATM    2  C   UNL     1      -8.318  12.964  67.642  1.00  0.00    -0.176 C  
ENDROOT
BRANCH   1   3
HETATM    3  C   UNL     1      -9.251  11.056  69.038  1.00  0.00    -0.077 C  
BRANCH   3   4
HETATM    4  C   UNL     1      -8.512  10.076  69.951  1.00  0.00    -0.171 C  
BRANCH   4   5
HETATM    5  C   UNL     1      -7.690   9.057  69.161  1.00  0.00    -0.092 C  
HETATM    6  O   UNL     1      -5.495   8.214  68.814  1.00  0.00    -0.033 OA 
HETATM    7  C   UNL     1      -6.223   9.124  69.503  1.00  0.00    -0.040 C  
HETATM    8  O   UNL     1      -5.718   9.889  70.310  1.00  0.00    -0.041 OA 
ENDBRANCH   4   5
ENDBRANCH   3   4
ENDBRANCH   1   3
BRANCH   2   9
HETATM    9  C   UNL     1      -9.192  14.064  68.182  1.00  0.00    -0.196 C  
BRANCH   9  10
HETATM   10  C   UNL     1     -10.707  13.803  68.138  1.00  0.00    -0.258 C  
HETATM   11  H   UNL     1     -12.883  16.371  70.086  1.00  0.00     0.000 HD 
HETATM   12  C   UNL     1     -11.168  12.987  69.357  1.00  0.00    -0.145 C  
HETATM   13  O   UNL     1     -12.791  15.446  70.282  1.00  0.00    -0.350 OA 
HETATM   14  O   UNL     1     -10.625  13.501  70.571  1.00  0.00     0.822 OA 
HETATM   15  C   UNL     1     -12.673  13.204  69.379  1.00  0.00     0.591 C  
HETATM   16  C   UNL     1     -11.600  15.073  68.188  1.00  0.00    -0.360 C  
HETATM   17  H   UNL     1     -10.910  12.996  71.324  1.00  0.00     0.000 HD 
HETATM   18  C   UNL     1     -12.820  14.692  69.066  1.00  0.00     0.769 C  
BRANCH  16  19
HETATM   19  C   UNL     1     -12.001  15.587  66.825  1.00  0.00     0.541 C  
HETATM   20  C   UNL     1     -12.305  14.817  65.765  1.00  0.00    -0.011 C  
BRANCH  20  21
HETATM   21  C   UNL     1     -12.638  15.311  64.383  1.00  0.00     0.152 C  
HETATM   22  O   UNL     1     -11.578  16.115  63.879  1.00  0.00    -1.369 OA 
HETATM   23  H   UNL     1     -11.788  16.426  63.006  1.00  0.00     0.000 HD 
BRANCH  21  24
HETATM   24  C   UNL     1     -12.871  14.151  63.408  1.00  0.00     1.168 C  
BRANCH  24  25
HETATM   25  C   UNL     1     -12.652  12.753  63.996  1.00  0.00    -0.379 C  
BRANCH  25  26
HETATM   26  C   UNL     1     -11.232  12.231  63.780  1.00  0.00    -0.510 C  
BRANCH  26  27
HETATM   27  C   UNL     1     -10.610  11.738  65.085  1.00  0.00    -0.332 C  
HETATM   28  C   UNL     1     -10.690  10.223  65.185  1.00  0.00     0.268 C  
ENDBRANCH  26  27
ENDBRANCH  25  26
ENDBRANCH  24  25
ENDBRANCH  21  24
ENDBRANCH  20  21
ENDBRANCH  16  19
ENDBRANCH   9  10
ENDBRANCH   2   9
TORSDOF 11
ENDMDL
MODEL      337
REMARK 921   NORMALIZED FREE ENERGY PREDICTED BY IDOCK:    2.85 KCAL/MOL
REMARK 922        TOTAL FREE ENERGY PREDICTED BY IDOCK:    2.29 KCAL/MOL
REMARK 923 INTER-LIGAND FREE ENERGY PREDICTED BY IDOCK:   -1.37 KCAL/MOL
REMARK 924 INTRA-LIGAND FREE ENERGY PREDICTED BY IDOCK:    3.66 KCAL/MOL
REMARK 927      BINDING AFFINITY PREDICTED BY RF-SCORE:    0.00 PKD
ROOT
HETATM    1  C   UNL     1     -12.670  15.657  71.251  1.00  0.00    -0.537 C  
HETATM    2  C   UNL     1     -12.813  15.002  70.090  1.00  0.00    -0.196 C  
ENDROOT
BRANCH   1   3
HETATM    3  C   UNL     1     -11.438  15.695  72.112  1.00  0.00    -0.479 C  
BRANCH   3   4
HETATM    4  C   UNL     1     -11.098  14.313  72.673  1.00  0.00     2.348 C  
BRANCH   4   5
HETATM    5  C   UNL     1     -12.041  13.229  72.149  1.00  0.00     1.018 C  
HETATM    6  O   UNL     1     -14.278  12.427  72.225  1.00  0.00     0.011 OA 
HETATM    7  C   UNL     1     -13.438  13.378  72.698  1.00  0.00    -0.426 C  
HETATM    8  O   UNL     1     -13.805  14.249  73.471  1.00  0.00     0.357 OA 
ENDBRANCH   4   5
ENDBRANCH   3   4
ENDBRANCH   1   3
BRANCH   2   9
HETATM    9  C   UNL     1     -11.788  14.116  69.434  1.00  0.00    -0.378 C  
BRANCH   9  10
HETATM   10  C   UNL     1     -11.059  14.714  68.220  1.00  0.00    -0.283 C  
HETATM   11  H   UNL     1      -7.822  16.703  69.050  1.00  0.00     0.000 HD 
HETATM   12  C   UNL     1     -11.492  16.167  67.967  1.00  0.00    -0.163 C  
HETATM   13  O   UNL     1      -8.618  17.054  68.667  1.00  0.00    -0.254 OA 
HETATM   14  O   UNL     1     -11.497  16.931  69.172  1.00  0.00    -0.159 OA 
HETATM   15  C   UNL     1     -10.397  16.711  67.064  1.00  0.00    -0.301 C  
HETATM   16  C   UNL     1      -9.514  14.809  68.355  1.00  0.00    -0.213 C  
HETATM   17  H   UNL     1     -11.764  17.829  69.016  1.00  0.00     0.000 HD 
HETATM   18  C   UNL     1      -9.117  16.148  67.680  1.00  0.00    -0.196 C  
BRANCH  16  19
HETATM   19  C   UNL     1      -8.780  13.623  67.774  1.00  0.00    -0.184 C  
HETATM   20  C   UNL     1      -8.793  13.261  66.479  1.00  0.00     0.000 C  
BRANCH  20  21
HETATM   21  C   UNL     1      -8.126  12.045  65.896  1.00  0.00     0.689 C  
HETATM   22  O   UNL     1      -7.156  11.533  66.803  1.00  0.00    -0.168 OA 
HETATM   23  H   UNL     1      -6.735  10.766  66.435  1.00  0.00     0.000 HD 
BRANCH  21  24
HETATM   24  C   UNL     1      -9.137  10.934  65.591  1.00  0.00    -0.223 C  
BRANCH  24  25
HETATM   25  C   UNL     1     -10.532  11.420  65.182  1.00  0.00    -0.351 C  
BRANCH  25  26
HETATM   26  C   UNL     1     -10.871  11.100  63.727  1.00  0.00    -0.337 C  
BRANCH  26  27
HETATM   27  C   UNL     1     -12.093  11.882  63.249  1.00  0.00    -0.466 C  
HETATM   28  C   UNL     1     -12.232  13.189  64.011  1.00  0.00    -0.482 C  
ENDBRANCH  26  27
ENDBRANCH  25  26
ENDBRANCH  24  25
ENDBRANCH  21  24
ENDBRANCH  20  21
ENDBRANCH  16  19
ENDBRANCH   9  10
ENDBRANCH   2   9
TORSDOF 11
ENDMDL
MODEL      338
REMARK 921   NORMALIZED FREE ENERGY PREDICTED BY IDOCK:    3.97 KCAL/MOL
REMARK 922        TOTAL FREE ENERGY PREDICTED BY IDOCK:    4.12 KCAL/MOL
REMARK 923 INTER-LIGAND FREE ENERGY PREDICTED BY IDOCK:   -1.65 KCAL/MOL
REMARK 924 INTRA-LIGAND FREE ENERGY PREDICTED BY IDOCK:    5.77 KCAL/MOL
REMARK 927      BINDING AFFINITY PREDICTED BY RF-SCORE:    0.00 PKD
ROOT
HETATM    1  C   UNL     1      -9.204   2.734  72.885  1.00  0.00    -0.119 C  
HETATM    2  C   UNL     1     -10.539   2.797  73.004  1.00  0.00    -0.246 C  
ENDROOT
BRANCH   1   3
HETATM    3  C   UNL     1      -8.272   3.888  72.637  1.00  0.00    -0.094 C  
BRANCH   3   4
HETATM    4  C   UNL     1      -6.807   3.460  72.726  1.00  0.00    -0.038 C  
BRANCH   4   5
HETATM    5  C   UNL     1      -5.966   4.038  71.586  1.00  0.00    -0.013 C  
HETATM    6  O   UNL     1      -5.159   3.618  69.391  1.00  0.00    -0.006 OA 
HETATM    7  C   UNL     1      -5.891   3.103  70.406  1.00  0.00    -0.018 C  
HETATM    8  O   UNL     1      -6.427   2.007  70.336  1.00  0.00    -0.024 OA 
ENDBRANCH   4   5
ENDBRANCH   3   4
ENDBRANCH   1   3
BRANCH   2   9
HETATM    9  C   UNL     1     -11.390   4.028  72.853  1.00  0.00     0.032 C  
BRANCH   9  10
HETATM   10  C   UNL     1     -10.909   5.057  71.817  1.00  0.00    -0.094 C  
HETATM   11  H   UNL     1      -7.050   5.482  71.579  1.00  0.00     0.000 HD 
HETATM   12  C   UNL     1     -10.689   6.437  72.459  1.00  0.00    -0.227 C  
HETATM   13  O   UNL     1      -7.675   6.143  71.853  1.00  0.00    -0.095 OA 
HETATM   14  O   UNL     1      -9.954   6.338  73.677  1.00  0.00    -0.173 OA 
HETATM   15  C   UNL     1      -9.828   7.168  71.442  1.00  0.00    -0.178 C  
HETATM   16  C   UNL     1      -9.541   4.739  71.153  1.00  0.00    -0.235 C  
HETATM   17  H   UNL     1      -9.819   7.191  74.074  1.00  0.00     0.000 HD 
HETATM   18  C   UNL     1      -8.823   6.105  71.000  1.00  0.00    -0.139 C  
BRANCH  16  19
HETATM   19  C   UNL     1      -9.660   3.994  69.845  1.00  0.00    -0.281 C  
HETATM   20  C   UNL     1      -9.213   4.437  68.656  1.00  0.00    -0.189 C  
BRANCH  20  21
HETATM   21  C   UNL     1      -9.384   3.740  67.333  1.00  0.00    -0.198 C  
HETATM   22  O   UNL     1     -10.763   3.497  67.080  1.00  0.00     1.281 OA 
HETATM   23  H   UNL     1     -10.872   3.058  66.245  1.00  0.00     0.000 HD 
BRANCH  21  24
HETATM   24  C   UNL     1      -8.820   4.573  66.176  1.00  0.00    -0.118 C  
BRANCH  24  25
HETATM   25  C   UNL     1      -8.522   3.787  64.895  1.00  0.00    -0.104 C  
BRANCH  25  26
HETATM   26  C   UNL     1      -9.543   4.043  63.788  1.00  0.00    -0.155 C  
BRANCH  26  27
HETATM   27  C   UNL     1     -10.089   2.738  63.212  1.00  0.00    -0.133 C  
HETATM   28  C   UNL     1      -8.958   1.783  62.866  1.00  0.00    -0.086 C  
ENDBRANCH  26  27
ENDBRANCH  25  26
ENDBRANCH  24  25
ENDBRANCH  21  24
ENDBRANCH  20  21
ENDBRANCH  16  19
ENDBRANCH   9  10
ENDBRANCH   2   9
TORSDOF 11
ENDMDL
MODEL      339
REMARK 921   NORMALIZED FREE ENERGY PREDICTED BY IDOCK:    5.25 KCAL/MOL
REMARK 922        TOTAL FREE ENERGY PREDICTED BY IDOCK:    6.23 KCAL/MOL
REMARK 923 INTER-LIGAND FREE ENERGY PREDICTED BY IDOCK:    2.63 KCAL/MOL
REMARK 924 INTRA-LIGAND FREE ENERGY PREDICTED BY IDOCK:    3.60 KCAL/MOL
REMARK 927      BINDING AFFINITY PREDICTED BY RF-SCORE:    0.00 PKD
ROOT
HETATM    1  C   UNL     1     -12.650  15.620  71.300  1.00  0.00    -0.523 C  
HETATM    2  C   UNL     1     -12.911  14.933  70.178  1.00  0.00    -0.103 C  
ENDROOT
BRANCH   1   3
HETATM    3  C   UNL     1     -11.319  15.733  71.990  1.00  0.00    -0.341 C  
BRANCH   3   4
HETATM    4  C   UNL     1     -10.857  14.388  72.551  1.00  0.00     2.651 C  
BRANCH   4   5
HETATM    5  C   UNL     1     -11.984  13.354  72.575  1.00  0.00     1.676 C  
HETATM    6  O   UNL     1     -14.207  12.952  73.315  1.00  0.00     0.929 OA 
HETATM    7  C   UNL     1     -13.203  13.861  73.304  1.00  0.00     0.448 C  
HETATM    8  O   UNL     1     -13.310  14.960  73.826  1.00  0.00    -0.270 OA 
ENDBRANCH   4   5
ENDBRANCH   3   4
ENDBRANCH   1   3
BRANCH   2   9
HETATM    9  C   UNL     1     -11.939  14.080  69.408  1.00  0.00    -0.390 C  
BRANCH   9  10
HETATM   10  C   UNL     1     -11.437  14.665  68.077  1.00  0.00    -0.346 C  
HETATM   11  H   UNL     1      -8.272  16.908  68.349  1.00  0.00     0.000 HD 
HETATM   12  C   UNL     1     -12.008  16.072  67.834  1.00  0.00     0.419 C  
HETATM   13  O   UNL     1      -9.138  17.185  68.073  1.00  0.00    -0.229 OA 
HETATM   14  O   UNL     1     -11.898  16.892  68.996  1.00  0.00     0.087 OA 
HETATM   15  C   UNL     1     -11.097  16.644  66.760  1.00  0.00     0.218 C  
HETATM   16  C   UNL     1      -9.900  14.872  67.982  1.00  0.00    -0.216 C  
HETATM   17  H   UNL     1     -12.251  17.761  68.845  1.00  0.00     0.000 HD 
HETATM   18  C   UNL     1      -9.704  16.199  67.205  1.00  0.00    -0.233 C  
BRANCH  16  19
HETATM   19  C   UNL     1      -9.170  13.711  67.348  1.00  0.00    -0.222 C  
HETATM   20  C   UNL     1      -9.340  13.287  66.083  1.00  0.00    -0.081 C  
BRANCH  20  21
HETATM   21  C   UNL     1      -8.674  12.092  65.457  1.00  0.00     0.483 C  
HETATM   22  O   UNL     1      -7.547  11.695  66.230  1.00  0.00    -0.372 OA 
HETATM   23  H   UNL     1      -7.127  10.940  65.835  1.00  0.00     0.000 HD 
BRANCH  21  24
HETATM   24  C   UNL     1      -9.631  10.899  65.351  1.00  0.00    -0.271 C  
BRANCH  24  25
HETATM   25  C   UNL     1      -9.003   9.533  65.647  1.00  0.00    -0.224 C  
BRANCH  25  26
HETATM   26  C   UNL     1      -9.649   8.825  66.837  1.00  0.00    -0.249 C  
BRANCH  26  27
HETATM   27  C   UNL     1      -8.805   7.647  67.317  1.00  0.00    -0.122 C  
HETATM   28  C   UNL     1      -7.331   8.017  67.359  1.00  0.00    -0.089 C  
ENDBRANCH  26  27
ENDBRANCH  25  26
ENDBRANCH  24  25
ENDBRANCH  21  24
ENDBRANCH  20  21
ENDBRANCH  16  19
ENDBRANCH   9  10
ENDBRANCH   2   9
TORSDOF 11
ENDMDL
MODEL      340
REMARK 921   NORMALIZED FREE ENERGY PREDICTED BY IDOCK:   12.96 KCAL/MOL
REMARK 922        TOTAL FREE ENERGY PREDICTED BY IDOCK:   18.89 KCAL/MOL
REMARK 923 INTER-LIGAND FREE ENERGY PREDICTED BY IDOCK:    7.19 KCAL/MOL
REMARK 924 INTRA-LIGAND FREE ENERGY PREDICTED BY IDOCK:   11.70 KCAL/MOL
REMARK 927      BINDING AFFINITY PREDICTED BY RF-SCORE:    0.00 PKD
ROOT
HETATM    1  C   UNL     1     -11.084  12.518  64.447  1.00  0.00    -0.383 C  
HETATM    2  C   UNL     1     -10.052  11.696  64.687  1.00  0.00    -0.305 C  
ENDROOT
BRANCH   1   3
HETATM    3  C   UNL     1     -12.268  12.233  63.565  1.00  0.00    -0.669 C  
BRANCH   3   4
HETATM    4  C   UNL     1     -12.890  10.871  63.876  1.00  0.00     2.930 C  
BRANCH   4   5
HETATM    5  C   UNL     1     -12.236  10.200  65.085  1.00  0.00     6.659 C  
HETATM    6  O   UNL     1     -11.308  10.603  67.236  1.00  0.00    -0.380 OA 
HETATM    7  C   UNL     1     -11.875  11.195  66.159  1.00  0.00     1.090 C  
HETATM    8  O   UNL     1     -12.067  12.400  66.101  1.00  0.00    -0.611 OA 
ENDBRANCH   4   5
ENDBRANCH   3   4
ENDBRANCH   1   3
BRANCH   2   9
HETATM    9  C   UNL     1      -9.831  10.339  64.075  1.00  0.00    -0.286 C  
BRANCH   9  10
HETATM   10  C   UNL     1      -8.426   9.741  64.253  1.00  0.00    -0.184 C  
HETATM   11  H   UNL     1      -7.355   9.105  67.938  1.00  0.00     0.000 HD 
HETATM   12  C   UNL     1      -7.376  10.839  64.485  1.00  0.00     0.337 C  
HETATM   13  O   UNL     1      -6.952   9.713  67.329  1.00  0.00    -0.083 OA 
HETATM   14  O   UNL     1      -7.813  11.788  65.456  1.00  0.00     0.042 OA 
HETATM   15  C   UNL     1      -6.191  10.080  65.062  1.00  0.00    -0.115 C  
HETATM   16  C   UNL     1      -8.255   8.804  65.481  1.00  0.00    -0.133 C  
HETATM   17  H   UNL     1      -7.163  12.467  65.599  1.00  0.00     0.000 HD 
HETATM   18  C   UNL     1      -6.840   9.103  66.041  1.00  0.00    -0.084 C  
BRANCH  16  19
HETATM   19  C   UNL     1      -8.460   7.342  65.163  1.00  0.00    -0.029 C  
HETATM   20  C   UNL     1      -8.265   6.326  66.022  1.00  0.00    -0.125 C  
BRANCH  20  21
HETATM   21  C   UNL     1      -8.396   4.862  65.702  1.00  0.00    -0.121 C  
HETATM   22  O   UNL     1      -7.727   4.562  64.482  1.00  0.00    -0.078 OA 
HETATM   23  H   UNL     1      -7.809   3.638  64.280  1.00  0.00     0.000 HD 
BRANCH  21  24
HETATM   24  C   UNL     1      -7.800   3.984  66.808  1.00  0.00    -0.093 C  
BRANCH  24  25
HETATM   25  C   UNL     1      -8.368   2.562  66.886  1.00  0.00    -0.089 C  
BRANCH  25  26
HETATM   26  C   UNL     1      -7.771   1.624  65.838  1.00  0.00    -0.067 C  
BRANCH  26  27
HETATM   27  C   UNL     1      -6.398   2.104  65.371  1.00  0.00    -0.023 C  
HETATM   28  C   UNL     1      -6.157   1.726  63.919  1.00  0.00    -0.013 C  
ENDBRANCH  26  27
ENDBRANCH  25  26
ENDBRANCH  24  25
ENDBRANCH  21  24
ENDBRANCH  20  21
ENDBRANCH  16  19
ENDBRANCH   9  10
ENDBRANCH   2   9
TORSDOF 11
ENDMDL
MODEL      341
REMARK 921   NORMALIZED FREE ENERGY PREDICTED BY IDOCK:   25.57 KCAL/MOL
REMARK 922        TOTAL FREE ENERGY PREDICTED BY IDOCK:   39.62 KCAL/MOL
REMARK 923 INTER-LIGAND FREE ENERGY PREDICTED BY IDOCK:   38.31 KCAL/MOL
REMARK 924 INTRA-LIGAND FREE ENERGY PREDICTED BY IDOCK:    1.31 KCAL/MOL
REMARK 927      BINDING AFFINITY PREDICTED BY RF-SCORE:    0.00 PKD
ROOT
HETATM    1  C   UNL     1      -9.376  15.057  67.620  1.00  0.00    -0.194 C  
HETATM    2  C   UNL     1      -8.140  15.239  68.109  1.00  0.00    -0.136 C  
ENDROOT
BRANCH   1   3
HETATM    3  C   UNL     1     -10.344  16.133  67.210  1.00  0.00    -0.287 C  
BRANCH   3   4
HETATM    4  C   UNL     1     -11.414  16.366  68.277  1.00  0.00    -0.143 C  
BRANCH   4   5
HETATM    5  C   UNL     1     -12.665  15.521  68.035  1.00  0.00     1.603 C  
HETATM    6  O   UNL     1     -13.515  13.641  66.854  1.00  0.00     1.794 OA 
HETATM    7  C   UNL     1     -12.412  14.398  67.061  1.00  0.00     0.088 C  
HETATM    8  O   UNL     1     -11.345  14.164  66.512  1.00  0.00    -0.321 OA 
ENDBRANCH   4   5
ENDBRANCH   3   4
ENDBRANCH   1   3
BRANCH   2   9
HETATM    9  C   UNL     1      -7.485  16.560  68.407  1.00  0.00    -0.186 C  
BRANCH   9  10
HETATM   10  C   UNL     1      -7.162  16.834  69.885  1.00  0.00     0.621 C  
HETATM   11  H   UNL     1     -10.123  16.295  72.349  1.00  0.00     0.000 HD 
HETATM   12  C   UNL     1      -7.529  18.274  70.280  1.00  0.00     1.931 C  
HETATM   13  O   UNL     1      -9.684  17.117  72.165  1.00  0.00     7.179 OA 
HETATM   14  O   UNL     1      -8.828  18.632  69.814  1.00  0.00     0.666 OA 
HETATM   15  C   UNL     1      -7.565  18.227  71.799  1.00  0.00     8.039 C  
HETATM   16  C   UNL     1      -7.945  15.963  70.906  1.00  0.00     3.138 C  
HETATM   17  H   UNL     1      -9.054  19.522  70.058  1.00  0.00     0.000 HD 
HETATM   18  C   UNL     1      -8.271  16.904  72.095  1.00  0.00    13.656 C  
BRANCH  16  19
HETATM   19  C   UNL     1      -7.205  14.718  71.335  1.00  0.00     1.973 C  
HETATM   20  C   UNL     1      -5.875  14.536  71.243  1.00  0.00    -0.098 C  
BRANCH  20  21
HETATM   21  C   UNL     1      -5.130  13.278  71.600  1.00  0.00    -0.175 C  
HETATM   22  O   UNL     1      -5.389  12.919  72.952  1.00  0.00    -0.369 OA 
HETATM   23  H   UNL     1      -4.919  12.125  73.178  1.00  0.00     0.000 HD 
BRANCH  21  24
HETATM   24  C   UNL     1      -5.537  12.104  70.702  1.00  0.00    -0.157 C  
BRANCH  24  25
HETATM   25  C   UNL     1      -6.333  12.489  69.450  1.00  0.00    -0.114 C  
BRANCH  25  26
HETATM   26  C   UNL     1      -7.026  11.295  68.795  1.00  0.00    -0.091 C  
BRANCH  26  27
HETATM   27  C   UNL     1      -8.495  11.205  69.203  1.00  0.00     0.029 C  
HETATM   28  C   UNL     1      -9.222  10.151  68.385  1.00  0.00    -0.133 C  
ENDBRANCH  26  27
ENDBRANCH  25  26
ENDBRANCH  24  25
ENDBRANCH  21  24
ENDBRANCH  20  21
ENDBRANCH  16  19
ENDBRANCH   9  10
ENDBRANCH   2   9
TORSDOF 11
ENDMDL
