MODEL        1
REMARK 921   NORMALIZED FREE ENERGY PREDICTED BY IDOCK:   -6.27 KCAL/MOL
REMARK 922        TOTAL FREE ENERGY PREDICTED BY IDOCK:  -12.12 KCAL/MOL
REMARK 923 INTER-LIGAND FREE ENERGY PREDICTED BY IDOCK:  -10.30 KCAL/MOL
REMARK 924 INTRA-LIGAND FREE ENERGY PREDICTED BY IDOCK:   -1.82 KCAL/MOL
REMARK 927      BINDING AFFINITY PREDICTED BY RF-SCORE:    0.00 PKD
ROOT
HETATM    1  C   UNL     1     -12.364  15.596  74.349  1.00  0.00    -0.802 C  
HETATM    2  C   UNL     1     -13.256  15.566  73.122  1.00  0.00    -0.657 C  
ENDROOT
BRANCH   2   3
HETATM    3  C   UNL     1     -13.306  14.177  72.482  1.00  0.00    -0.616 C  
BRANCH   3   4
HETATM    4  C   UNL     1     -12.603  14.197  71.123  1.00  0.00    -0.439 C  
BRANCH   4   5
HETATM    5  C   UNL     1     -12.201  15.608  70.693  1.00  0.00    -0.446 C  
BRANCH   5   6
HETATM    6  C   UNL     1     -10.941  15.638  69.809  1.00  0.00    -0.304 C  
HETATM    7  O   UNL     1     -10.861  16.942  69.240  1.00  0.00    -0.311 OA 
HETATM    8  H   UNL     1     -10.084  16.960  68.695  1.00  0.00     0.000 HD 
BRANCH   6   9
HETATM    9  C   UNL     1     -10.952  14.579  68.725  1.00  0.00    -0.262 C  
HETATM   10  C   UNL     1     -11.232  14.764  67.423  1.00  0.00    -0.346 C  
BRANCH  10  11
HETATM   11  C   UNL     1     -11.416  13.653  66.409  1.00  0.00    -0.358 C  
HETATM   12  C   UNL     1     -12.247  14.175  65.216  1.00  0.00    -0.434 C  
HETATM   13  O   UNL     1     -13.636  14.212  65.512  1.00  0.00    -0.685 OA 
HETATM   14  C   UNL     1     -11.968  13.220  64.076  1.00  0.00    -0.525 C  
HETATM   15  H   UNL     1     -14.147  14.533  64.778  1.00  0.00     0.000 HD 
HETATM   16  C   UNL     1     -10.540  12.860  64.340  1.00  0.00    -0.396 C  
HETATM   17  O   UNL     1      -9.815  12.391  63.470  1.00  0.00    -0.354 OA 
HETATM   18  C   UNL     1     -10.112  13.108  65.780  1.00  0.00    -0.290 C  
BRANCH  18  19
HETATM   19  C   UNL     1      -9.669  11.806  66.465  1.00  0.00    -0.224 C  
BRANCH  19  20
HETATM   20  C   UNL     1     -10.804  10.895  66.860  1.00  0.00    -0.307 C  
HETATM   21  C   UNL     1     -11.153  10.504  68.096  1.00  0.00    -0.346 C  
BRANCH  21  22
HETATM   22  C   UNL     1     -10.459  10.879  69.368  1.00  0.00    -0.205 C  
BRANCH  22  23
HETATM   23  C   UNL     1     -10.837   9.969  70.535  1.00  0.00    -0.380 C  
BRANCH  23  24
HETATM   24  C   UNL     1     -12.329  10.117  70.837  1.00  0.00    -0.461 C  
HETATM   25  C   UNL     1     -12.768   9.292  72.020  1.00  0.00    -0.401 C  
HETATM   26  O   UNL     1     -12.047   8.571  72.688  1.00  0.00    -0.378 OA 
HETATM   27  O   UNL     1     -14.090   9.438  72.274  1.00  0.00    -0.374 OA 
ENDBRANCH  23  24
ENDBRANCH  22  23
ENDBRANCH  21  22
ENDBRANCH  19  20
ENDBRANCH  18  19
ENDBRANCH  10  11
ENDBRANCH   6   9
ENDBRANCH   5   6
ENDBRANCH   4   5
ENDBRANCH   3   4
ENDBRANCH   2   3
TORSDOF 11
ENDMDL
MODEL        2
REMARK 921   NORMALIZED FREE ENERGY PREDICTED BY IDOCK:   -6.19 KCAL/MOL
REMARK 922        TOTAL FREE ENERGY PREDICTED BY IDOCK:  -11.98 KCAL/MOL
REMARK 923 INTER-LIGAND FREE ENERGY PREDICTED BY IDOCK:   -9.77 KCAL/MOL
REMARK 924 INTRA-LIGAND FREE ENERGY PREDICTED BY IDOCK:   -2.21 KCAL/MOL
REMARK 927      BINDING AFFINITY PREDICTED BY RF-SCORE:    0.00 PKD
ROOT
HETATM    1  C   UNL     1     -13.471   9.549  71.849  1.00  0.00    -0.502 C  
HETATM    2  C   UNL     1     -13.185  11.037  71.754  1.00  0.00    -0.505 C  
ENDROOT
BRANCH   2   3
HETATM    3  C   UNL     1     -12.210  11.364  70.622  1.00  0.00    -0.484 C  
BRANCH   3   4
HETATM    4  C   UNL     1     -12.162  12.875  70.387  1.00  0.00    -0.381 C  
BRANCH   4   5
HETATM    5  C   UNL     1     -12.741  13.668  71.559  1.00  0.00    -0.420 C  
BRANCH   5   6
HETATM    6  C   UNL     1     -12.747  15.188  71.320  1.00  0.00    -0.369 C  
HETATM    7  O   UNL     1     -13.939  15.493  70.602  1.00  0.00    -0.868 OA 
HETATM    8  H   UNL     1     -13.943  16.431  70.455  1.00  0.00     0.000 HD 
BRANCH   6   9
HETATM    9  C   UNL     1     -11.527  15.674  70.565  1.00  0.00    -0.380 C  
HETATM   10  C   UNL     1     -11.498  16.163  69.312  1.00  0.00    -0.304 C  
BRANCH  10  11
HETATM   11  C   UNL     1     -10.238  16.463  68.526  1.00  0.00    -0.257 C  
HETATM   12  C   UNL     1     -10.057  17.991  68.402  1.00  0.00    -0.387 C  
HETATM   13  O   UNL     1     -10.888  18.545  67.391  1.00  0.00    -0.421 OA 
HETATM   14  C   UNL     1      -8.596  18.204  68.071  1.00  0.00    -0.272 C  
HETATM   15  H   UNL     1     -10.776  19.485  67.315  1.00  0.00     0.000 HD 
HETATM   16  C   UNL     1      -7.958  17.085  68.833  1.00  0.00    -0.217 C  
HETATM   17  O   UNL     1      -6.768  17.093  69.127  1.00  0.00    -0.219 OA 
HETATM   18  C   UNL     1      -8.923  15.955  69.164  1.00  0.00    -0.256 C  
BRANCH  18  19
HETATM   19  C   UNL     1      -8.475  14.630  68.527  1.00  0.00    -0.161 C  
BRANCH  19  20
HETATM   20  C   UNL     1      -8.711  14.545  67.041  1.00  0.00    -0.256 C  
HETATM   21  C   UNL     1      -9.542  13.719  66.386  1.00  0.00    -0.285 C  
BRANCH  21  22
HETATM   22  C   UNL     1     -10.412  12.670  67.006  1.00  0.00    -0.244 C  
BRANCH  22  23
HETATM   23  C   UNL     1     -11.902  12.970  66.847  1.00  0.00    -0.442 C  
BRANCH  23  24
HETATM   24  C   UNL     1     -12.082  14.209  65.968  1.00  0.00    -0.449 C  
HETATM   25  C   UNL     1     -12.510  13.867  64.564  1.00  0.00    -0.297 C  
HETATM   26  O   UNL     1     -12.700  12.742  64.134  1.00  0.00    -0.658 OA 
HETATM   27  O   UNL     1     -12.667  14.975  63.801  1.00  0.00    -0.741 OA 
ENDBRANCH  23  24
ENDBRANCH  22  23
ENDBRANCH  21  22
ENDBRANCH  19  20
ENDBRANCH  18  19
ENDBRANCH  10  11
ENDBRANCH   6   9
ENDBRANCH   5   6
ENDBRANCH   4   5
ENDBRANCH   3   4
ENDBRANCH   2   3
TORSDOF 11
ENDMDL
MODEL        3
REMARK 921   NORMALIZED FREE ENERGY PREDICTED BY IDOCK:   -6.18 KCAL/MOL
REMARK 922        TOTAL FREE ENERGY PREDICTED BY IDOCK:  -11.97 KCAL/MOL
REMARK 923 INTER-LIGAND FREE ENERGY PREDICTED BY IDOCK:  -10.37 KCAL/MOL
REMARK 924 INTRA-LIGAND FREE ENERGY PREDICTED BY IDOCK:   -1.59 KCAL/MOL
REMARK 927      BINDING AFFINITY PREDICTED BY RF-SCORE:    0.00 PKD
ROOT
HETATM    1  C   UNL     1     -12.043   6.662  71.836  1.00  0.00    -0.385 C  
HETATM    2  C   UNL     1     -13.018   7.814  71.674  1.00  0.00    -0.374 C  
ENDROOT
BRANCH   2   3
HETATM    3  C   UNL     1     -12.441   9.132  72.194  1.00  0.00    -0.436 C  
BRANCH   3   4
HETATM    4  C   UNL     1     -13.252  10.311  71.655  1.00  0.00    -0.509 C  
BRANCH   4   5
HETATM    5  C   UNL     1     -12.393  11.299  70.864  1.00  0.00    -0.490 C  
BRANCH   5   6
HETATM    6  C   UNL     1     -11.550  10.627  69.765  1.00  0.00    -0.309 C  
HETATM    7  O   UNL     1     -10.208  10.579  70.240  1.00  0.00    -0.415 OA 
HETATM    8  H   UNL     1      -9.688  10.164  69.563  1.00  0.00     0.000 HD 
BRANCH   6   9
HETATM    9  C   UNL     1     -11.624  11.349  68.436  1.00  0.00    -0.385 C  
HETATM   10  C   UNL     1     -10.715  11.306  67.446  1.00  0.00    -0.285 C  
BRANCH  10  11
HETATM   11  C   UNL     1     -10.733  12.187  66.212  1.00  0.00    -0.296 C  
HETATM   12  C   UNL     1     -10.174  11.399  65.007  1.00  0.00    -0.281 C  
HETATM   13  O   UNL     1      -8.754  11.346  65.019  1.00  0.00    -0.389 OA 
HETATM   14  C   UNL     1     -10.672  12.127  63.778  1.00  0.00    -0.488 C  
HETATM   15  H   UNL     1      -8.410  10.862  64.277  1.00  0.00     0.000 HD 
HETATM   16  C   UNL     1     -12.010  12.606  64.245  1.00  0.00    -0.408 C  
HETATM   17  O   UNL     1     -12.894  12.935  63.462  1.00  0.00    -0.677 OA 
HETATM   18  C   UNL     1     -12.133  12.667  65.761  1.00  0.00    -0.484 C  
BRANCH  18  19
HETATM   19  C   UNL     1     -12.409  14.099  66.245  1.00  0.00    -0.451 C  
BRANCH  19  20
HETATM   20  C   UNL     1     -11.231  14.770  66.903  1.00  0.00    -0.347 C  
HETATM   21  C   UNL     1     -11.117  15.167  68.180  1.00  0.00    -0.306 C  
BRANCH  21  22
HETATM   22  C   UNL     1     -12.171  15.046  69.238  1.00  0.00    -0.214 C  
BRANCH  22  23
HETATM   23  C   UNL     1     -11.583  14.835  70.632  1.00  0.00    -0.324 C  
BRANCH  23  24
HETATM   24  C   UNL     1     -12.166  15.870  71.595  1.00  0.00    -0.544 C  
HETATM   25  C   UNL     1     -13.066  15.254  72.636  1.00  0.00    -0.427 C  
HETATM   26  O   UNL     1     -13.328  14.067  72.734  1.00  0.00    -0.524 OA 
HETATM   27  O   UNL     1     -13.571  16.184  73.481  1.00  0.00    -0.623 OA 
ENDBRANCH  23  24
ENDBRANCH  22  23
ENDBRANCH  21  22
ENDBRANCH  19  20
ENDBRANCH  18  19
ENDBRANCH  10  11
ENDBRANCH   6   9
ENDBRANCH   5   6
ENDBRANCH   4   5
ENDBRANCH   3   4
ENDBRANCH   2   3
TORSDOF 11
ENDMDL
MODEL        4
REMARK 921   NORMALIZED FREE ENERGY PREDICTED BY IDOCK:   -6.03 KCAL/MOL
REMARK 922        TOTAL FREE ENERGY PREDICTED BY IDOCK:  -11.72 KCAL/MOL
REMARK 923 INTER-LIGAND FREE ENERGY PREDICTED BY IDOCK:   -9.59 KCAL/MOL
REMARK 924 INTRA-LIGAND FREE ENERGY PREDICTED BY IDOCK:   -2.13 KCAL/MOL
REMARK 927      BINDING AFFINITY PREDICTED BY RF-SCORE:    0.00 PKD
ROOT
HETATM    1  C   UNL     1     -10.555   6.288  70.428  1.00  0.00    -0.309 C  
HETATM    2  C   UNL     1     -11.276   7.623  70.423  1.00  0.00    -0.258 C  
ENDROOT
BRANCH   2   3
HETATM    3  C   UNL     1     -11.081   8.387  71.734  1.00  0.00    -0.358 C  
BRANCH   3   4
HETATM    4  C   UNL     1     -12.438   8.785  72.319  1.00  0.00    -0.455 C  
BRANCH   4   5
HETATM    5  C   UNL     1     -13.201   9.758  71.419  1.00  0.00    -0.482 C  
BRANCH   5   6
HETATM    6  C   UNL     1     -12.573  11.162  71.373  1.00  0.00    -0.374 C  
HETATM    7  O   UNL     1     -13.501  12.053  71.986  1.00  0.00    -0.447 OA 
HETATM    8  H   UNL     1     -13.114  12.920  71.958  1.00  0.00     0.000 HD 
BRANCH   6   9
HETATM    9  C   UNL     1     -12.240  11.618  69.968  1.00  0.00    -0.338 C  
HETATM   10  C   UNL     1     -11.166  11.262  69.241  1.00  0.00    -0.336 C  
BRANCH  10  11
HETATM   11  C   UNL     1     -10.771  11.883  67.915  1.00  0.00    -0.239 C  
HETATM   12  C   UNL     1     -10.324  10.773  66.939  1.00  0.00    -0.241 C  
HETATM   13  O   UNL     1      -8.995  10.341  67.197  1.00  0.00    -0.135 OA 
HETATM   14  C   UNL     1     -10.431  11.380  65.556  1.00  0.00    -0.322 C  
HETATM   15  H   UNL     1      -8.720   9.659  66.596  1.00  0.00     0.000 HD 
HETATM   16  C   UNL     1     -11.615  12.278  65.722  1.00  0.00    -0.388 C  
HETATM   17  O   UNL     1     -12.259  12.690  64.764  1.00  0.00    -0.416 OA 
HETATM   18  C   UNL     1     -11.901  12.636  67.174  1.00  0.00    -0.399 C  
BRANCH  18  19
HETATM   19  C   UNL     1     -11.801  14.152  67.408  1.00  0.00    -0.447 C  
BRANCH  19  20
HETATM   20  C   UNL     1     -10.513  14.597  68.051  1.00  0.00    -0.236 C  
HETATM   21  C   UNL     1     -10.358  15.426  69.096  1.00  0.00    -0.240 C  
BRANCH  21  22
HETATM   22  C   UNL     1     -11.456  16.117  69.843  1.00  0.00    -0.286 C  
BRANCH  22  23
HETATM   23  C   UNL     1     -12.010  15.272  70.989  1.00  0.00    -0.395 C  
BRANCH  23  24
HETATM   24  C   UNL     1     -11.959  16.076  72.289  1.00  0.00    -0.633 C  
HETATM   25  C   UNL     1     -12.736  15.426  73.405  1.00  0.00    -0.533 C  
HETATM   26  O   UNL     1     -13.353  14.378  73.324  1.00  0.00    -0.616 OA 
HETATM   27  O   UNL     1     -12.678  16.151  74.548  1.00  0.00    -0.707 OA 
ENDBRANCH  23  24
ENDBRANCH  22  23
ENDBRANCH  21  22
ENDBRANCH  19  20
ENDBRANCH  18  19
ENDBRANCH  10  11
ENDBRANCH   6   9
ENDBRANCH   5   6
ENDBRANCH   4   5
ENDBRANCH   3   4
ENDBRANCH   2   3
TORSDOF 11
ENDMDL
MODEL        5
REMARK 921   NORMALIZED FREE ENERGY PREDICTED BY IDOCK:   -5.96 KCAL/MOL
REMARK 922        TOTAL FREE ENERGY PREDICTED BY IDOCK:  -11.61 KCAL/MOL
REMARK 923 INTER-LIGAND FREE ENERGY PREDICTED BY IDOCK:   -9.59 KCAL/MOL
REMARK 924 INTRA-LIGAND FREE ENERGY PREDICTED BY IDOCK:   -2.01 KCAL/MOL
REMARK 927      BINDING AFFINITY PREDICTED BY RF-SCORE:    0.00 PKD
ROOT
HETATM    1  C   UNL     1     -12.457  14.240  71.315  1.00  0.00    -0.439 C  
HETATM    2  C   UNL     1     -11.566  14.526  70.120  1.00  0.00    -0.334 C  
ENDROOT
BRANCH   2   3
HETATM    3  C   UNL     1     -11.779  15.937  69.570  1.00  0.00    -0.331 C  
BRANCH   3   4
HETATM    4  C   UNL     1     -10.438  16.553  69.167  1.00  0.00    -0.317 C  
BRANCH   4   5
HETATM    5  C   UNL     1     -10.516  17.308  67.839  1.00  0.00    -0.382 C  
BRANCH   5   6
HETATM    6  C   UNL     1      -9.564  16.750  66.766  1.00  0.00    -0.249 C  
HETATM    7  O   UNL     1      -9.485  17.726  65.731  1.00  0.00    -0.518 OA 
HETATM    8  H   UNL     1      -8.897  17.382  65.069  1.00  0.00     0.000 HD 
BRANCH   6   9
HETATM    9  C   UNL     1     -10.013  15.414  66.212  1.00  0.00    -0.308 C  
HETATM   10  C   UNL     1     -11.262  15.073  65.849  1.00  0.00    -0.313 C  
BRANCH  10  11
HETATM   11  C   UNL     1     -11.705  13.672  65.477  1.00  0.00    -0.352 C  
HETATM   12  C   UNL     1     -11.489  13.446  63.964  1.00  0.00    -0.352 C  
HETATM   13  O   UNL     1     -12.518  14.040  63.185  1.00  0.00    -1.137 OA 
HETATM   14  C   UNL     1     -11.472  11.945  63.775  1.00  0.00    -0.542 C  
HETATM   15  H   UNL     1     -12.384  13.901  62.255  1.00  0.00     0.000 HD 
HETATM   16  C   UNL     1     -10.831  11.496  65.050  1.00  0.00    -0.274 C  
HETATM   17  O   UNL     1     -10.308  10.394  65.164  1.00  0.00    -0.295 OA 
HETATM   18  C   UNL     1     -10.928  12.526  66.167  1.00  0.00    -0.318 C  
BRANCH  18  19
HETATM   19  C   UNL     1     -11.709  11.975  67.371  1.00  0.00    -0.352 C  
BRANCH  19  20
HETATM   20  C   UNL     1     -10.843  11.390  68.457  1.00  0.00    -0.251 C  
HETATM   21  C   UNL     1     -11.233  10.882  69.637  1.00  0.00    -0.348 C  
BRANCH  21  22
HETATM   22  C   UNL     1     -12.641  10.812  70.144  1.00  0.00    -0.309 C  
BRANCH  22  23
HETATM   23  C   UNL     1     -12.718  10.378  71.607  1.00  0.00    -0.560 C  
BRANCH  23  24
HETATM   24  C   UNL     1     -13.267   8.953  71.689  1.00  0.00    -0.411 C  
HETATM   25  C   UNL     1     -12.180   7.919  71.841  1.00  0.00    -0.314 C  
HETATM   26  O   UNL     1     -10.985   8.150  71.894  1.00  0.00    -0.244 OA 
HETATM   27  O   UNL     1     -12.685   6.664  71.914  1.00  0.00    -0.345 OA 
ENDBRANCH  23  24
ENDBRANCH  22  23
ENDBRANCH  21  22
ENDBRANCH  19  20
ENDBRANCH  18  19
ENDBRANCH  10  11
ENDBRANCH   6   9
ENDBRANCH   5   6
ENDBRANCH   4   5
ENDBRANCH   3   4
ENDBRANCH   2   3
TORSDOF 11
ENDMDL
MODEL        6
REMARK 921   NORMALIZED FREE ENERGY PREDICTED BY IDOCK:   -5.94 KCAL/MOL
REMARK 922        TOTAL FREE ENERGY PREDICTED BY IDOCK:  -11.58 KCAL/MOL
REMARK 923 INTER-LIGAND FREE ENERGY PREDICTED BY IDOCK:   -9.93 KCAL/MOL
REMARK 924 INTRA-LIGAND FREE ENERGY PREDICTED BY IDOCK:   -1.65 KCAL/MOL
REMARK 927      BINDING AFFINITY PREDICTED BY RF-SCORE:    0.00 PKD
ROOT
HETATM    1  C   UNL     1     -14.094  15.579  72.426  1.00  0.00    -0.627 C  
HETATM    2  C   UNL     1     -13.764  14.284  71.707  1.00  0.00    -0.496 C  
ENDROOT
BRANCH   2   3
HETATM    3  C   UNL     1     -12.323  14.261  71.195  1.00  0.00    -0.440 C  
BRANCH   3   4
HETATM    4  C   UNL     1     -12.187  13.263  70.044  1.00  0.00    -0.345 C  
BRANCH   4   5
HETATM    5  C   UNL     1     -12.153  11.813  70.527  1.00  0.00    -0.439 C  
BRANCH   5   6
HETATM    6  C   UNL     1     -11.452  10.860  69.542  1.00  0.00    -0.301 C  
HETATM    7  O   UNL     1     -10.088  10.772  69.946  1.00  0.00    -0.433 OA 
HETATM    8  H   UNL     1      -9.656  10.185  69.339  1.00  0.00     0.000 HD 
BRANCH   6   9
HETATM    9  C   UNL     1     -11.556  11.316  68.101  1.00  0.00    -0.359 C  
HETATM   10  C   UNL     1     -10.549  11.426  67.218  1.00  0.00    -0.264 C  
BRANCH  10  11
HETATM   11  C   UNL     1     -10.662  12.062  65.846  1.00  0.00    -0.314 C  
HETATM   12  C   UNL     1     -10.170  11.066  64.773  1.00  0.00    -0.319 C  
HETATM   13  O   UNL     1      -8.752  11.023  64.698  1.00  0.00    -0.349 OA 
HETATM   14  C   UNL     1     -10.761  11.550  63.467  1.00  0.00    -0.483 C  
HETATM   15  H   UNL     1      -8.450  10.411  64.038  1.00  0.00     0.000 HD 
HETATM   16  C   UNL     1     -12.074  12.101  63.927  1.00  0.00    -0.488 C  
HETATM   17  O   UNL     1     -13.013  12.275  63.158  1.00  0.00    -0.634 OA 
HETATM   18  C   UNL     1     -12.097  12.443  65.410  1.00  0.00    -0.428 C  
BRANCH  18  19
HETATM   19  C   UNL     1     -12.365  13.939  65.637  1.00  0.00    -0.511 C  
BRANCH  19  20
HETATM   20  C   UNL     1     -11.279  14.849  65.123  1.00  0.00    -0.389 C  
HETATM   21  C   UNL     1     -10.467  15.646  65.836  1.00  0.00    -0.358 C  
BRANCH  21  22
HETATM   22  C   UNL     1     -10.486  15.819  67.324  1.00  0.00    -0.308 C  
BRANCH  22  23
HETATM   23  C   UNL     1     -10.728  17.268  67.744  1.00  0.00    -0.333 C  
BRANCH  23  24
HETATM   24  C   UNL     1      -9.438  17.858  68.315  1.00  0.00    -0.300 C  
HETATM   25  C   UNL     1      -9.218  19.289  67.896  1.00  0.00    -0.315 C  
HETATM   26  O   UNL     1      -9.960  19.941  67.181  1.00  0.00    -0.369 OA 
HETATM   27  O   UNL     1      -8.073  19.795  68.413  1.00  0.00    -0.324 OA 
ENDBRANCH  23  24
ENDBRANCH  22  23
ENDBRANCH  21  22
ENDBRANCH  19  20
ENDBRANCH  18  19
ENDBRANCH  10  11
ENDBRANCH   6   9
ENDBRANCH   5   6
ENDBRANCH   4   5
ENDBRANCH   3   4
ENDBRANCH   2   3
TORSDOF 11
ENDMDL
MODEL        7
REMARK 921   NORMALIZED FREE ENERGY PREDICTED BY IDOCK:   -5.92 KCAL/MOL
REMARK 922        TOTAL FREE ENERGY PREDICTED BY IDOCK:  -11.54 KCAL/MOL
REMARK 923 INTER-LIGAND FREE ENERGY PREDICTED BY IDOCK:   -9.43 KCAL/MOL
REMARK 924 INTRA-LIGAND FREE ENERGY PREDICTED BY IDOCK:   -2.12 KCAL/MOL
REMARK 927      BINDING AFFINITY PREDICTED BY RF-SCORE:    0.00 PKD
ROOT
HETATM    1  C   UNL     1     -12.438  15.849  74.441  1.00  0.00    -0.767 C  
HETATM    2  C   UNL     1     -13.158  15.650  73.120  1.00  0.00    -0.666 C  
ENDROOT
BRANCH   2   3
HETATM    3  C   UNL     1     -12.287  16.045  71.925  1.00  0.00    -0.516 C  
BRANCH   3   4
HETATM    4  C   UNL     1     -12.890  15.499  70.630  1.00  0.00    -0.466 C  
BRANCH   4   5
HETATM    5  C   UNL     1     -12.030  15.815  69.405  1.00  0.00    -0.321 C  
BRANCH   5   6
HETATM    6  C   UNL     1     -11.601  14.560  68.624  1.00  0.00    -0.315 C  
HETATM    7  O   UNL     1     -12.655  14.255  67.715  1.00  0.00    -0.487 OA 
HETATM    8  H   UNL     1     -12.390  13.481  67.232  1.00  0.00     0.000 HD 
BRANCH   6   9
HETATM    9  C   UNL     1     -11.305  13.376  69.520  1.00  0.00    -0.248 C  
HETATM   10  C   UNL     1     -12.048  12.263  69.654  1.00  0.00    -0.277 C  
BRANCH  10  11
HETATM   11  C   UNL     1     -11.819  11.187  70.696  1.00  0.00    -0.403 C  
HETATM   12  C   UNL     1     -13.122  10.953  71.492  1.00  0.00    -0.399 C  
HETATM   13  O   UNL     1     -13.326  11.950  72.484  1.00  0.00    -0.567 OA 
HETATM   14  C   UNL     1     -12.972   9.588  72.128  1.00  0.00    -0.497 C  
HETATM   15  H   UNL     1     -14.127  11.806  72.974  1.00  0.00     0.000 HD 
HETATM   16  C   UNL     1     -12.185   8.864  71.082  1.00  0.00    -0.255 C  
HETATM   17  O   UNL     1     -12.144   7.640  71.029  1.00  0.00    -0.305 OA 
HETATM   18  C   UNL     1     -11.437   9.795  70.139  1.00  0.00    -0.272 C  
BRANCH  18  19
HETATM   19  C   UNL     1      -9.919   9.568  70.213  1.00  0.00    -0.310 C  
BRANCH  19  20
HETATM   20  C   UNL     1      -9.306   9.042  68.940  1.00  0.00    -0.143 C  
HETATM   21  C   UNL     1      -8.920   9.742  67.863  1.00  0.00    -0.119 C  
BRANCH  21  22
HETATM   22  C   UNL     1      -9.041  11.225  67.684  1.00  0.00    -0.149 C  
BRANCH  22  23
HETATM   23  C   UNL     1      -9.458  11.614  66.267  1.00  0.00    -0.233 C  
BRANCH  23  24
HETATM   24  C   UNL     1     -10.982  11.571  66.151  1.00  0.00    -0.320 C  
HETATM   25  C   UNL     1     -11.532  12.679  65.290  1.00  0.00    -0.331 C  
HETATM   26  O   UNL     1     -10.871  13.537  64.730  1.00  0.00    -0.337 OA 
HETATM   27  O   UNL     1     -12.882  12.623  65.197  1.00  0.00    -0.721 OA 
ENDBRANCH  23  24
ENDBRANCH  22  23
ENDBRANCH  21  22
ENDBRANCH  19  20
ENDBRANCH  18  19
ENDBRANCH  10  11
ENDBRANCH   6   9
ENDBRANCH   5   6
ENDBRANCH   4   5
ENDBRANCH   3   4
ENDBRANCH   2   3
TORSDOF 11
ENDMDL
MODEL        8
REMARK 921   NORMALIZED FREE ENERGY PREDICTED BY IDOCK:   -5.91 KCAL/MOL
REMARK 922        TOTAL FREE ENERGY PREDICTED BY IDOCK:  -11.53 KCAL/MOL
REMARK 923 INTER-LIGAND FREE ENERGY PREDICTED BY IDOCK:   -9.82 KCAL/MOL
REMARK 924 INTRA-LIGAND FREE ENERGY PREDICTED BY IDOCK:   -1.71 KCAL/MOL
REMARK 927      BINDING AFFINITY PREDICTED BY RF-SCORE:    0.00 PKD
ROOT
HETATM    1  C   UNL     1     -11.895   8.573  72.494  1.00  0.00    -0.398 C  
HETATM    2  C   UNL     1     -10.539   8.247  71.895  1.00  0.00    -0.350 C  
ENDROOT
BRANCH   2   3
HETATM    3  C   UNL     1     -10.640   7.874  70.415  1.00  0.00    -0.228 C  
BRANCH   3   4
HETATM    4  C   UNL     1      -9.608   8.658  69.602  1.00  0.00    -0.170 C  
BRANCH   4   5
HETATM    5  C   UNL     1      -9.987  10.131  69.440  1.00  0.00    -0.247 C  
BRANCH   5   6
HETATM    6  C   UNL     1     -11.485  10.345  69.162  1.00  0.00    -0.196 C  
HETATM    7  O   UNL     1     -11.692  10.093  67.775  1.00  0.00    -0.594 OA 
HETATM    8  H   UNL     1     -12.617  10.225  67.603  1.00  0.00     0.000 HD 
BRANCH   6   9
HETATM    9  C   UNL     1     -11.964  11.734  69.532  1.00  0.00    -0.364 C  
HETATM   10  C   UNL     1     -12.063  12.247  70.771  1.00  0.00    -0.259 C  
BRANCH  10  11
HETATM   11  C   UNL     1     -12.721  13.569  71.113  1.00  0.00    -0.425 C  
HETATM   12  C   UNL     1     -13.169  13.556  72.591  1.00  0.00    -0.379 C  
HETATM   13  O   UNL     1     -14.382  12.839  72.772  1.00  0.00    -0.568 OA 
HETATM   14  C   UNL     1     -13.342  15.009  72.977  1.00  0.00    -0.568 C  
HETATM   15  H   UNL     1     -14.657  12.832  73.682  1.00  0.00     0.000 HD 
HETATM   16  C   UNL     1     -12.264  15.657  72.167  1.00  0.00    -0.439 C  
HETATM   17  O   UNL     1     -11.823  16.767  72.439  1.00  0.00    -0.397 OA 
HETATM   18  C   UNL     1     -11.813  14.815  70.981  1.00  0.00    -0.383 C  
BRANCH  18  19
HETATM   19  C   UNL     1     -12.062  15.542  69.651  1.00  0.00    -0.352 C  
BRANCH  19  20
HETATM   20  C   UNL     1     -10.811  15.847  68.866  1.00  0.00    -0.274 C  
HETATM   21  C   UNL     1     -10.263  15.123  67.878  1.00  0.00    -0.232 C  
BRANCH  21  22
HETATM   22  C   UNL     1     -10.777  13.818  67.351  1.00  0.00    -0.279 C  
BRANCH  22  23
HETATM   23  C   UNL     1     -10.392  13.581  65.891  1.00  0.00    -0.301 C  
BRANCH  23  24
HETATM   24  C   UNL     1     -10.358  14.917  65.148  1.00  0.00    -0.431 C  
HETATM   25  C   UNL     1     -11.645  15.210  64.420  1.00  0.00    -0.271 C  
HETATM   26  O   UNL     1     -12.628  14.490  64.398  1.00  0.00    -0.665 OA 
HETATM   27  O   UNL     1     -11.597  16.398  63.770  1.00  0.00    -1.055 OA 
ENDBRANCH  23  24
ENDBRANCH  22  23
ENDBRANCH  21  22
ENDBRANCH  19  20
ENDBRANCH  18  19
ENDBRANCH  10  11
ENDBRANCH   6   9
ENDBRANCH   5   6
ENDBRANCH   4   5
ENDBRANCH   3   4
ENDBRANCH   2   3
TORSDOF 11
ENDMDL
MODEL        9
REMARK 921   NORMALIZED FREE ENERGY PREDICTED BY IDOCK:   -5.89 KCAL/MOL
REMARK 922        TOTAL FREE ENERGY PREDICTED BY IDOCK:  -11.50 KCAL/MOL
REMARK 923 INTER-LIGAND FREE ENERGY PREDICTED BY IDOCK:   -9.57 KCAL/MOL
REMARK 924 INTRA-LIGAND FREE ENERGY PREDICTED BY IDOCK:   -1.94 KCAL/MOL
REMARK 927      BINDING AFFINITY PREDICTED BY RF-SCORE:    0.00 PKD
ROOT
HETATM    1  C   UNL     1     -10.390   7.452  73.482  1.00  0.00    -0.405 C  
HETATM    2  C   UNL     1     -10.990   8.116  72.256  1.00  0.00    -0.399 C  
ENDROOT
BRANCH   2   3
HETATM    3  C   UNL     1     -10.335   7.632  70.962  1.00  0.00    -0.208 C  
BRANCH   3   4
HETATM    4  C   UNL     1     -10.768   8.514  69.789  1.00  0.00    -0.213 C  
BRANCH   4   5
HETATM    5  C   UNL     1     -10.513  10.000  70.048  1.00  0.00    -0.337 C  
BRANCH   5   6
HETATM    6  C   UNL     1     -11.746  10.883  69.787  1.00  0.00    -0.338 C  
HETATM    7  O   UNL     1     -12.895  10.076  70.029  1.00  0.00    -0.536 OA 
HETATM    8  H   UNL     1     -13.656  10.620  69.868  1.00  0.00     0.000 HD 
BRANCH   6   9
HETATM    9  C   UNL     1     -11.779  11.456  68.385  1.00  0.00    -0.373 C  
HETATM   10  C   UNL     1     -10.775  11.448  67.489  1.00  0.00    -0.266 C  
BRANCH  10  11
HETATM   11  C   UNL     1     -10.783  12.195  66.170  1.00  0.00    -0.307 C  
HETATM   12  C   UNL     1     -10.240  11.277  65.054  1.00  0.00    -0.284 C  
HETATM   13  O   UNL     1      -8.821  11.204  65.069  1.00  0.00    -0.341 OA 
HETATM   14  C   UNL     1     -10.731  11.879  63.756  1.00  0.00    -0.476 C  
HETATM   15  H   UNL     1      -8.487  10.639  64.382  1.00  0.00     0.000 HD 
HETATM   16  C   UNL     1     -12.060  12.424  64.172  1.00  0.00    -0.453 C  
HETATM   17  O   UNL     1     -12.942  12.683  63.360  1.00  0.00    -0.649 OA 
HETATM   18  C   UNL     1     -12.177  12.646  65.673  1.00  0.00    -0.474 C  
BRANCH  18  19
HETATM   19  C   UNL     1     -12.430  14.125  66.004  1.00  0.00    -0.454 C  
BRANCH  19  20
HETATM   20  C   UNL     1     -11.179  14.936  66.222  1.00  0.00    -0.331 C  
HETATM   21  C   UNL     1     -10.874  15.713  67.272  1.00  0.00    -0.298 C  
BRANCH  21  22
HETATM   22  C   UNL     1     -11.744  15.964  68.466  1.00  0.00    -0.297 C  
BRANCH  22  23
HETATM   23  C   UNL     1     -11.488  14.971  69.599  1.00  0.00    -0.321 C  
BRANCH  23  24
HETATM   24  C   UNL     1     -12.778  14.758  70.393  1.00  0.00    -0.368 C  
HETATM   25  C   UNL     1     -12.787  15.510  71.699  1.00  0.00    -0.446 C  
HETATM   26  O   UNL     1     -11.887  16.219  72.116  1.00  0.00    -0.507 OA 
HETATM   27  O   UNL     1     -13.937  15.312  72.387  1.00  0.00    -0.486 OA 
ENDBRANCH  23  24
ENDBRANCH  22  23
ENDBRANCH  21  22
ENDBRANCH  19  20
ENDBRANCH  18  19
ENDBRANCH  10  11
ENDBRANCH   6   9
ENDBRANCH   5   6
ENDBRANCH   4   5
ENDBRANCH   3   4
ENDBRANCH   2   3
TORSDOF 11
ENDMDL
MODEL       10
REMARK 921   NORMALIZED FREE ENERGY PREDICTED BY IDOCK:   -5.87 KCAL/MOL
REMARK 922        TOTAL FREE ENERGY PREDICTED BY IDOCK:  -11.46 KCAL/MOL
REMARK 923 INTER-LIGAND FREE ENERGY PREDICTED BY IDOCK:   -9.73 KCAL/MOL
REMARK 924 INTRA-LIGAND FREE ENERGY PREDICTED BY IDOCK:   -1.73 KCAL/MOL
REMARK 927      BINDING AFFINITY PREDICTED BY RF-SCORE:    0.00 PKD
ROOT
HETATM    1  C   UNL     1     -12.785   7.193  71.332  1.00  0.00    -0.433 C  
HETATM    2  C   UNL     1     -13.924   8.097  71.765  1.00  0.00    -0.479 C  
ENDROOT
BRANCH   2   3
HETATM    3  C   UNL     1     -13.528   9.574  71.734  1.00  0.00    -0.480 C  
BRANCH   3   4
HETATM    4  C   UNL     1     -12.028   9.714  71.470  1.00  0.00    -0.485 C  
BRANCH   4   5
HETATM    5  C   UNL     1     -11.721  10.706  70.347  1.00  0.00    -0.446 C  
BRANCH   5   6
HETATM    6  C   UNL     1     -10.706  10.169  69.323  1.00  0.00    -0.231 C  
HETATM    7  O   UNL     1      -9.409  10.512  69.803  1.00  0.00    -0.418 OA 
HETATM    8  H   UNL     1      -8.782  10.180  69.171  1.00  0.00     0.000 HD 
BRANCH   6   9
HETATM    9  C   UNL     1     -10.924  10.717  67.928  1.00  0.00    -0.351 C  
HETATM   10  C   UNL     1      -9.985  11.213  67.103  1.00  0.00    -0.215 C  
BRANCH  10  11
HETATM   11  C   UNL     1     -10.268  11.922  65.793  1.00  0.00    -0.276 C  
HETATM   12  C   UNL     1      -9.945  10.978  64.615  1.00  0.00    -0.301 C  
HETATM   13  O   UNL     1      -8.551  10.919  64.347  1.00  0.00    -0.348 OA 
HETATM   14  C   UNL     1     -10.695  11.539  63.426  1.00  0.00    -0.444 C  
HETATM   15  H   UNL     1      -8.352  10.338  63.622  1.00  0.00     0.000 HD 
HETATM   16  C   UNL     1     -11.922  12.084  64.086  1.00  0.00    -0.369 C  
HETATM   17  O   UNL     1     -12.951  12.311  63.460  1.00  0.00    -0.776 OA 
HETATM   18  C   UNL     1     -11.739  12.347  65.574  1.00  0.00    -0.459 C  
BRANCH  18  19
HETATM   19  C   UNL     1     -11.943  13.832  65.911  1.00  0.00    -0.433 C  
BRANCH  19  20
HETATM   20  C   UNL     1     -12.241  14.105  67.363  1.00  0.00    -0.278 C  
HETATM   21  C   UNL     1     -11.404  14.576  68.301  1.00  0.00    -0.319 C  
BRANCH  21  22
HETATM   22  C   UNL     1      -9.959  14.915  68.102  1.00  0.00    -0.222 C  
BRANCH  22  23
HETATM   23  C   UNL     1      -9.662  16.393  68.348  1.00  0.00    -0.229 C  
BRANCH  23  24
HETATM   24  C   UNL     1     -10.570  17.250  67.465  1.00  0.00    -0.329 C  
HETATM   25  C   UNL     1      -9.952  17.561  66.125  1.00  0.00    -0.270 C  
HETATM   26  O   UNL     1      -8.853  17.193  65.748  1.00  0.00    -0.526 OA 
HETATM   27  O   UNL     1     -10.771  18.319  65.357  1.00  0.00    -0.610 OA 
ENDBRANCH  23  24
ENDBRANCH  22  23
ENDBRANCH  21  22
ENDBRANCH  19  20
ENDBRANCH  18  19
ENDBRANCH  10  11
ENDBRANCH   6   9
ENDBRANCH   5   6
ENDBRANCH   4   5
ENDBRANCH   3   4
ENDBRANCH   2   3
TORSDOF 11
ENDMDL
MODEL       11
REMARK 921   NORMALIZED FREE ENERGY PREDICTED BY IDOCK:   -5.86 KCAL/MOL
REMARK 922        TOTAL FREE ENERGY PREDICTED BY IDOCK:  -11.45 KCAL/MOL
REMARK 923 INTER-LIGAND FREE ENERGY PREDICTED BY IDOCK:   -9.64 KCAL/MOL
REMARK 924 INTRA-LIGAND FREE ENERGY PREDICTED BY IDOCK:   -1.81 KCAL/MOL
REMARK 927      BINDING AFFINITY PREDICTED BY RF-SCORE:    0.00 PKD
ROOT
HETATM    1  C   UNL     1     -14.028  13.359  72.436  1.00  0.00    -0.605 C  
HETATM    2  C   UNL     1     -12.997  12.518  71.707  1.00  0.00    -0.419 C  
ENDROOT
BRANCH   2   3
HETATM    3  C   UNL     1     -13.170  11.024  71.989  1.00  0.00    -0.447 C  
BRANCH   3   4
HETATM    4  C   UNL     1     -12.191  10.210  71.141  1.00  0.00    -0.490 C  
BRANCH   4   5
HETATM    5  C   UNL     1     -11.627  11.011  69.967  1.00  0.00    -0.427 C  
BRANCH   5   6
HETATM    6  C   UNL     1     -10.605  10.223  69.129  1.00  0.00    -0.230 C  
HETATM    7  O   UNL     1      -9.333  10.403  69.745  1.00  0.00    -0.391 OA 
HETATM    8  H   UNL     1      -8.703   9.916  69.228  1.00  0.00     0.000 HD 
BRANCH   6   9
HETATM    9  C   UNL     1     -10.565  10.659  67.679  1.00  0.00    -0.288 C  
HETATM   10  C   UNL     1     -10.351  11.904  67.219  1.00  0.00    -0.228 C  
BRANCH  10  11
HETATM   11  C   UNL     1     -10.505  12.334  65.774  1.00  0.00    -0.287 C  
HETATM   12  C   UNL     1     -10.086  11.175  64.843  1.00  0.00    -0.289 C  
HETATM   13  O   UNL     1      -8.673  11.074  64.722  1.00  0.00    -0.342 OA 
HETATM   14  C   UNL     1     -10.717  11.480  63.502  1.00  0.00    -0.483 C  
HETATM   15  H   UNL     1      -8.416  10.361  64.149  1.00  0.00     0.000 HD 
HETATM   16  C   UNL     1     -11.993  12.137  63.923  1.00  0.00    -0.486 C  
HETATM   17  O   UNL     1     -12.959  12.227  63.173  1.00  0.00    -0.634 OA 
HETATM   18  C   UNL     1     -11.945  12.695  65.339  1.00  0.00    -0.496 C  
BRANCH  18  19
HETATM   19  C   UNL     1     -12.162  14.216  65.351  1.00  0.00    -0.441 C  
BRANCH  19  20
HETATM   20  C   UNL     1     -10.964  15.018  64.912  1.00  0.00    -0.427 C  
HETATM   21  C   UNL     1     -10.267  15.916  65.626  1.00  0.00    -0.406 C  
BRANCH  21  22
HETATM   22  C   UNL     1     -10.557  16.337  67.034  1.00  0.00    -0.284 C  
BRANCH  22  23
HETATM   23  C   UNL     1      -9.980  15.371  68.068  1.00  0.00    -0.221 C  
BRANCH  23  24
HETATM   24  C   UNL     1     -10.145  15.962  69.468  1.00  0.00    -0.277 C  
HETATM   25  C   UNL     1     -11.470  15.610  70.095  1.00  0.00    -0.348 C  
HETATM   26  O   UNL     1     -12.343  14.935  69.577  1.00  0.00    -0.254 OA 
HETATM   27  O   UNL     1     -11.598  16.140  71.335  1.00  0.00    -0.445 OA 
ENDBRANCH  23  24
ENDBRANCH  22  23
ENDBRANCH  21  22
ENDBRANCH  19  20
ENDBRANCH  18  19
ENDBRANCH  10  11
ENDBRANCH   6   9
ENDBRANCH   5   6
ENDBRANCH   4   5
ENDBRANCH   3   4
ENDBRANCH   2   3
TORSDOF 11
ENDMDL
MODEL       12
REMARK 921   NORMALIZED FREE ENERGY PREDICTED BY IDOCK:   -5.86 KCAL/MOL
REMARK 922        TOTAL FREE ENERGY PREDICTED BY IDOCK:  -11.44 KCAL/MOL
REMARK 923 INTER-LIGAND FREE ENERGY PREDICTED BY IDOCK:   -8.96 KCAL/MOL
REMARK 924 INTRA-LIGAND FREE ENERGY PREDICTED BY IDOCK:   -2.49 KCAL/MOL
REMARK 927      BINDING AFFINITY PREDICTED BY RF-SCORE:    0.00 PKD
ROOT
HETATM    1  C   UNL     1     -10.997  15.476  64.804  1.00  0.00    -0.416 C  
HETATM    2  C   UNL     1     -12.254  14.700  64.460  1.00  0.00    -0.473 C  
ENDROOT
BRANCH   2   3
HETATM    3  C   UNL     1     -11.939  13.302  63.926  1.00  0.00    -0.541 C  
BRANCH   3   4
HETATM    4  C   UNL     1     -10.687  12.747  64.608  1.00  0.00    -0.361 C  
BRANCH   4   5
HETATM    5  C   UNL     1     -10.958  11.441  65.357  1.00  0.00    -0.249 C  
BRANCH   5   6
HETATM    6  C   UNL     1     -10.744  11.557  66.876  1.00  0.00    -0.263 C  
HETATM    7  O   UNL     1     -11.919  11.050  67.503  1.00  0.00    -0.545 OA 
HETATM    8  H   UNL     1     -11.787  11.121  68.440  1.00  0.00     0.000 HD 
BRANCH   6   9
HETATM    9  C   UNL     1     -10.463  12.975  67.330  1.00  0.00    -0.238 C  
HETATM   10  C   UNL     1      -9.970  13.355  68.522  1.00  0.00    -0.193 C  
BRANCH  10  11
HETATM   11  C   UNL     1      -9.880  14.789  69.006  1.00  0.00    -0.206 C  
HETATM   12  C   UNL     1      -8.550  15.412  68.529  1.00  0.00    -0.172 C  
HETATM   13  O   UNL     1      -7.453  15.010  69.338  1.00  0.00    -0.174 OA 
HETATM   14  C   UNL     1      -8.751  16.910  68.606  1.00  0.00    -0.267 C  
HETATM   15  H   UNL     1      -6.635  15.394  69.044  1.00  0.00     0.000 HD 
HETATM   16  C   UNL     1     -10.201  17.028  68.257  1.00  0.00    -0.326 C  
HETATM   17  O   UNL     1     -10.693  18.079  67.862  1.00  0.00    -0.395 OA 
HETATM   18  C   UNL     1     -10.980  15.738  68.474  1.00  0.00    -0.312 C  
BRANCH  18  19
HETATM   19  C   UNL     1     -12.098  15.925  69.512  1.00  0.00    -0.200 C  
BRANCH  19  20
HETATM   20  C   UNL     1     -11.625  15.910  70.943  1.00  0.00    -0.456 C  
HETATM   21  C   UNL     1     -12.264  15.416  72.016  1.00  0.00    -0.460 C  
BRANCH  21  22
HETATM   22  C   UNL     1     -13.622  14.784  72.019  1.00  0.00    -0.502 C  
BRANCH  22  23
HETATM   23  C   UNL     1     -13.567  13.273  72.238  1.00  0.00    -0.703 C  
BRANCH  23  24
HETATM   24  C   UNL     1     -12.735  12.626  71.130  1.00  0.00    -0.347 C  
HETATM   25  C   UNL     1     -12.674  11.125  71.250  1.00  0.00    -0.426 C  
HETATM   26  O   UNL     1     -13.212  10.460  72.119  1.00  0.00    -0.452 OA 
HETATM   27  O   UNL     1     -11.935  10.569  70.260  1.00  0.00    -0.277 OA 
ENDBRANCH  23  24
ENDBRANCH  22  23
ENDBRANCH  21  22
ENDBRANCH  19  20
ENDBRANCH  18  19
ENDBRANCH  10  11
ENDBRANCH   6   9
ENDBRANCH   5   6
ENDBRANCH   4   5
ENDBRANCH   3   4
ENDBRANCH   2   3
TORSDOF 11
ENDMDL
MODEL       13
REMARK 921   NORMALIZED FREE ENERGY PREDICTED BY IDOCK:   -5.85 KCAL/MOL
REMARK 922        TOTAL FREE ENERGY PREDICTED BY IDOCK:  -11.43 KCAL/MOL
REMARK 923 INTER-LIGAND FREE ENERGY PREDICTED BY IDOCK:  -10.11 KCAL/MOL
REMARK 924 INTRA-LIGAND FREE ENERGY PREDICTED BY IDOCK:   -1.32 KCAL/MOL
REMARK 927      BINDING AFFINITY PREDICTED BY RF-SCORE:    0.00 PKD
ROOT
HETATM    1  C   UNL     1     -11.250   7.892  72.649  1.00  0.00    -0.459 C  
HETATM    2  C   UNL     1     -12.333   8.313  71.674  1.00  0.00    -0.349 C  
ENDROOT
BRANCH   2   3
HETATM    3  C   UNL     1     -13.240   9.399  72.255  1.00  0.00    -0.528 C  
BRANCH   3   4
HETATM    4  C   UNL     1     -13.022  10.720  71.515  1.00  0.00    -0.562 C  
BRANCH   4   5
HETATM    5  C   UNL     1     -12.048  10.582  70.345  1.00  0.00    -0.418 C  
BRANCH   5   6
HETATM    6  C   UNL     1     -11.416  11.919  69.919  1.00  0.00    -0.186 C  
HETATM    7  O   UNL     1     -12.041  12.940  70.692  1.00  0.00    -0.459 OA 
HETATM    8  H   UNL     1     -11.651  13.765  70.430  1.00  0.00     0.000 HD 
BRANCH   6   9
HETATM    9  C   UNL     1     -11.564  12.200  68.438  1.00  0.00    -0.381 C  
HETATM   10  C   UNL     1     -10.672  11.918  67.473  1.00  0.00    -0.263 C  
BRANCH  10  11
HETATM   11  C   UNL     1     -10.774  12.382  66.034  1.00  0.00    -0.294 C  
HETATM   12  C   UNL     1     -10.212  11.290  65.098  1.00  0.00    -0.289 C  
HETATM   13  O   UNL     1      -8.792  11.300  65.060  1.00  0.00    -0.371 OA 
HETATM   14  C   UNL     1     -10.786  11.591  63.730  1.00  0.00    -0.486 C  
HETATM   15  H   UNL     1      -8.447  10.628  64.483  1.00  0.00     0.000 HD 
HETATM   16  C   UNL     1     -12.132  12.135  64.092  1.00  0.00    -0.409 C  
HETATM   17  O   UNL     1     -13.056  12.176  63.287  1.00  0.00    -0.693 OA 
HETATM   18  C   UNL     1     -12.210  12.647  65.523  1.00  0.00    -0.501 C  
BRANCH  18  19
HETATM   19  C   UNL     1     -12.544  14.146  65.566  1.00  0.00    -0.501 C  
BRANCH  19  20
HETATM   20  C   UNL     1     -11.670  15.003  64.686  1.00  0.00    -0.383 C  
HETATM   21  C   UNL     1     -10.585  15.709  65.042  1.00  0.00    -0.422 C  
BRANCH  21  22
HETATM   22  C   UNL     1     -10.017  15.816  66.423  1.00  0.00    -0.294 C  
BRANCH  22  23
HETATM   23  C   UNL     1     -10.618  16.976  67.217  1.00  0.00    -0.267 C  
BRANCH  23  24
HETATM   24  C   UNL     1     -10.262  18.299  66.538  1.00  0.00    -0.409 C  
HETATM   25  C   UNL     1     -10.153  19.442  67.514  1.00  0.00    -0.398 C  
HETATM   26  O   UNL     1     -10.323  19.366  68.719  1.00  0.00    -0.366 OA 
HETATM   27  O   UNL     1      -9.835  20.605  66.895  1.00  0.00    -0.423 OA 
ENDBRANCH  23  24
ENDBRANCH  22  23
ENDBRANCH  21  22
ENDBRANCH  19  20
ENDBRANCH  18  19
ENDBRANCH  10  11
ENDBRANCH   6   9
ENDBRANCH   5   6
ENDBRANCH   4   5
ENDBRANCH   3   4
ENDBRANCH   2   3
TORSDOF 11
ENDMDL
MODEL       14
REMARK 921   NORMALIZED FREE ENERGY PREDICTED BY IDOCK:   -5.85 KCAL/MOL
REMARK 922        TOTAL FREE ENERGY PREDICTED BY IDOCK:  -11.42 KCAL/MOL
REMARK 923 INTER-LIGAND FREE ENERGY PREDICTED BY IDOCK:   -9.37 KCAL/MOL
REMARK 924 INTRA-LIGAND FREE ENERGY PREDICTED BY IDOCK:   -2.05 KCAL/MOL
REMARK 927      BINDING AFFINITY PREDICTED BY RF-SCORE:    0.00 PKD
ROOT
HETATM    1  C   UNL     1     -10.217  19.845  66.042  1.00  0.00    -0.591 C  
HETATM    2  C   UNL     1     -10.729  19.134  67.281  1.00  0.00    -0.585 C  
ENDROOT
BRANCH   2   3
HETATM    3  C   UNL     1     -10.215  17.696  67.372  1.00  0.00    -0.345 C  
BRANCH   3   4
HETATM    4  C   UNL     1     -10.159  17.248  68.834  1.00  0.00    -0.331 C  
BRANCH   4   5
HETATM    5  C   UNL     1     -10.315  15.734  68.988  1.00  0.00    -0.223 C  
BRANCH   5   6
HETATM    6  C   UNL     1     -11.719  15.227  68.613  1.00  0.00    -0.346 C  
HETATM    7  O   UNL     1     -12.430  15.026  69.831  1.00  0.00    -0.484 OA 
HETATM    8  H   UNL     1     -13.296  14.713  69.599  1.00  0.00     0.000 HD 
BRANCH   6   9
HETATM    9  C   UNL     1     -11.690  13.954  67.792  1.00  0.00    -0.401 C  
HETATM   10  C   UNL     1     -10.978  13.736  66.672  1.00  0.00    -0.298 C  
BRANCH  10  11
HETATM   11  C   UNL     1     -11.118  12.520  65.778  1.00  0.00    -0.343 C  
HETATM   12  C   UNL     1     -12.024  12.866  64.575  1.00  0.00    -0.395 C  
HETATM   13  O   UNL     1     -13.401  12.841  64.922  1.00  0.00    -0.736 OA 
HETATM   14  C   UNL     1     -11.718  11.824  63.522  1.00  0.00    -0.485 C  
HETATM   15  H   UNL     1     -13.958  13.053  64.182  1.00  0.00     0.000 HD 
HETATM   16  C   UNL     1     -10.260  11.587  63.760  1.00  0.00    -0.382 C  
HETATM   17  O   UNL     1      -9.534  11.082  62.911  1.00  0.00    -0.304 OA 
HETATM   18  C   UNL     1      -9.802  12.003  65.151  1.00  0.00    -0.223 C  
BRANCH  18  19
HETATM   19  C   UNL     1      -9.246  10.807  65.940  1.00  0.00    -0.214 C  
BRANCH  19  20
HETATM   20  C   UNL     1     -10.217   9.666  66.104  1.00  0.00    -0.276 C  
HETATM   21  C   UNL     1     -10.626   9.091  67.246  1.00  0.00    -0.301 C  
BRANCH  21  22
HETATM   22  C   UNL     1     -10.174   9.455  68.627  1.00  0.00    -0.222 C  
BRANCH  22  23
HETATM   23  C   UNL     1     -10.955  10.631  69.211  1.00  0.00    -0.294 C  
BRANCH  23  24
HETATM   24  C   UNL     1     -11.809  10.147  70.384  1.00  0.00    -0.373 C  
HETATM   25  C   UNL     1     -12.432  11.282  71.156  1.00  0.00    -0.373 C  
HETATM   26  O   UNL     1     -12.295  12.467  70.910  1.00  0.00    -0.372 OA 
HETATM   27  O   UNL     1     -13.185  10.834  72.189  1.00  0.00    -0.473 OA 
ENDBRANCH  23  24
ENDBRANCH  22  23
ENDBRANCH  21  22
ENDBRANCH  19  20
ENDBRANCH  18  19
ENDBRANCH  10  11
ENDBRANCH   6   9
ENDBRANCH   5   6
ENDBRANCH   4   5
ENDBRANCH   3   4
ENDBRANCH   2   3
TORSDOF 11
ENDMDL
MODEL       15
REMARK 921   NORMALIZED FREE ENERGY PREDICTED BY IDOCK:   -5.84 KCAL/MOL
REMARK 922        TOTAL FREE ENERGY PREDICTED BY IDOCK:  -11.41 KCAL/MOL
REMARK 923 INTER-LIGAND FREE ENERGY PREDICTED BY IDOCK:   -9.52 KCAL/MOL
REMARK 924 INTRA-LIGAND FREE ENERGY PREDICTED BY IDOCK:   -1.89 KCAL/MOL
REMARK 927      BINDING AFFINITY PREDICTED BY RF-SCORE:    0.00 PKD
ROOT
HETATM    1  C   UNL     1      -7.535  13.742  67.560  1.00  0.00    -0.182 C  
HETATM    2  C   UNL     1      -6.823  15.060  67.802  1.00  0.00    -0.190 C  
ENDROOT
BRANCH   2   3
HETATM    3  C   UNL     1      -7.316  15.755  69.072  1.00  0.00    -0.177 C  
BRANCH   3   4
HETATM    4  C   UNL     1      -7.147  17.271  68.944  1.00  0.00    -0.242 C  
BRANCH   4   5
HETATM    5  C   UNL     1      -7.331  17.760  67.507  1.00  0.00    -0.209 C  
BRANCH   5   6
HETATM    6  C   UNL     1      -8.665  18.493  67.281  1.00  0.00    -0.266 C  
HETATM    7  O   UNL     1      -8.865  19.351  68.401  1.00  0.00    -0.332 OA 
HETATM    8  H   UNL     1      -9.688  19.803  68.261  1.00  0.00     0.000 HD 
BRANCH   6   9
HETATM    9  C   UNL     1      -9.838  17.550  67.111  1.00  0.00    -0.297 C  
HETATM   10  C   UNL     1      -9.898  16.480  66.299  1.00  0.00    -0.336 C  
BRANCH  10  11
HETATM   11  C   UNL     1     -11.151  15.674  66.017  1.00  0.00    -0.136 C  
HETATM   12  C   UNL     1     -11.202  15.306  64.518  1.00  0.00    -0.280 C  
HETATM   13  O   UNL     1     -11.652  16.391  63.719  1.00  0.00    -1.605 OA 
HETATM   14  C   UNL     1     -12.155  14.135  64.417  1.00  0.00    -0.486 C  
HETATM   15  H   UNL     1     -11.683  16.164  62.797  1.00  0.00     0.000 HD 
HETATM   16  C   UNL     1     -11.887  13.428  65.708  1.00  0.00    -0.377 C  
HETATM   17  O   UNL     1     -12.183  12.251  65.880  1.00  0.00    -0.634 OA 
HETATM   18  C   UNL     1     -11.251  14.323  66.764  1.00  0.00    -0.337 C  
BRANCH  18  19
HETATM   19  C   UNL     1     -12.144  14.443  68.008  1.00  0.00    -0.266 C  
BRANCH  19  20
HETATM   20  C   UNL     1     -11.432  14.952  69.236  1.00  0.00    -0.324 C  
HETATM   21  C   UNL     1     -11.665  14.626  70.517  1.00  0.00    -0.345 C  
BRANCH  21  22
HETATM   22  C   UNL     1     -12.720  13.684  71.009  1.00  0.00    -0.408 C  
BRANCH  22  23
HETATM   23  C   UNL     1     -12.346  12.218  70.795  1.00  0.00    -0.383 C  
BRANCH  23  24
HETATM   24  C   UNL     1     -13.159  11.339  71.747  1.00  0.00    -0.527 C  
HETATM   25  C   UNL     1     -12.739   9.892  71.703  1.00  0.00    -0.429 C  
HETATM   26  O   UNL     1     -11.857   9.431  70.999  1.00  0.00    -0.290 OA 
HETATM   27  O   UNL     1     -13.467   9.130  72.553  1.00  0.00    -0.464 OA 
ENDBRANCH  23  24
ENDBRANCH  22  23
ENDBRANCH  21  22
ENDBRANCH  19  20
ENDBRANCH  18  19
ENDBRANCH  10  11
ENDBRANCH   6   9
ENDBRANCH   5   6
ENDBRANCH   4   5
ENDBRANCH   3   4
ENDBRANCH   2   3
TORSDOF 11
ENDMDL
MODEL       16
REMARK 921   NORMALIZED FREE ENERGY PREDICTED BY IDOCK:   -5.83 KCAL/MOL
REMARK 922        TOTAL FREE ENERGY PREDICTED BY IDOCK:  -11.39 KCAL/MOL
REMARK 923 INTER-LIGAND FREE ENERGY PREDICTED BY IDOCK:  -10.07 KCAL/MOL
REMARK 924 INTRA-LIGAND FREE ENERGY PREDICTED BY IDOCK:   -1.33 KCAL/MOL
REMARK 927      BINDING AFFINITY PREDICTED BY RF-SCORE:    0.00 PKD
ROOT
HETATM    1  C   UNL     1     -10.356   8.256  68.292  1.00  0.00    -0.242 C  
HETATM    2  C   UNL     1     -10.305   7.851  69.754  1.00  0.00    -0.219 C  
ENDROOT
BRANCH   2   3
HETATM    3  C   UNL     1     -11.366   6.805  70.099  1.00  0.00    -0.404 C  
BRANCH   3   4
HETATM    4  C   UNL     1     -12.150   7.237  71.339  1.00  0.00    -0.370 C  
BRANCH   4   5
HETATM    5  C   UNL     1     -11.758   8.634  71.823  1.00  0.00    -0.400 C  
BRANCH   5   6
HETATM    6  C   UNL     1     -12.957   9.590  71.953  1.00  0.00    -0.425 C  
HETATM    7  O   UNL     1     -14.048   8.986  71.264  1.00  0.00    -0.502 OA 
HETATM    8  H   UNL     1     -14.788   9.576  71.345  1.00  0.00     0.000 HD 
BRANCH   6   9
HETATM    9  C   UNL     1     -12.675  10.974  71.405  1.00  0.00    -0.534 C  
HETATM   10  C   UNL     1     -13.026  12.146  71.962  1.00  0.00    -0.377 C  
BRANCH  10  11
HETATM   11  C   UNL     1     -12.892  13.499  71.293  1.00  0.00    -0.420 C  
HETATM   12  C   UNL     1     -12.747  14.596  72.370  1.00  0.00    -0.347 C  
HETATM   13  O   UNL     1     -13.998  14.942  72.948  1.00  0.00    -0.469 OA 
HETATM   14  C   UNL     1     -12.137  15.786  71.662  1.00  0.00    -0.522 C  
HETATM   15  H   UNL     1     -13.909  15.618  73.611  1.00  0.00     0.000 HD 
HETATM   16  C   UNL     1     -11.251  15.109  70.665  1.00  0.00    -0.287 C  
HETATM   17  O   UNL     1     -10.315  15.689  70.125  1.00  0.00    -0.303 OA 
HETATM   18  C   UNL     1     -11.653  13.668  70.382  1.00  0.00    -0.112 C  
BRANCH  18  19
HETATM   19  C   UNL     1     -12.022  13.468  68.904  1.00  0.00    -0.378 C  
BRANCH  19  20
HETATM   20  C   UNL     1     -11.616  12.132  68.337  1.00  0.00    -0.381 C  
HETATM   21  C   UNL     1     -11.507  11.785  67.045  1.00  0.00    -0.368 C  
BRANCH  21  22
HETATM   22  C   UNL     1     -11.797  12.665  65.868  1.00  0.00    -0.499 C  
BRANCH  22  23
HETATM   23  C   UNL     1     -10.655  13.632  65.561  1.00  0.00    -0.300 C  
BRANCH  23  24
HETATM   24  C   UNL     1     -11.149  14.722  64.610  1.00  0.00    -0.337 C  
HETATM   25  C   UNL     1     -10.887  16.112  65.132  1.00  0.00    -0.361 C  
HETATM   26  O   UNL     1     -10.346  16.381  66.191  1.00  0.00    -0.321 OA 
HETATM   27  O   UNL     1     -11.329  17.064  64.276  1.00  0.00    -1.191 OA 
ENDBRANCH  23  24
ENDBRANCH  22  23
ENDBRANCH  21  22
ENDBRANCH  19  20
ENDBRANCH  18  19
ENDBRANCH  10  11
ENDBRANCH   6   9
ENDBRANCH   5   6
ENDBRANCH   4   5
ENDBRANCH   3   4
ENDBRANCH   2   3
TORSDOF 11
ENDMDL
MODEL       17
REMARK 921   NORMALIZED FREE ENERGY PREDICTED BY IDOCK:   -5.83 KCAL/MOL
REMARK 922        TOTAL FREE ENERGY PREDICTED BY IDOCK:  -11.39 KCAL/MOL
REMARK 923 INTER-LIGAND FREE ENERGY PREDICTED BY IDOCK:   -9.49 KCAL/MOL
REMARK 924 INTRA-LIGAND FREE ENERGY PREDICTED BY IDOCK:   -1.90 KCAL/MOL
REMARK 927      BINDING AFFINITY PREDICTED BY RF-SCORE:    0.00 PKD
ROOT
HETATM    1  C   UNL     1      -8.685  19.658  66.742  1.00  0.00    -0.381 C  
HETATM    2  C   UNL     1      -9.981  20.086  67.405  1.00  0.00    -0.571 C  
ENDROOT
BRANCH   2   3
HETATM    3  C   UNL     1     -10.973  18.928  67.528  1.00  0.00    -0.312 C  
BRANCH   3   4
HETATM    4  C   UNL     1     -10.231  17.629  67.845  1.00  0.00    -0.357 C  
BRANCH   4   5
HETATM    5  C   UNL     1     -10.886  16.842  68.981  1.00  0.00    -0.291 C  
BRANCH   5   6
HETATM    6  C   UNL     1     -10.196  15.495  69.263  1.00  0.00    -0.252 C  
HETATM    7  O   UNL     1      -8.798  15.754  69.359  1.00  0.00    -0.252 OA 
HETATM    8  H   UNL     1      -8.373  14.923  69.533  1.00  0.00     0.000 HD 
BRANCH   6   9
HETATM    9  C   UNL     1     -10.477  14.451  68.202  1.00  0.00    -0.237 C  
HETATM   10  C   UNL     1     -11.680  14.109  67.708  1.00  0.00    -0.408 C  
BRANCH  10  11
HETATM   11  C   UNL     1     -11.938  12.934  66.787  1.00  0.00    -0.418 C  
HETATM   12  C   UNL     1     -12.002  13.428  65.325  1.00  0.00    -0.380 C  
HETATM   13  O   UNL     1     -13.258  14.017  65.018  1.00  0.00    -0.720 OA 
HETATM   14  C   UNL     1     -11.762  12.202  64.470  1.00  0.00    -0.410 C  
HETATM   15  H   UNL     1     -13.296  14.321  64.118  1.00  0.00     0.000 HD 
HETATM   16  C   UNL     1     -10.804  11.434  65.324  1.00  0.00    -0.233 C  
HETATM   17  O   UNL     1     -10.084  10.554  64.865  1.00  0.00    -0.309 OA 
HETATM   18  C   UNL     1     -10.847  11.837  66.791  1.00  0.00    -0.312 C  
BRANCH  18  19
HETATM   19  C   UNL     1     -11.254  10.656  67.686  1.00  0.00    -0.361 C  
BRANCH  19  20
HETATM   20  C   UNL     1     -10.550  10.613  69.018  1.00  0.00    -0.249 C  
HETATM   21  C   UNL     1     -11.102  10.558  70.240  1.00  0.00    -0.359 C  
BRANCH  21  22
HETATM   22  C   UNL     1     -12.569  10.551  70.544  1.00  0.00    -0.423 C  
BRANCH  22  23
HETATM   23  C   UNL     1     -12.962  11.616  71.568  1.00  0.00    -0.463 C  
BRANCH  23  24
HETATM   24  C   UNL     1     -12.668  13.005  70.999  1.00  0.00    -0.347 C  
HETATM   25  C   UNL     1     -13.360  14.104  71.764  1.00  0.00    -0.380 C  
HETATM   26  O   UNL     1     -14.084  13.948  72.732  1.00  0.00    -0.668 OA 
HETATM   27  O   UNL     1     -13.087  15.326  71.247  1.00  0.00    -0.395 OA 
ENDBRANCH  23  24
ENDBRANCH  22  23
ENDBRANCH  21  22
ENDBRANCH  19  20
ENDBRANCH  18  19
ENDBRANCH  10  11
ENDBRANCH   6   9
ENDBRANCH   5   6
ENDBRANCH   4   5
ENDBRANCH   3   4
ENDBRANCH   2   3
TORSDOF 11
ENDMDL
MODEL       18
REMARK 921   NORMALIZED FREE ENERGY PREDICTED BY IDOCK:   -5.83 KCAL/MOL
REMARK 922        TOTAL FREE ENERGY PREDICTED BY IDOCK:  -11.39 KCAL/MOL
REMARK 923 INTER-LIGAND FREE ENERGY PREDICTED BY IDOCK:   -9.46 KCAL/MOL
REMARK 924 INTRA-LIGAND FREE ENERGY PREDICTED BY IDOCK:   -1.93 KCAL/MOL
REMARK 927      BINDING AFFINITY PREDICTED BY RF-SCORE:    0.00 PKD
ROOT
HETATM    1  C   UNL     1     -10.235   9.178  66.691  1.00  0.00    -0.328 C  
HETATM    2  C   UNL     1      -9.913  10.525  66.072  1.00  0.00    -0.295 C  
ENDROOT
BRANCH   2   3
HETATM    3  C   UNL     1      -9.621  10.415  64.574  1.00  0.00    -0.369 C  
BRANCH   3   4
HETATM    4  C   UNL     1     -10.755  11.050  63.768  1.00  0.00    -0.294 C  
BRANCH   4   5
HETATM    5  C   UNL     1     -10.715  12.578  63.805  1.00  0.00    -0.483 C  
BRANCH   5   6
HETATM    6  C   UNL     1     -12.022  13.208  64.319  1.00  0.00    -0.411 C  
HETATM    7  O   UNL     1     -12.453  14.139  63.330  1.00  0.00    -1.122 OA 
HETATM    8  H   UNL     1     -13.260  14.528  63.647  1.00  0.00     0.000 HD 
BRANCH   6   9
HETATM    9  C   UNL     1     -11.865  13.886  65.664  1.00  0.00    -0.383 C  
HETATM   10  C   UNL     1     -10.712  14.257  66.248  1.00  0.00    -0.297 C  
BRANCH  10  11
HETATM   11  C   UNL     1     -10.582  14.760  67.672  1.00  0.00    -0.262 C  
HETATM   12  C   UNL     1     -10.485  16.302  67.667  1.00  0.00    -0.295 C  
HETATM   13  O   UNL     1      -9.180  16.751  67.329  1.00  0.00    -0.224 OA 
HETATM   14  C   UNL     1     -10.856  16.738  69.068  1.00  0.00    -0.291 C  
HETATM   15  H   UNL     1      -9.121  17.699  67.327  1.00  0.00     0.000 HD 
HETATM   16  C   UNL     1     -11.877  15.708  69.434  1.00  0.00    -0.375 C  
HETATM   17  O   UNL     1     -12.686  15.885  70.337  1.00  0.00    -0.372 OA 
HETATM   18  C   UNL     1     -11.778  14.438  68.599  1.00  0.00    -0.367 C  
BRANCH  18  19
HETATM   19  C   UNL     1     -11.482  13.212  69.477  1.00  0.00    -0.291 C  
BRANCH  19  20
HETATM   20  C   UNL     1     -11.762  11.889  68.811  1.00  0.00    -0.379 C  
HETATM   21  C   UNL     1     -12.160  10.745  69.388  1.00  0.00    -0.315 C  
BRANCH  21  22
HETATM   22  C   UNL     1     -12.392  10.530  70.852  1.00  0.00    -0.490 C  
BRANCH  22  23
HETATM   23  C   UNL     1     -11.459   9.477  71.447  1.00  0.00    -0.462 C  
BRANCH  23  24
HETATM   24  C   UNL     1     -11.160   8.406  70.396  1.00  0.00    -0.240 C  
HETATM   25  C   UNL     1     -11.811   7.084  70.712  1.00  0.00    -0.355 C  
HETATM   26  O   UNL     1     -12.505   6.850  71.686  1.00  0.00    -0.350 OA 
HETATM   27  O   UNL     1     -11.538   6.150  69.770  1.00  0.00    -0.405 OA 
ENDBRANCH  23  24
ENDBRANCH  22  23
ENDBRANCH  21  22
ENDBRANCH  19  20
ENDBRANCH  18  19
ENDBRANCH  10  11
ENDBRANCH   6   9
ENDBRANCH   5   6
ENDBRANCH   4   5
ENDBRANCH   3   4
ENDBRANCH   2   3
TORSDOF 11
ENDMDL
MODEL       19
REMARK 921   NORMALIZED FREE ENERGY PREDICTED BY IDOCK:   -5.82 KCAL/MOL
REMARK 922        TOTAL FREE ENERGY PREDICTED BY IDOCK:  -11.38 KCAL/MOL
REMARK 923 INTER-LIGAND FREE ENERGY PREDICTED BY IDOCK:   -9.80 KCAL/MOL
REMARK 924 INTRA-LIGAND FREE ENERGY PREDICTED BY IDOCK:   -1.58 KCAL/MOL
REMARK 927      BINDING AFFINITY PREDICTED BY RF-SCORE:    0.00 PKD
ROOT
HETATM    1  C   UNL     1     -11.082  15.036  65.078  1.00  0.00    -0.421 C  
HETATM    2  C   UNL     1     -12.263  14.134  64.774  1.00  0.00    -0.457 C  
ENDROOT
BRANCH   2   3
HETATM    3  C   UNL     1     -12.060  13.334  63.486  1.00  0.00    -0.550 C  
BRANCH   3   4
HETATM    4  C   UNL     1     -11.534  11.935  63.812  1.00  0.00    -0.542 C  
BRANCH   4   5
HETATM    5  C   UNL     1     -10.057  11.767  63.454  1.00  0.00    -0.470 C  
BRANCH   5   6
HETATM    6  C   UNL     1      -9.415  10.524  64.095  1.00  0.00    -0.293 C  
HETATM    7  O   UNL     1      -9.496   9.472  63.138  1.00  0.00    -0.514 OA 
HETATM    8  H   UNL     1      -9.100   8.705  63.533  1.00  0.00     0.000 HD 
BRANCH   6   9
HETATM    9  C   UNL     1     -10.077  10.118  65.396  1.00  0.00    -0.342 C  
HETATM   10  C   UNL     1      -9.770   9.051  66.156  1.00  0.00    -0.354 C  
BRANCH  10  11
HETATM   11  C   UNL     1     -10.576   8.575  67.348  1.00  0.00    -0.304 C  
HETATM   12  C   UNL     1     -10.533   7.033  67.417  1.00  0.00    -0.273 C  
HETATM   13  O   UNL     1     -11.434   6.434  66.497  1.00  0.00    -0.651 OA 
HETATM   14  C   UNL     1     -10.907   6.678  68.840  1.00  0.00    -0.326 C  
HETATM   15  H   UNL     1     -11.408   5.485  66.540  1.00  0.00     0.000 HD 
HETATM   16  C   UNL     1     -10.308   7.824  69.593  1.00  0.00    -0.212 C  
HETATM   17  O   UNL     1     -10.072   7.761  70.794  1.00  0.00    -0.192 OA 
HETATM   18  C   UNL     1     -10.063   9.052  68.727  1.00  0.00    -0.214 C  
BRANCH  18  19
HETATM   19  C   UNL     1     -10.868  10.261  69.229  1.00  0.00    -0.275 C  
BRANCH  19  20
HETATM   20  C   UNL     1     -11.631  10.989  68.152  1.00  0.00    -0.345 C  
HETATM   21  C   UNL     1     -11.688  12.312  67.935  1.00  0.00    -0.410 C  
BRANCH  21  22
HETATM   22  C   UNL     1     -11.010  13.369  68.751  1.00  0.00    -0.290 C  
BRANCH  22  23
HETATM   23  C   UNL     1     -12.000  14.313  69.431  1.00  0.00    -0.381 C  
BRANCH  23  24
HETATM   24  C   UNL     1     -12.421  13.728  70.779  1.00  0.00    -0.441 C  
HETATM   25  C   UNL     1     -13.508  14.530  71.447  1.00  0.00    -0.375 C  
HETATM   26  O   UNL     1     -14.021  15.541  70.999  1.00  0.00    -0.535 OA 
HETATM   27  O   UNL     1     -13.870  13.995  72.638  1.00  0.00    -0.636 OA 
ENDBRANCH  23  24
ENDBRANCH  22  23
ENDBRANCH  21  22
ENDBRANCH  19  20
ENDBRANCH  18  19
ENDBRANCH  10  11
ENDBRANCH   6   9
ENDBRANCH   5   6
ENDBRANCH   4   5
ENDBRANCH   3   4
ENDBRANCH   2   3
TORSDOF 11
ENDMDL
MODEL       20
REMARK 921   NORMALIZED FREE ENERGY PREDICTED BY IDOCK:   -5.82 KCAL/MOL
REMARK 922        TOTAL FREE ENERGY PREDICTED BY IDOCK:  -11.38 KCAL/MOL
REMARK 923 INTER-LIGAND FREE ENERGY PREDICTED BY IDOCK:   -9.60 KCAL/MOL
REMARK 924 INTRA-LIGAND FREE ENERGY PREDICTED BY IDOCK:   -1.78 KCAL/MOL
REMARK 927      BINDING AFFINITY PREDICTED BY RF-SCORE:    0.00 PKD
ROOT
HETATM    1  C   UNL     1     -12.615  10.960  70.895  1.00  0.00    -0.494 C  
HETATM    2  C   UNL     1     -12.994   9.524  71.207  1.00  0.00    -0.407 C  
ENDROOT
BRANCH   2   3
HETATM    3  C   UNL     1     -11.794   8.580  71.116  1.00  0.00    -0.322 C  
BRANCH   3   4
HETATM    4  C   UNL     1     -10.494   9.359  71.321  1.00  0.00    -0.385 C  
BRANCH   4   5
HETATM    5  C   UNL     1      -9.468   9.086  70.220  1.00  0.00    -0.230 C  
BRANCH   5   6
HETATM    6  C   UNL     1     -10.095   8.982  68.818  1.00  0.00    -0.199 C  
HETATM    7  O   UNL     1      -9.395   7.953  68.124  1.00  0.00    -0.142 OA 
HETATM    8  H   UNL     1      -9.782   7.889  67.259  1.00  0.00     0.000 HD 
BRANCH   6   9
HETATM    9  C   UNL     1     -10.041  10.284  68.046  1.00  0.00    -0.189 C  
HETATM   10  C   UNL     1     -10.906  10.695  67.101  1.00  0.00    -0.328 C  
BRANCH  10  11
HETATM   11  C   UNL     1     -10.714  11.913  66.220  1.00  0.00    -0.309 C  
HETATM   12  C   UNL     1     -10.160  11.476  64.847  1.00  0.00    -0.268 C  
HETATM   13  O   UNL     1      -8.763  11.220  64.894  1.00  0.00    -0.383 OA 
HETATM   14  C   UNL     1     -10.464  12.619  63.902  1.00  0.00    -0.441 C  
HETATM   15  H   UNL     1      -8.423  10.951  64.048  1.00  0.00     0.000 HD 
HETATM   16  C   UNL     1     -11.766  13.112  64.449  1.00  0.00    -0.380 C  
HETATM   17  O   UNL     1     -12.536  13.794  63.783  1.00  0.00    -0.713 OA 
HETATM   18  C   UNL     1     -12.003  12.707  65.898  1.00  0.00    -0.497 C  
BRANCH  18  19
HETATM   19  C   UNL     1     -12.138  13.936  66.809  1.00  0.00    -0.476 C  
BRANCH  19  20
HETATM   20  C   UNL     1     -10.888  14.282  67.576  1.00  0.00    -0.284 C  
HETATM   21  C   UNL     1     -10.796  14.832  68.797  1.00  0.00    -0.259 C  
BRANCH  21  22
HETATM   22  C   UNL     1     -11.944  15.252  69.663  1.00  0.00    -0.364 C  
BRANCH  22  23
HETATM   23  C   UNL     1     -12.017  14.458  70.966  1.00  0.00    -0.389 C  
BRANCH  23  24
HETATM   24  C   UNL     1     -11.967  15.419  72.154  1.00  0.00    -0.514 C  
HETATM   25  C   UNL     1     -13.297  15.550  72.853  1.00  0.00    -0.547 C  
HETATM   26  O   UNL     1     -14.323  14.973  72.538  1.00  0.00    -0.414 OA 
HETATM   27  O   UNL     1     -13.233  16.403  73.903  1.00  0.00    -0.662 OA 
ENDBRANCH  23  24
ENDBRANCH  22  23
ENDBRANCH  21  22
ENDBRANCH  19  20
ENDBRANCH  18  19
ENDBRANCH  10  11
ENDBRANCH   6   9
ENDBRANCH   5   6
ENDBRANCH   4   5
ENDBRANCH   3   4
ENDBRANCH   2   3
TORSDOF 11
ENDMDL
MODEL       21
REMARK 921   NORMALIZED FREE ENERGY PREDICTED BY IDOCK:   -5.82 KCAL/MOL
REMARK 922        TOTAL FREE ENERGY PREDICTED BY IDOCK:  -11.37 KCAL/MOL
REMARK 923 INTER-LIGAND FREE ENERGY PREDICTED BY IDOCK:   -9.04 KCAL/MOL
REMARK 924 INTRA-LIGAND FREE ENERGY PREDICTED BY IDOCK:   -2.33 KCAL/MOL
REMARK 927      BINDING AFFINITY PREDICTED BY RF-SCORE:    0.00 PKD
ROOT
HETATM    1  C   UNL     1      -9.232  12.466  67.550  1.00  0.00    -0.183 C  
HETATM    2  C   UNL     1     -10.512  11.783  67.106  1.00  0.00    -0.250 C  
ENDROOT
BRANCH   2   3
HETATM    3  C   UNL     1     -11.755  12.452  67.695  1.00  0.00    -0.412 C  
BRANCH   3   4
HETATM    4  C   UNL     1     -11.986  13.812  67.033  1.00  0.00    -0.452 C  
BRANCH   4   5
HETATM    5  C   UNL     1     -12.179  13.700  65.520  1.00  0.00    -0.476 C  
BRANCH   5   6
HETATM    6  C   UNL     1     -11.162  14.529  64.715  1.00  0.00    -0.390 C  
HETATM    7  O   UNL     1     -10.145  13.632  64.278  1.00  0.00    -0.738 OA 
HETATM    8  H   UNL     1      -9.518  14.143  63.782  1.00  0.00     0.000 HD 
BRANCH   6   9
HETATM    9  C   UNL     1     -10.565  15.671  65.512  1.00  0.00    -0.422 C  
HETATM   10  C   UNL     1      -9.273  15.824  65.854  1.00  0.00    -0.337 C  
BRANCH  10  11
HETATM   11  C   UNL     1      -8.747  16.877  66.807  1.00  0.00    -0.261 C  
HETATM   12  C   UNL     1      -7.624  17.683  66.118  1.00  0.00    -0.280 C  
HETATM   13  O   UNL     1      -6.388  16.982  66.121  1.00  0.00    -0.197 OA 
HETATM   14  C   UNL     1      -7.509  18.973  66.900  1.00  0.00    -0.230 C  
HETATM   15  H   UNL     1      -5.697  17.478  65.697  1.00  0.00     0.000 HD 
HETATM   16  C   UNL     1      -8.933  19.202  67.297  1.00  0.00    -0.295 C  
HETATM   17  O   UNL     1      -9.345  20.305  67.639  1.00  0.00    -0.363 OA 
HETATM   18  C   UNL     1      -9.779  17.937  67.259  1.00  0.00    -0.289 C  
BRANCH  18  19
HETATM   19  C   UNL     1     -10.347  17.600  68.647  1.00  0.00    -0.359 C  
BRANCH  19  20
HETATM   20  C   UNL     1      -9.933  16.251  69.176  1.00  0.00    -0.260 C  
HETATM   21  C   UNL     1     -10.476  15.564  70.193  1.00  0.00    -0.317 C  
BRANCH  21  22
HETATM   22  C   UNL     1     -11.617  16.016  71.053  1.00  0.00    -0.472 C  
BRANCH  22  23
HETATM   23  C   UNL     1     -12.974  15.569  70.511  1.00  0.00    -0.339 C  
BRANCH  23  24
HETATM   24  C   UNL     1     -13.805  14.968  71.645  1.00  0.00    -0.571 C  
HETATM   25  C   UNL     1     -13.583  13.486  71.806  1.00  0.00    -0.350 C  
HETATM   26  O   UNL     1     -12.836  12.803  71.128  1.00  0.00    -0.323 OA 
HETATM   27  O   UNL     1     -14.325  12.972  72.817  1.00  0.00    -0.477 OA 
ENDBRANCH  23  24
ENDBRANCH  22  23
ENDBRANCH  21  22
ENDBRANCH  19  20
ENDBRANCH  18  19
ENDBRANCH  10  11
ENDBRANCH   6   9
ENDBRANCH   5   6
ENDBRANCH   4   5
ENDBRANCH   3   4
ENDBRANCH   2   3
TORSDOF 11
ENDMDL
MODEL       22
REMARK 921   NORMALIZED FREE ENERGY PREDICTED BY IDOCK:   -5.78 KCAL/MOL
REMARK 922        TOTAL FREE ENERGY PREDICTED BY IDOCK:  -11.32 KCAL/MOL
REMARK 923 INTER-LIGAND FREE ENERGY PREDICTED BY IDOCK:   -9.80 KCAL/MOL
REMARK 924 INTRA-LIGAND FREE ENERGY PREDICTED BY IDOCK:   -1.52 KCAL/MOL
REMARK 927      BINDING AFFINITY PREDICTED BY RF-SCORE:    0.00 PKD
ROOT
HETATM    1  C   UNL     1      -9.249  20.075  66.581  1.00  0.00    -0.484 C  
HETATM    2  C   UNL     1     -10.571  19.690  67.219  1.00  0.00    -0.598 C  
ENDROOT
BRANCH   2   3
HETATM    3  C   UNL     1     -10.741  18.173  67.318  1.00  0.00    -0.336 C  
BRANCH   3   4
HETATM    4  C   UNL     1      -9.893  17.621  68.466  1.00  0.00    -0.346 C  
BRANCH   4   5
HETATM    5  C   UNL     1     -10.159  16.138  68.729  1.00  0.00    -0.237 C  
BRANCH   5   6
HETATM    6  C   UNL     1     -11.588  15.702  68.361  1.00  0.00    -0.350 C  
HETATM    7  O   UNL     1     -12.316  15.587  69.581  1.00  0.00    -0.526 OA 
HETATM    8  H   UNL     1     -13.198  15.318  69.354  1.00  0.00     0.000 HD 
BRANCH   6   9
HETATM    9  C   UNL     1     -11.630  14.402  67.586  1.00  0.00    -0.396 C  
HETATM   10  C   UNL     1     -11.213  14.205  66.323  1.00  0.00    -0.329 C  
BRANCH  10  11
HETATM   11  C   UNL     1     -11.444  12.940  65.520  1.00  0.00    -0.361 C  
HETATM   12  C   UNL     1     -11.228  13.234  64.019  1.00  0.00    -0.339 C  
HETATM   13  O   UNL     1     -12.353  13.877  63.436  1.00  0.00    -1.063 OA 
HETATM   14  C   UNL     1     -10.984  11.889  63.371  1.00  0.00    -0.470 C  
HETATM   15  H   UNL     1     -12.219  14.058  62.513  1.00  0.00     0.000 HD 
HETATM   16  C   UNL     1     -10.255  11.168  64.460  1.00  0.00    -0.324 C  
HETATM   17  O   UNL     1      -9.566  10.178  64.238  1.00  0.00    -0.291 OA 
HETATM   18  C   UNL     1     -10.485  11.769  65.840  1.00  0.00    -0.296 C  
BRANCH  18  19
HETATM   19  C   UNL     1     -11.145  10.757  66.789  1.00  0.00    -0.153 C  
BRANCH  19  20
HETATM   20  C   UNL     1     -10.349  10.463  68.035  1.00  0.00    -0.212 C  
HETATM   21  C   UNL     1     -10.655  10.784  69.302  1.00  0.00    -0.261 C  
BRANCH  21  22
HETATM   22  C   UNL     1     -11.866  11.541  69.751  1.00  0.00    -0.429 C  
BRANCH  22  23
HETATM   23  C   UNL     1     -12.655  10.802  70.831  1.00  0.00    -0.498 C  
BRANCH  23  24
HETATM   24  C   UNL     1     -11.752   9.768  71.505  1.00  0.00    -0.450 C  
HETATM   25  C   UNL     1     -12.510   8.553  71.977  1.00  0.00    -0.363 C  
HETATM   26  O   UNL     1     -13.710   8.375  71.857  1.00  0.00    -0.364 OA 
HETATM   27  O   UNL     1     -11.695   7.648  72.569  1.00  0.00    -0.322 OA 
ENDBRANCH  23  24
ENDBRANCH  22  23
ENDBRANCH  21  22
ENDBRANCH  19  20
ENDBRANCH  18  19
ENDBRANCH  10  11
ENDBRANCH   6   9
ENDBRANCH   5   6
ENDBRANCH   4   5
ENDBRANCH   3   4
ENDBRANCH   2   3
TORSDOF 11
ENDMDL
MODEL       23
REMARK 921   NORMALIZED FREE ENERGY PREDICTED BY IDOCK:   -5.78 KCAL/MOL
REMARK 922        TOTAL FREE ENERGY PREDICTED BY IDOCK:  -11.32 KCAL/MOL
REMARK 923 INTER-LIGAND FREE ENERGY PREDICTED BY IDOCK:   -9.71 KCAL/MOL
REMARK 924 INTRA-LIGAND FREE ENERGY PREDICTED BY IDOCK:   -1.60 KCAL/MOL
REMARK 927      BINDING AFFINITY PREDICTED BY RF-SCORE:    0.00 PKD
ROOT
HETATM    1  C   UNL     1      -7.792  19.727  65.909  1.00  0.00    -0.309 C  
HETATM    2  C   UNL     1      -8.914  20.409  66.671  1.00  0.00    -0.296 C  
ENDROOT
BRANCH   2   3
HETATM    3  C   UNL     1      -9.521  19.496  67.737  1.00  0.00    -0.423 C  
BRANCH   3   4
HETATM    4  C   UNL     1     -10.873  18.959  67.265  1.00  0.00    -0.448 C  
BRANCH   4   5
HETATM    5  C   UNL     1     -10.875  17.438  67.104  1.00  0.00    -0.090 C  
BRANCH   5   6
HETATM    6  C   UNL     1     -10.285  16.969  65.762  1.00  0.00    -0.245 C  
HETATM    7  O   UNL     1     -10.936  17.714  64.737  1.00  0.00    -0.917 OA 
HETATM    8  H   UNL     1     -10.573  17.424  63.909  1.00  0.00     0.000 HD 
BRANCH   6   9
HETATM    9  C   UNL     1     -10.450  15.480  65.530  1.00  0.00    -0.407 C  
HETATM   10  C   UNL     1     -11.608  14.801  65.455  1.00  0.00    -0.316 C  
BRANCH  10  11
HETATM   11  C   UNL     1     -11.727  13.291  65.410  1.00  0.00    -0.370 C  
HETATM   12  C   UNL     1     -11.013  12.754  64.150  1.00  0.00    -0.398 C  
HETATM   13  O   UNL     1     -11.808  12.908  62.982  1.00  0.00    -0.827 OA 
HETATM   14  C   UNL     1     -10.745  11.290  64.426  1.00  0.00    -0.407 C  
HETATM   15  H   UNL     1     -11.369  12.577  62.208  1.00  0.00     0.000 HD 
HETATM   16  C   UNL     1     -10.492  11.313  65.900  1.00  0.00    -0.259 C  
HETATM   17  O   UNL     1      -9.896  10.408  66.473  1.00  0.00    -0.190 OA 
HETATM   18  C   UNL     1     -11.071  12.540  66.592  1.00  0.00    -0.327 C  
BRANCH  18  19
HETATM   19  C   UNL     1     -12.116  12.147  67.647  1.00  0.00     0.017 C  
BRANCH  19  20
HETATM   20  C   UNL     1     -11.599  12.144  69.063  1.00  0.00    -0.374 C  
HETATM   21  C   UNL     1     -11.538  13.176  69.919  1.00  0.00    -0.255 C  
BRANCH  21  22
HETATM   22  C   UNL     1     -11.957  14.585  69.633  1.00  0.00    -0.375 C  
BRANCH  22  23
HETATM   23  C   UNL     1     -13.048  15.079  70.581  1.00  0.00    -0.365 C  
BRANCH  23  24
HETATM   24  C   UNL     1     -12.418  15.514  71.904  1.00  0.00    -0.475 C  
HETATM   25  C   UNL     1     -12.816  14.629  73.058  1.00  0.00    -0.474 C  
HETATM   26  O   UNL     1     -13.557  13.664  72.988  1.00  0.00    -0.578 OA 
HETATM   27  O   UNL     1     -12.246  15.028  74.220  1.00  0.00    -0.604 OA 
ENDBRANCH  23  24
ENDBRANCH  22  23
ENDBRANCH  21  22
ENDBRANCH  19  20
ENDBRANCH  18  19
ENDBRANCH  10  11
ENDBRANCH   6   9
ENDBRANCH   5   6
ENDBRANCH   4   5
ENDBRANCH   3   4
ENDBRANCH   2   3
TORSDOF 11
ENDMDL
MODEL       24
REMARK 921   NORMALIZED FREE ENERGY PREDICTED BY IDOCK:   -5.78 KCAL/MOL
REMARK 922        TOTAL FREE ENERGY PREDICTED BY IDOCK:  -11.30 KCAL/MOL
REMARK 923 INTER-LIGAND FREE ENERGY PREDICTED BY IDOCK:   -8.90 KCAL/MOL
REMARK 924 INTRA-LIGAND FREE ENERGY PREDICTED BY IDOCK:   -2.41 KCAL/MOL
REMARK 927      BINDING AFFINITY PREDICTED BY RF-SCORE:    0.00 PKD
ROOT
HETATM    1  C   UNL     1      -7.069  10.770  67.741  1.00  0.00    -0.086 C  
HETATM    2  C   UNL     1      -8.131  11.140  68.759  1.00  0.00    -0.140 C  
ENDROOT
BRANCH   2   3
HETATM    3  C   UNL     1      -8.374  10.019  69.770  1.00  0.00    -0.187 C  
BRANCH   3   4
HETATM    4  C   UNL     1      -8.461   8.671  69.052  1.00  0.00    -0.124 C  
BRANCH   4   5
HETATM    5  C   UNL     1      -9.899   8.288  68.697  1.00  0.00    -0.186 C  
BRANCH   5   6
HETATM    6  C   UNL     1     -10.159   8.244  67.181  1.00  0.00    -0.264 C  
HETATM    7  O   UNL     1      -8.947   7.821  66.562  1.00  0.00    -0.145 OA 
HETATM    8  H   UNL     1      -9.108   7.794  65.626  1.00  0.00     0.000 HD 
BRANCH   6   9
HETATM    9  C   UNL     1     -10.613   9.575  66.618  1.00  0.00    -0.174 C  
HETATM   10  C   UNL     1     -10.061  10.244  65.590  1.00  0.00    -0.341 C  
BRANCH  10  11
HETATM   11  C   UNL     1     -10.425  11.657  65.179  1.00  0.00    -0.329 C  
HETATM   12  C   UNL     1     -11.067  11.636  63.774  1.00  0.00    -0.420 C  
HETATM   13  O   UNL     1     -10.093  11.526  62.746  1.00  0.00    -0.608 OA 
HETATM   14  C   UNL     1     -11.828  12.938  63.655  1.00  0.00    -0.599 C  
HETATM   15  H   UNL     1     -10.489  11.514  61.882  1.00  0.00     0.000 HD 
HETATM   16  C   UNL     1     -12.288  13.139  65.064  1.00  0.00    -0.459 C  
HETATM   17  O   UNL     1     -13.223  13.879  65.346  1.00  0.00    -0.750 OA 
HETATM   18  C   UNL     1     -11.463  12.363  66.083  1.00  0.00    -0.430 C  
BRANCH  18  19
HETATM   19  C   UNL     1     -10.775  13.306  67.082  1.00  0.00    -0.264 C  
BRANCH  19  20
HETATM   20  C   UNL     1     -11.596  13.619  68.307  1.00  0.00    -0.374 C  
HETATM   21  C   UNL     1     -12.038  12.763  69.242  1.00  0.00    -0.224 C  
BRANCH  21  22
HETATM   22  C   UNL     1     -11.825  11.281  69.251  1.00  0.00    -0.423 C  
BRANCH  22  23
HETATM   23  C   UNL     1     -11.712  10.712  70.665  1.00  0.00    -0.454 C  
BRANCH  23  24
HETATM   24  C   UNL     1     -13.109  10.419  71.212  1.00  0.00    -0.494 C  
HETATM   25  C   UNL     1     -13.125   9.257  72.173  1.00  0.00    -0.443 C  
HETATM   26  O   UNL     1     -12.156   8.596  72.503  1.00  0.00    -0.374 OA 
HETATM   27  O   UNL     1     -14.370   9.014  72.648  1.00  0.00    -0.603 OA 
ENDBRANCH  23  24
ENDBRANCH  22  23
ENDBRANCH  21  22
ENDBRANCH  19  20
ENDBRANCH  18  19
ENDBRANCH  10  11
ENDBRANCH   6   9
ENDBRANCH   5   6
ENDBRANCH   4   5
ENDBRANCH   3   4
ENDBRANCH   2   3
TORSDOF 11
ENDMDL
MODEL       25
REMARK 921   NORMALIZED FREE ENERGY PREDICTED BY IDOCK:   -5.78 KCAL/MOL
REMARK 922        TOTAL FREE ENERGY PREDICTED BY IDOCK:  -11.30 KCAL/MOL
REMARK 923 INTER-LIGAND FREE ENERGY PREDICTED BY IDOCK:   -9.28 KCAL/MOL
REMARK 924 INTRA-LIGAND FREE ENERGY PREDICTED BY IDOCK:   -2.03 KCAL/MOL
REMARK 927      BINDING AFFINITY PREDICTED BY RF-SCORE:    0.00 PKD
ROOT
HETATM    1  C   UNL     1     -10.634   8.142  72.531  1.00  0.00    -0.411 C  
HETATM    2  C   UNL     1     -11.881   8.117  71.667  1.00  0.00    -0.334 C  
ENDROOT
BRANCH   2   3
HETATM    3  C   UNL     1     -13.003   8.975  72.252  1.00  0.00    -0.490 C  
BRANCH   3   4
HETATM    4  C   UNL     1     -13.404  10.068  71.260  1.00  0.00    -0.410 C  
BRANCH   4   5
HETATM    5  C   UNL     1     -12.350  11.171  71.147  1.00  0.00    -0.451 C  
BRANCH   5   6
HETATM    6  C   UNL     1     -11.712  11.261  69.749  1.00  0.00    -0.349 C  
HETATM    7  O   UNL     1     -10.362  10.822  69.878  1.00  0.00    -0.438 OA 
HETATM    8  H   UNL     1      -9.969  10.878  69.016  1.00  0.00     0.000 HD 
BRANCH   6   9
HETATM    9  C   UNL     1     -11.769  12.656  69.160  1.00  0.00    -0.375 C  
HETATM   10  C   UNL     1     -11.899  12.974  67.860  1.00  0.00    -0.389 C  
BRANCH  10  11
HETATM   11  C   UNL     1     -11.763  14.373  67.291  1.00  0.00    -0.429 C  
HETATM   12  C   UNL     1     -11.289  15.337  68.400  1.00  0.00    -0.329 C  
HETATM   13  O   UNL     1     -12.354  15.727  69.257  1.00  0.00    -0.551 OA 
HETATM   14  C   UNL     1     -10.715  16.537  67.679  1.00  0.00    -0.311 C  
HETATM   15  H   UNL     1     -12.061  16.320  69.939  1.00  0.00     0.000 HD 
HETATM   16  C   UNL     1     -10.126  15.894  66.464  1.00  0.00    -0.282 C  
HETATM   17  O   UNL     1      -9.264  16.444  65.789  1.00  0.00    -0.464 OA 
HETATM   18  C   UNL     1     -10.725  14.529  66.155  1.00  0.00    -0.310 C  
BRANCH  18  19
HETATM   19  C   UNL     1     -11.406  14.514  64.778  1.00  0.00    -0.397 C  
BRANCH  19  20
HETATM   20  C   UNL     1     -12.335  13.348  64.557  1.00  0.00    -0.415 C  
HETATM   21  C   UNL     1     -12.060  12.177  63.962  1.00  0.00    -0.540 C  
BRANCH  21  22
HETATM   22  C   UNL     1     -10.748  11.782  63.358  1.00  0.00    -0.468 C  
BRANCH  22  23
HETATM   23  C   UNL     1     -10.080  10.629  64.104  1.00  0.00    -0.402 C  
BRANCH  23  24
HETATM   24  C   UNL     1      -9.162  11.187  65.193  1.00  0.00    -0.209 C  
HETATM   25  C   UNL     1      -9.507  10.669  66.566  1.00  0.00    -0.169 C  
HETATM   26  O   UNL     1     -10.411   9.893  66.825  1.00  0.00    -0.229 OA 
HETATM   27  O   UNL     1      -8.684  11.173  67.516  1.00  0.00    -0.128 OA 
ENDBRANCH  23  24
ENDBRANCH  22  23
ENDBRANCH  21  22
ENDBRANCH  19  20
ENDBRANCH  18  19
ENDBRANCH  10  11
ENDBRANCH   6   9
ENDBRANCH   5   6
ENDBRANCH   4   5
ENDBRANCH   3   4
ENDBRANCH   2   3
TORSDOF 11
ENDMDL
MODEL       26
REMARK 921   NORMALIZED FREE ENERGY PREDICTED BY IDOCK:   -5.76 KCAL/MOL
REMARK 922        TOTAL FREE ENERGY PREDICTED BY IDOCK:  -11.28 KCAL/MOL
REMARK 923 INTER-LIGAND FREE ENERGY PREDICTED BY IDOCK:   -8.80 KCAL/MOL
REMARK 924 INTRA-LIGAND FREE ENERGY PREDICTED BY IDOCK:   -2.47 KCAL/MOL
REMARK 927      BINDING AFFINITY PREDICTED BY RF-SCORE:    0.00 PKD
ROOT
HETATM    1  C   UNL     1     -10.500   7.628  67.122  1.00  0.00    -0.412 C  
HETATM    2  C   UNL     1      -9.994   8.898  66.463  1.00  0.00    -0.358 C  
ENDROOT
BRANCH   2   3
HETATM    3  C   UNL     1      -8.485   9.077  66.645  1.00  0.00    -0.126 C  
BRANCH   3   4
HETATM    4  C   UNL     1      -8.204  10.235  67.604  1.00  0.00    -0.114 C  
BRANCH   4   5
HETATM    5  C   UNL     1      -7.181   9.869  68.680  1.00  0.00    -0.072 C  
BRANCH   5   6
HETATM    6  C   UNL     1      -7.761   9.899  70.105  1.00  0.00    -0.175 C  
HETATM    7  O   UNL     1      -7.086   8.891  70.852  1.00  0.00    -0.066 OA 
HETATM    8  H   UNL     1      -7.444   8.909  71.731  1.00  0.00     0.000 HD 
BRANCH   6   9
HETATM    9  C   UNL     1      -9.260   9.680  70.140  1.00  0.00    -0.287 C  
HETATM   10  C   UNL     1      -9.923   8.769  70.875  1.00  0.00    -0.279 C  
BRANCH  10  11
HETATM   11  C   UNL     1     -11.399   8.455  70.743  1.00  0.00    -0.290 C  
HETATM   12  C   UNL     1     -11.678   7.041  71.296  1.00  0.00    -0.317 C  
HETATM   13  O   UNL     1     -11.321   6.027  70.367  1.00  0.00    -0.338 OA 
HETATM   14  C   UNL     1     -13.163   7.002  71.586  1.00  0.00    -0.368 C  
HETATM   15  H   UNL     1     -11.493   5.156  70.708  1.00  0.00     0.000 HD 
HETATM   16  C   UNL     1     -13.413   8.413  72.016  1.00  0.00    -0.350 C  
HETATM   17  O   UNL     1     -14.400   8.729  72.671  1.00  0.00    -0.585 OA 
HETATM   18  C   UNL     1     -12.349   9.388  71.532  1.00  0.00    -0.452 C  
BRANCH  18  19
HETATM   19  C   UNL     1     -12.950  10.467  70.619  1.00  0.00    -0.362 C  
BRANCH  19  20
HETATM   20  C   UNL     1     -12.112  11.715  70.498  1.00  0.00    -0.458 C  
HETATM   21  C   UNL     1     -11.597  12.255  69.382  1.00  0.00    -0.378 C  
BRANCH  21  22
HETATM   22  C   UNL     1     -11.729  11.706  67.995  1.00  0.00    -0.351 C  
BRANCH  22  23
HETATM   23  C   UNL     1     -11.139  12.636  66.936  1.00  0.00    -0.315 C  
BRANCH  23  24
HETATM   24  C   UNL     1     -11.487  12.111  65.543  1.00  0.00    -0.394 C  
HETATM   25  C   UNL     1     -12.582  12.907  64.878  1.00  0.00    -0.458 C  
HETATM   26  O   UNL     1     -13.154  13.868  65.363  1.00  0.00    -0.752 OA 
HETATM   27  O   UNL     1     -12.875  12.429  63.645  1.00  0.00    -0.743 OA 
ENDBRANCH  23  24
ENDBRANCH  22  23
ENDBRANCH  21  22
ENDBRANCH  19  20
ENDBRANCH  18  19
ENDBRANCH  10  11
ENDBRANCH   6   9
ENDBRANCH   5   6
ENDBRANCH   4   5
ENDBRANCH   3   4
ENDBRANCH   2   3
TORSDOF 11
ENDMDL
MODEL       27
REMARK 921   NORMALIZED FREE ENERGY PREDICTED BY IDOCK:   -5.73 KCAL/MOL
REMARK 922        TOTAL FREE ENERGY PREDICTED BY IDOCK:  -11.23 KCAL/MOL
REMARK 923 INTER-LIGAND FREE ENERGY PREDICTED BY IDOCK:   -9.30 KCAL/MOL
REMARK 924 INTRA-LIGAND FREE ENERGY PREDICTED BY IDOCK:   -1.94 KCAL/MOL
REMARK 927      BINDING AFFINITY PREDICTED BY RF-SCORE:    0.00 PKD
ROOT
HETATM    1  C   UNL     1     -11.262   9.530  71.182  1.00  0.00    -0.446 C  
HETATM    2  C   UNL     1     -12.301  10.631  71.078  1.00  0.00    -0.507 C  
ENDROOT
BRANCH   2   3
HETATM    3  C   UNL     1     -11.958  11.642  69.982  1.00  0.00    -0.429 C  
BRANCH   3   4
HETATM    4  C   UNL     1     -12.276  13.061  70.456  1.00  0.00    -0.392 C  
BRANCH   4   5
HETATM    5  C   UNL     1     -11.569  14.130  69.621  1.00  0.00    -0.349 C  
BRANCH   5   6
HETATM    6  C   UNL     1     -11.739  15.552  70.184  1.00  0.00    -0.347 C  
HETATM    7  O   UNL     1     -13.072  15.960  69.889  1.00  0.00    -0.577 OA 
HETATM    8  H   UNL     1     -13.177  16.838  70.237  1.00  0.00     0.000 HD 
BRANCH   6   9
HETATM    9  C   UNL     1     -10.737  16.538  69.618  1.00  0.00    -0.323 C  
HETATM   10  C   UNL     1     -10.821  17.182  68.441  1.00  0.00    -0.309 C  
BRANCH  10  11
HETATM   11  C   UNL     1      -9.713  18.014  67.827  1.00  0.00    -0.292 C  
HETATM   12  C   UNL     1     -10.191  19.474  67.668  1.00  0.00    -0.434 C  
HETATM   13  O   UNL     1     -11.025  19.640  66.530  1.00  0.00    -0.405 OA 
HETATM   14  C   UNL     1      -8.932  20.303  67.535  1.00  0.00    -0.435 C  
HETATM   15  H   UNL     1     -11.318  20.539  66.432  1.00  0.00     0.000 HD 
HETATM   16  C   UNL     1      -7.992  19.550  68.423  1.00  0.00    -0.339 C  
HETATM   17  O   UNL     1      -6.976  20.062  68.879  1.00  0.00    -0.311 OA 
HETATM   18  C   UNL     1      -8.414  18.107  68.661  1.00  0.00    -0.285 C  
BRANCH  18  19
HETATM   19  C   UNL     1      -7.354  17.120  68.146  1.00  0.00    -0.202 C  
BRANCH  19  20
HETATM   20  C   UNL     1      -7.521  15.710  68.652  1.00  0.00    -0.130 C  
HETATM   21  C   UNL     1      -8.118  14.679  68.035  1.00  0.00    -0.135 C  
BRANCH  21  22
HETATM   22  C   UNL     1      -8.781  14.720  66.693  1.00  0.00    -0.229 C  
BRANCH  22  23
HETATM   23  C   UNL     1      -9.831  13.623  66.522  1.00  0.00    -0.295 C  
BRANCH  23  24
HETATM   24  C   UNL     1     -11.041  14.185  65.774  1.00  0.00    -0.309 C  
HETATM   25  C   UNL     1     -12.215  13.239  65.775  1.00  0.00    -0.456 C  
HETATM   26  O   UNL     1     -12.240  12.139  66.299  1.00  0.00    -0.604 OA 
HETATM   27  O   UNL     1     -13.277  13.754  65.110  1.00  0.00    -0.757 OA 
ENDBRANCH  23  24
ENDBRANCH  22  23
ENDBRANCH  21  22
ENDBRANCH  19  20
ENDBRANCH  18  19
ENDBRANCH  10  11
ENDBRANCH   6   9
ENDBRANCH   5   6
ENDBRANCH   4   5
ENDBRANCH   3   4
ENDBRANCH   2   3
TORSDOF 11
ENDMDL
MODEL       28
REMARK 921   NORMALIZED FREE ENERGY PREDICTED BY IDOCK:   -5.72 KCAL/MOL
REMARK 922        TOTAL FREE ENERGY PREDICTED BY IDOCK:  -11.21 KCAL/MOL
REMARK 923 INTER-LIGAND FREE ENERGY PREDICTED BY IDOCK:   -8.97 KCAL/MOL
REMARK 924 INTRA-LIGAND FREE ENERGY PREDICTED BY IDOCK:   -2.23 KCAL/MOL
REMARK 927      BINDING AFFINITY PREDICTED BY RF-SCORE:    0.00 PKD
ROOT
HETATM    1  C   UNL     1     -13.557  13.950  72.445  1.00  0.00    -0.676 C  
HETATM    2  C   UNL     1     -13.046  12.894  71.482  1.00  0.00    -0.390 C  
ENDROOT
BRANCH   2   3
HETATM    3  C   UNL     1     -13.284  11.476  72.004  1.00  0.00    -0.443 C  
BRANCH   3   4
HETATM    4  C   UNL     1     -12.290  10.505  71.364  1.00  0.00    -0.477 C  
BRANCH   4   5
HETATM    5  C   UNL     1     -12.391  10.485  69.838  1.00  0.00    -0.247 C  
BRANCH   5   6
HETATM    6  C   UNL     1     -11.086  10.049  69.148  1.00  0.00    -0.190 C  
HETATM    7  O   UNL     1     -10.011  10.526  69.952  1.00  0.00    -0.420 OA 
HETATM    8  H   UNL     1      -9.206  10.257  69.527  1.00  0.00     0.000 HD 
BRANCH   6   9
HETATM    9  C   UNL     1     -10.965  10.564  67.729  1.00  0.00    -0.372 C  
HETATM   10  C   UNL     1     -10.748  11.837  67.351  1.00  0.00    -0.277 C  
BRANCH  10  11
HETATM   11  C   UNL     1     -10.820  12.343  65.924  1.00  0.00    -0.305 C  
HETATM   12  C   UNL     1     -10.161  11.315  64.978  1.00  0.00    -0.284 C  
HETATM   13  O   UNL     1      -8.743  11.405  64.999  1.00  0.00    -0.389 OA 
HETATM   14  C   UNL     1     -10.698  11.628  63.599  1.00  0.00    -0.500 C  
HETATM   15  H   UNL     1      -8.339  10.772  64.417  1.00  0.00     0.000 HD 
HETATM   16  C   UNL     1     -12.085  12.085  63.922  1.00  0.00    -0.457 C  
HETATM   17  O   UNL     1     -12.978  12.101  63.082  1.00  0.00    -0.659 OA 
HETATM   18  C   UNL     1     -12.248  12.544  65.364  1.00  0.00    -0.475 C  
BRANCH  18  19
HETATM   19  C   UNL     1     -12.668  14.020  65.439  1.00  0.00    -0.499 C  
BRANCH  19  20
HETATM   20  C   UNL     1     -11.735  14.968  64.730  1.00  0.00    -0.370 C  
HETATM   21  C   UNL     1     -10.906  15.871  65.278  1.00  0.00    -0.401 C  
BRANCH  21  22
HETATM   22  C   UNL     1     -10.749  16.149  66.742  1.00  0.00    -0.235 C  
BRANCH  22  23
HETATM   23  C   UNL     1      -9.285  16.199  67.176  1.00  0.00    -0.220 C  
BRANCH  23  24
HETATM   24  C   UNL     1      -8.547  14.975  66.633  1.00  0.00    -0.246 C  
HETATM   25  C   UNL     1      -7.968  14.113  67.725  1.00  0.00    -0.170 C  
HETATM   26  O   UNL     1      -8.053  14.331  68.921  1.00  0.00    -0.132 OA 
HETATM   27  O   UNL     1      -7.321  13.033  67.225  1.00  0.00    -0.138 OA 
ENDBRANCH  23  24
ENDBRANCH  22  23
ENDBRANCH  21  22
ENDBRANCH  19  20
ENDBRANCH  18  19
ENDBRANCH  10  11
ENDBRANCH   6   9
ENDBRANCH   5   6
ENDBRANCH   4   5
ENDBRANCH   3   4
ENDBRANCH   2   3
TORSDOF 11
ENDMDL
MODEL       29
REMARK 921   NORMALIZED FREE ENERGY PREDICTED BY IDOCK:   -5.70 KCAL/MOL
REMARK 922        TOTAL FREE ENERGY PREDICTED BY IDOCK:  -11.18 KCAL/MOL
REMARK 923 INTER-LIGAND FREE ENERGY PREDICTED BY IDOCK:   -9.86 KCAL/MOL
REMARK 924 INTRA-LIGAND FREE ENERGY PREDICTED BY IDOCK:   -1.32 KCAL/MOL
REMARK 927      BINDING AFFINITY PREDICTED BY RF-SCORE:    0.00 PKD
ROOT
HETATM    1  C   UNL     1      -8.554  17.219  68.295  1.00  0.00    -0.247 C  
HETATM    2  C   UNL     1      -9.599  16.352  67.618  1.00  0.00    -0.227 C  
ENDROOT
BRANCH   2   3
HETATM    3  C   UNL     1      -9.716  16.655  66.123  1.00  0.00    -0.329 C  
BRANCH   3   4
HETATM    4  C   UNL     1     -10.526  15.561  65.425  1.00  0.00    -0.429 C  
BRANCH   4   5
HETATM    5  C   UNL     1     -11.059  14.513  66.402  1.00  0.00    -0.331 C  
BRANCH   5   6
HETATM    6  C   UNL     1     -11.817  13.366  65.710  1.00  0.00    -0.377 C  
HETATM    7  O   UNL     1     -13.069  13.894  65.281  1.00  0.00    -0.777 OA 
HETATM    8  H   UNL     1     -13.537  13.186  64.854  1.00  0.00     0.000 HD 
BRANCH   6   9
HETATM    9  C   UNL     1     -12.020  12.163  66.607  1.00  0.00    -0.186 C  
HETATM   10  C   UNL     1     -11.440  11.942  67.801  1.00  0.00    -0.389 C  
BRANCH  10  11
HETATM   11  C   UNL     1     -11.523  10.644  68.579  1.00  0.00    -0.333 C  
HETATM   12  C   UNL     1     -10.267   9.792  68.296  1.00  0.00    -0.183 C  
HETATM   13  O   UNL     1     -10.352   9.116  67.050  1.00  0.00    -0.250 OA 
HETATM   14  C   UNL     1     -10.181   8.802  69.438  1.00  0.00    -0.210 C  
HETATM   15  H   UNL     1      -9.579   8.591  66.876  1.00  0.00     0.000 HD 
HETATM   16  C   UNL     1     -10.717   9.616  70.572  1.00  0.00    -0.311 C  
HETATM   17  O   UNL     1     -10.500   9.325  71.743  1.00  0.00    -0.337 OA 
HETATM   18  C   UNL     1     -11.565  10.796  70.118  1.00  0.00    -0.424 C  
BRANCH  18  19
HETATM   19  C   UNL     1     -13.005  10.688  70.645  1.00  0.00    -0.343 C  
BRANCH  19  20
HETATM   20  C   UNL     1     -13.260  11.457  71.916  1.00  0.00    -0.485 C  
HETATM   21  C   UNL     1     -13.363  12.787  72.067  1.00  0.00    -0.565 C  
BRANCH  21  22
HETATM   22  C   UNL     1     -13.219  13.811  70.984  1.00  0.00    -0.222 C  
BRANCH  22  23
HETATM   23  C   UNL     1     -13.954  15.112  71.303  1.00  0.00    -0.548 C  
BRANCH  23  24
HETATM   24  C   UNL     1     -13.896  15.376  72.808  1.00  0.00    -0.576 C  
HETATM   25  C   UNL     1     -12.654  16.126  73.219  1.00  0.00    -0.519 C  
HETATM   26  O   UNL     1     -11.769  16.498  72.467  1.00  0.00    -0.506 OA 
HETATM   27  O   UNL     1     -12.621  16.354  74.553  1.00  0.00    -0.754 OA 
ENDBRANCH  23  24
ENDBRANCH  22  23
ENDBRANCH  21  22
ENDBRANCH  19  20
ENDBRANCH  18  19
ENDBRANCH  10  11
ENDBRANCH   6   9
ENDBRANCH   5   6
ENDBRANCH   4   5
ENDBRANCH   3   4
ENDBRANCH   2   3
TORSDOF 11
ENDMDL
MODEL       30
REMARK 921   NORMALIZED FREE ENERGY PREDICTED BY IDOCK:   -5.68 KCAL/MOL
REMARK 922        TOTAL FREE ENERGY PREDICTED BY IDOCK:  -11.14 KCAL/MOL
REMARK 923 INTER-LIGAND FREE ENERGY PREDICTED BY IDOCK:  -10.03 KCAL/MOL
REMARK 924 INTRA-LIGAND FREE ENERGY PREDICTED BY IDOCK:   -1.11 KCAL/MOL
REMARK 927      BINDING AFFINITY PREDICTED BY RF-SCORE:    0.00 PKD
ROOT
HETATM    1  C   UNL     1      -7.814  20.393  67.245  1.00  0.00    -0.373 C  
HETATM    2  C   UNL     1      -9.252  20.290  66.769  1.00  0.00    -0.452 C  
ENDROOT
BRANCH   2   3
HETATM    3  C   UNL     1     -10.207  19.918  67.904  1.00  0.00    -0.571 C  
BRANCH   3   4
HETATM    4  C   UNL     1     -10.751  18.504  67.693  1.00  0.00    -0.405 C  
BRANCH   4   5
HETATM    5  C   UNL     1     -10.351  17.919  66.338  1.00  0.00    -0.365 C  
BRANCH   5   6
HETATM    6  C   UNL     1      -9.390  16.722  66.454  1.00  0.00    -0.278 C  
HETATM    7  O   UNL     1      -8.178  17.096  65.805  1.00  0.00    -0.515 OA 
HETATM    8  H   UNL     1      -7.585  16.358  65.877  1.00  0.00     0.000 HD 
BRANCH   6   9
HETATM    9  C   UNL     1      -9.951  15.451  65.850  1.00  0.00    -0.374 C  
HETATM   10  C   UNL     1     -11.161  14.913  66.089  1.00  0.00    -0.335 C  
BRANCH  10  11
HETATM   11  C   UNL     1     -11.612  13.546  65.613  1.00  0.00    -0.343 C  
HETATM   12  C   UNL     1     -11.421  13.443  64.084  1.00  0.00    -0.383 C  
HETATM   13  O   UNL     1     -12.462  14.097  63.373  1.00  0.00    -1.122 OA 
HETATM   14  C   UNL     1     -11.409  11.962  63.774  1.00  0.00    -0.532 C  
HETATM   15  H   UNL     1     -12.344  14.033  62.432  1.00  0.00     0.000 HD 
HETATM   16  C   UNL     1     -10.747  11.412  64.999  1.00  0.00    -0.277 C  
HETATM   17  O   UNL     1     -10.224  10.304  65.015  1.00  0.00    -0.320 OA 
HETATM   18  C   UNL     1     -10.825  12.349  66.197  1.00  0.00    -0.308 C  
BRANCH  18  19
HETATM   19  C   UNL     1     -11.586  11.703  67.365  1.00  0.00    -0.330 C  
BRANCH  19  20
HETATM   20  C   UNL     1     -11.618  12.535  68.621  1.00  0.00    -0.357 C  
HETATM   21  C   UNL     1     -11.927  12.137  69.865  1.00  0.00    -0.380 C  
BRANCH  21  22
HETATM   22  C   UNL     1     -12.339  10.755  70.271  1.00  0.00    -0.423 C  
BRANCH  22  23
HETATM   23  C   UNL     1     -11.235  10.008  71.019  1.00  0.00    -0.387 C  
BRANCH  23  24
HETATM   24  C   UNL     1     -11.772   8.665  71.513  1.00  0.00    -0.369 C  
HETATM   25  C   UNL     1     -11.434   7.526  70.585  1.00  0.00    -0.269 C  
HETATM   26  O   UNL     1     -10.806   7.622  69.544  1.00  0.00    -0.234 OA 
HETATM   27  O   UNL     1     -11.914   6.345  71.040  1.00  0.00    -0.333 OA 
ENDBRANCH  23  24
ENDBRANCH  22  23
ENDBRANCH  21  22
ENDBRANCH  19  20
ENDBRANCH  18  19
ENDBRANCH  10  11
ENDBRANCH   6   9
ENDBRANCH   5   6
ENDBRANCH   4   5
ENDBRANCH   3   4
ENDBRANCH   2   3
TORSDOF 11
ENDMDL
MODEL       31
REMARK 921   NORMALIZED FREE ENERGY PREDICTED BY IDOCK:   -5.67 KCAL/MOL
REMARK 922        TOTAL FREE ENERGY PREDICTED BY IDOCK:  -11.14 KCAL/MOL
REMARK 923 INTER-LIGAND FREE ENERGY PREDICTED BY IDOCK:   -9.47 KCAL/MOL
REMARK 924 INTRA-LIGAND FREE ENERGY PREDICTED BY IDOCK:   -1.67 KCAL/MOL
REMARK 927      BINDING AFFINITY PREDICTED BY RF-SCORE:    0.00 PKD
ROOT
HETATM    1  C   UNL     1      -7.547  18.256  68.520  1.00  0.00    -0.313 C  
HETATM    2  C   UNL     1      -8.747  19.013  67.980  1.00  0.00    -0.341 C  
ENDROOT
BRANCH   2   3
HETATM    3  C   UNL     1      -8.947  18.780  66.482  1.00  0.00    -0.320 C  
BRANCH   3   4
HETATM    4  C   UNL     1     -10.415  18.465  66.188  1.00  0.00    -0.422 C  
BRANCH   4   5
HETATM    5  C   UNL     1     -10.740  16.980  66.359  1.00  0.00    -0.075 C  
BRANCH   5   6
HETATM    6  C   UNL     1     -10.593  16.173  65.057  1.00  0.00    -0.276 C  
HETATM    7  O   UNL     1     -11.383  16.828  64.068  1.00  0.00    -1.471 OA 
HETATM    8  H   UNL     1     -11.292  16.330  63.265  1.00  0.00     0.000 HD 
BRANCH   6   9
HETATM    9  C   UNL     1     -11.014  14.725  65.206  1.00  0.00    -0.382 C  
HETATM   10  C   UNL     1     -10.240  13.700  65.606  1.00  0.00    -0.316 C  
BRANCH  10  11
HETATM   11  C   UNL     1     -10.644  12.240  65.563  1.00  0.00    -0.304 C  
HETATM   12  C   UNL     1      -9.872  11.524  64.434  1.00  0.00    -0.241 C  
HETATM   13  O   UNL     1     -10.440  11.778  63.156  1.00  0.00    -0.599 OA 
HETATM   14  C   UNL     1      -9.938  10.049  64.766  1.00  0.00    -0.248 C  
HETATM   15  H   UNL     1      -9.965  11.337  62.462  1.00  0.00     0.000 HD 
HETATM   16  C   UNL     1      -9.905  10.085  66.261  1.00  0.00    -0.236 C  
HETATM   17  O   UNL     1      -9.589   9.107  66.929  1.00  0.00    -0.155 OA 
HETATM   18  C   UNL     1     -10.329  11.427  66.841  1.00  0.00    -0.262 C  
BRANCH  18  19
HETATM   19  C   UNL     1     -11.575  11.287  67.729  1.00  0.00    -0.307 C  
BRANCH  19  20
HETATM   20  C   UNL     1     -11.382  11.755  69.148  1.00  0.00    -0.340 C  
HETATM   21  C   UNL     1     -11.672  12.959  69.665  1.00  0.00    -0.367 C  
BRANCH  21  22
HETATM   22  C   UNL     1     -12.239  14.126  68.916  1.00  0.00    -0.257 C  
BRANCH  22  23
HETATM   23  C   UNL     1     -12.003  15.455  69.632  1.00  0.00    -0.366 C  
BRANCH  23  24
HETATM   24  C   UNL     1     -11.967  15.223  71.143  1.00  0.00    -0.400 C  
HETATM   25  C   UNL     1     -13.319  15.385  71.789  1.00  0.00    -0.476 C  
HETATM   26  O   UNL     1     -14.352  15.672  71.209  1.00  0.00    -0.521 OA 
HETATM   27  O   UNL     1     -13.267  15.174  73.126  1.00  0.00    -0.470 OA 
ENDBRANCH  23  24
ENDBRANCH  22  23
ENDBRANCH  21  22
ENDBRANCH  19  20
ENDBRANCH  18  19
ENDBRANCH  10  11
ENDBRANCH   6   9
ENDBRANCH   5   6
ENDBRANCH   4   5
ENDBRANCH   3   4
ENDBRANCH   2   3
TORSDOF 11
ENDMDL
MODEL       32
REMARK 921   NORMALIZED FREE ENERGY PREDICTED BY IDOCK:   -5.66 KCAL/MOL
REMARK 922        TOTAL FREE ENERGY PREDICTED BY IDOCK:  -11.11 KCAL/MOL
REMARK 923 INTER-LIGAND FREE ENERGY PREDICTED BY IDOCK:   -9.10 KCAL/MOL
REMARK 924 INTRA-LIGAND FREE ENERGY PREDICTED BY IDOCK:   -2.01 KCAL/MOL
REMARK 927      BINDING AFFINITY PREDICTED BY RF-SCORE:    0.00 PKD
ROOT
HETATM    1  C   UNL     1     -12.348   9.695  71.671  1.00  0.00    -0.489 C  
HETATM    2  C   UNL     1     -12.749  11.045  71.108  1.00  0.00    -0.521 C  
ENDROOT
BRANCH   2   3
HETATM    3  C   UNL     1     -11.958  11.401  69.848  1.00  0.00    -0.434 C  
BRANCH   3   4
HETATM    4  C   UNL     1     -11.857  12.920  69.700  1.00  0.00    -0.387 C  
BRANCH   4   5
HETATM    5  C   UNL     1     -12.521  13.667  70.857  1.00  0.00    -0.448 C  
BRANCH   5   6
HETATM    6  C   UNL     1     -12.521  15.195  70.674  1.00  0.00    -0.388 C  
HETATM    7  O   UNL     1     -13.879  15.595  70.513  1.00  0.00    -0.818 OA 
HETATM    8  H   UNL     1     -13.880  16.538  70.400  1.00  0.00     0.000 HD 
BRANCH   6   9
HETATM    9  C   UNL     1     -11.685  15.651  69.496  1.00  0.00    -0.382 C  
HETATM   10  C   UNL     1     -10.683  16.549  69.520  1.00  0.00    -0.321 C  
BRANCH  10  11
HETATM   11  C   UNL     1      -9.997  17.116  68.294  1.00  0.00    -0.300 C  
HETATM   12  C   UNL     1      -9.980  16.054  67.174  1.00  0.00    -0.249 C  
HETATM   13  O   UNL     1      -8.955  15.090  67.371  1.00  0.00    -0.173 OA 
HETATM   14  C   UNL     1      -9.754  16.820  65.888  1.00  0.00    -0.247 C  
HETATM   15  H   UNL     1      -8.944  14.436  66.681  1.00  0.00     0.000 HD 
HETATM   16  C   UNL     1     -10.484  18.094  66.176  1.00  0.00    -0.364 C  
HETATM   17  O   UNL     1     -10.851  18.850  65.284  1.00  0.00    -0.559 OA 
HETATM   18  C   UNL     1     -10.683  18.351  67.663  1.00  0.00    -0.390 C  
BRANCH  18  19
HETATM   19  C   UNL     1      -9.995  19.652  68.105  1.00  0.00    -0.547 C  
BRANCH  19  20
HETATM   20  C   UNL     1      -8.668  19.910  67.438  1.00  0.00    -0.401 C  
HETATM   21  C   UNL     1      -7.447  19.875  67.995  1.00  0.00    -0.332 C  
BRANCH  21  22
HETATM   22  C   UNL     1      -7.142  19.592  69.434  1.00  0.00    -0.329 C  
BRANCH  22  23
HETATM   23  C   UNL     1      -6.104  18.484  69.607  1.00  0.00    -0.269 C  
BRANCH  23  24
HETATM   24  C   UNL     1      -5.899  17.762  68.275  1.00  0.00    -0.162 C  
HETATM   25  C   UNL     1      -6.276  16.304  68.340  1.00  0.00    -0.119 C  
HETATM   26  O   UNL     1      -6.700  15.724  69.325  1.00  0.00    -0.150 OA 
HETATM   27  O   UNL     1      -6.090  15.682  67.151  1.00  0.00    -0.323 OA 
ENDBRANCH  23  24
ENDBRANCH  22  23
ENDBRANCH  21  22
ENDBRANCH  19  20
ENDBRANCH  18  19
ENDBRANCH  10  11
ENDBRANCH   6   9
ENDBRANCH   5   6
ENDBRANCH   4   5
ENDBRANCH   3   4
ENDBRANCH   2   3
TORSDOF 11
ENDMDL
MODEL       33
REMARK 921   NORMALIZED FREE ENERGY PREDICTED BY IDOCK:   -5.65 KCAL/MOL
REMARK 922        TOTAL FREE ENERGY PREDICTED BY IDOCK:  -11.10 KCAL/MOL
REMARK 923 INTER-LIGAND FREE ENERGY PREDICTED BY IDOCK:   -9.60 KCAL/MOL
REMARK 924 INTRA-LIGAND FREE ENERGY PREDICTED BY IDOCK:   -1.50 KCAL/MOL
REMARK 927      BINDING AFFINITY PREDICTED BY RF-SCORE:    0.00 PKD
ROOT
HETATM    1  C   UNL     1     -12.251  13.601  65.713  1.00  0.00    -0.503 C  
HETATM    2  C   UNL     1     -12.100  13.667  64.204  1.00  0.00    -0.484 C  
ENDROOT
BRANCH   2   3
HETATM    3  C   UNL     1     -11.954  12.278  63.580  1.00  0.00    -0.633 C  
BRANCH   3   4
HETATM    4  C   UNL     1     -10.475  11.948  63.366  1.00  0.00    -0.487 C  
BRANCH   4   5
HETATM    5  C   UNL     1      -9.986  10.829  64.286  1.00  0.00    -0.403 C  
BRANCH   5   6
HETATM    6  C   UNL     1      -9.211  11.345  65.512  1.00  0.00    -0.177 C  
HETATM    7  O   UNL     1      -7.824  11.233  65.206  1.00  0.00    -0.331 OA 
HETATM    8  H   UNL     1      -7.346  11.551  65.962  1.00  0.00     0.000 HD 
BRANCH   6   9
HETATM    9  C   UNL     1      -9.543  10.591  66.783  1.00  0.00    -0.205 C  
HETATM   10  C   UNL     1     -10.656   9.877  67.028  1.00  0.00    -0.272 C  
BRANCH  10  11
HETATM   11  C   UNL     1     -11.035   9.295  68.375  1.00  0.00    -0.038 C  
HETATM   12  C   UNL     1     -10.453   7.870  68.504  1.00  0.00    -0.167 C  
HETATM   13  O   UNL     1     -11.235   6.911  67.806  1.00  0.00    -0.534 OA 
HETATM   14  C   UNL     1     -10.436   7.570  69.987  1.00  0.00    -0.231 C  
HETATM   15  H   UNL     1     -10.877   6.034  67.886  1.00  0.00     0.000 HD 
HETATM   16  C   UNL     1     -10.150   8.923  70.556  1.00  0.00    -0.205 C  
HETATM   17  O   UNL     1      -9.707   9.074  71.689  1.00  0.00    -0.300 OA 
HETATM   18  C   UNL     1     -10.493  10.061  69.604  1.00  0.00    -0.275 C  
BRANCH  18  19
HETATM   19  C   UNL     1     -11.567  10.985  70.198  1.00  0.00    -0.421 C  
BRANCH  19  20
HETATM   20  C   UNL     1     -11.558  12.386  69.642  1.00  0.00    -0.330 C  
HETATM   21  C   UNL     1     -12.181  13.470  70.131  1.00  0.00    -0.400 C  
BRANCH  21  22
HETATM   22  C   UNL     1     -13.055  13.511  71.347  1.00  0.00    -0.385 C  
BRANCH  22  23
HETATM   23  C   UNL     1     -13.836  14.818  71.465  1.00  0.00    -0.529 C  
BRANCH  23  24
HETATM   24  C   UNL     1     -13.742  15.342  72.899  1.00  0.00    -0.567 C  
HETATM   25  C   UNL     1     -12.527  16.207  73.123  1.00  0.00    -0.519 C  
HETATM   26  O   UNL     1     -11.688  16.482  72.283  1.00  0.00    -0.501 OA 
HETATM   27  O   UNL     1     -12.462  16.663  74.396  1.00  0.00    -0.708 OA 
ENDBRANCH  23  24
ENDBRANCH  22  23
ENDBRANCH  21  22
ENDBRANCH  19  20
ENDBRANCH  18  19
ENDBRANCH  10  11
ENDBRANCH   6   9
ENDBRANCH   5   6
ENDBRANCH   4   5
ENDBRANCH   3   4
ENDBRANCH   2   3
TORSDOF 11
ENDMDL
MODEL       34
REMARK 921   NORMALIZED FREE ENERGY PREDICTED BY IDOCK:   -5.63 KCAL/MOL
REMARK 922        TOTAL FREE ENERGY PREDICTED BY IDOCK:  -11.07 KCAL/MOL
REMARK 923 INTER-LIGAND FREE ENERGY PREDICTED BY IDOCK:   -9.65 KCAL/MOL
REMARK 924 INTRA-LIGAND FREE ENERGY PREDICTED BY IDOCK:   -1.42 KCAL/MOL
REMARK 927      BINDING AFFINITY PREDICTED BY RF-SCORE:    0.00 PKD
ROOT
HETATM    1  C   UNL     1      -8.463   9.115  63.194  1.00  0.00    -0.199 C  
HETATM    2  C   UNL     1      -9.320  10.367  63.242  1.00  0.00    -0.335 C  
ENDROOT
BRANCH   2   3
HETATM    3  C   UNL     1      -9.754  10.712  64.667  1.00  0.00    -0.360 C  
BRANCH   3   4
HETATM    4  C   UNL     1     -10.943  11.675  64.637  1.00  0.00    -0.363 C  
BRANCH   4   5
HETATM    5  C   UNL     1     -10.531  13.102  64.276  1.00  0.00    -0.410 C  
BRANCH   5   6
HETATM    6  C   UNL     1     -11.548  14.162  64.735  1.00  0.00    -0.396 C  
HETATM    7  O   UNL     1     -12.315  14.527  63.590  1.00  0.00    -1.064 OA 
HETATM    8  H   UNL     1     -12.942  15.181  63.874  1.00  0.00     0.000 HD 
BRANCH   6   9
HETATM    9  C   UNL     1     -10.895  15.381  65.354  1.00  0.00    -0.403 C  
HETATM   10  C   UNL     1      -9.668  15.446  65.900  1.00  0.00    -0.392 C  
BRANCH  10  11
HETATM   11  C   UNL     1      -9.124  16.629  66.675  1.00  0.00    -0.277 C  
HETATM   12  C   UNL     1      -7.760  17.050  66.087  1.00  0.00    -0.257 C  
HETATM   13  O   UNL     1      -6.707  16.204  66.528  1.00  0.00    -0.195 OA 
HETATM   14  C   UNL     1      -7.536  18.472  66.552  1.00  0.00    -0.267 C  
HETATM   15  H   UNL     1      -5.867  16.464  66.166  1.00  0.00     0.000 HD 
HETATM   16  C   UNL     1      -8.935  19.002  66.556  1.00  0.00    -0.330 C  
HETATM   17  O   UNL     1      -9.176  20.203  66.531  1.00  0.00    -0.355 OA 
HETATM   18  C   UNL     1      -9.992  17.909  66.626  1.00  0.00    -0.355 C  
BRANCH  18  19
HETATM   19  C   UNL     1     -10.854  18.042  67.891  1.00  0.00    -0.227 C  
BRANCH  19  20
HETATM   20  C   UNL     1     -10.264  17.393  69.116  1.00  0.00    -0.273 C  
HETATM   21  C   UNL     1     -10.640  16.246  69.703  1.00  0.00    -0.320 C  
BRANCH  21  22
HETATM   22  C   UNL     1     -11.768  15.362  69.267  1.00  0.00    -0.367 C  
BRANCH  22  23
HETATM   23  C   UNL     1     -12.735  15.038  70.405  1.00  0.00    -0.371 C  
BRANCH  23  24
HETATM   24  C   UNL     1     -12.219  15.657  71.705  1.00  0.00    -0.494 C  
HETATM   25  C   UNL     1     -12.825  15.022  72.931  1.00  0.00    -0.443 C  
HETATM   26  O   UNL     1     -13.640  14.116  72.932  1.00  0.00    -0.651 OA 
HETATM   27  O   UNL     1     -12.355  15.581  74.072  1.00  0.00    -0.545 OA 
ENDBRANCH  23  24
ENDBRANCH  22  23
ENDBRANCH  21  22
ENDBRANCH  19  20
ENDBRANCH  18  19
ENDBRANCH  10  11
ENDBRANCH   6   9
ENDBRANCH   5   6
ENDBRANCH   4   5
ENDBRANCH   3   4
ENDBRANCH   2   3
TORSDOF 11
ENDMDL
MODEL       35
REMARK 921   NORMALIZED FREE ENERGY PREDICTED BY IDOCK:   -5.63 KCAL/MOL
REMARK 922        TOTAL FREE ENERGY PREDICTED BY IDOCK:  -11.06 KCAL/MOL
REMARK 923 INTER-LIGAND FREE ENERGY PREDICTED BY IDOCK:   -9.25 KCAL/MOL
REMARK 924 INTRA-LIGAND FREE ENERGY PREDICTED BY IDOCK:   -1.81 KCAL/MOL
REMARK 927      BINDING AFFINITY PREDICTED BY RF-SCORE:    0.00 PKD
ROOT
HETATM    1  C   UNL     1      -8.090  10.183  65.451  1.00  0.00    -0.149 C  
HETATM    2  C   UNL     1      -9.405  10.908  65.227  1.00  0.00    -0.246 C  
ENDROOT
BRANCH   2   3
HETATM    3  C   UNL     1      -9.912  10.748  63.793  1.00  0.00    -0.411 C  
BRANCH   3   4
HETATM    4  C   UNL     1     -10.729  11.975  63.383  1.00  0.00    -0.475 C  
BRANCH   4   5
HETATM    5  C   UNL     1     -12.195  11.870  63.806  1.00  0.00    -0.549 C  
BRANCH   5   6
HETATM    6  C   UNL     1     -12.823  13.230  64.162  1.00  0.00     0.125 C  
HETATM    7  O   UNL     1     -12.353  14.170  63.200  1.00  0.00    -1.125 OA 
HETATM    8  H   UNL     1     -12.741  15.009  63.420  1.00  0.00     0.000 HD 
BRANCH   6   9
HETATM    9  C   UNL     1     -12.489  13.687  65.568  1.00  0.00    -0.544 C  
HETATM   10  C   UNL     1     -11.377  14.334  65.960  1.00  0.00    -0.335 C  
BRANCH  10  11
HETATM   11  C   UNL     1     -10.995  14.608  67.401  1.00  0.00    -0.309 C  
HETATM   12  C   UNL     1     -10.695  16.112  67.579  1.00  0.00    -0.304 C  
HETATM   13  O   UNL     1      -9.398  16.454  67.111  1.00  0.00    -0.214 OA 
HETATM   14  C   UNL     1     -10.816  16.379  69.064  1.00  0.00    -0.331 C  
HETATM   15  H   UNL     1      -9.214  17.380  67.221  1.00  0.00     0.000 HD 
HETATM   16  C   UNL     1     -11.908  15.429  69.443  1.00  0.00    -0.351 C  
HETATM   17  O   UNL     1     -12.560  15.564  70.472  1.00  0.00    -0.418 OA 
HETATM   18  C   UNL     1     -12.090  14.292  68.448  1.00  0.00    -0.297 C  
BRANCH  18  19
HETATM   19  C   UNL     1     -11.846  12.925  69.107  1.00  0.00    -0.353 C  
BRANCH  19  20
HETATM   20  C   UNL     1     -10.540  12.276  68.727  1.00  0.00    -0.223 C  
HETATM   21  C   UNL     1     -10.200  10.983  68.842  1.00  0.00    -0.218 C  
BRANCH  21  22
HETATM   22  C   UNL     1     -11.057   9.893  69.407  1.00  0.00    -0.237 C  
BRANCH  22  23
HETATM   23  C   UNL     1     -10.982   9.817  70.932  1.00  0.00    -0.411 C  
BRANCH  23  24
HETATM   24  C   UNL     1     -12.128   8.951  71.457  1.00  0.00    -0.395 C  
HETATM   25  C   UNL     1     -13.236   9.766  72.075  1.00  0.00    -0.460 C  
HETATM   26  O   UNL     1     -13.256  10.981  72.168  1.00  0.00    -0.481 OA 
HETATM   27  O   UNL     1     -14.243   8.983  72.532  1.00  0.00    -0.537 OA 
ENDBRANCH  23  24
ENDBRANCH  22  23
ENDBRANCH  21  22
ENDBRANCH  19  20
ENDBRANCH  18  19
ENDBRANCH  10  11
ENDBRANCH   6   9
ENDBRANCH   5   6
ENDBRANCH   4   5
ENDBRANCH   3   4
ENDBRANCH   2   3
TORSDOF 11
ENDMDL
MODEL       36
REMARK 921   NORMALIZED FREE ENERGY PREDICTED BY IDOCK:   -5.61 KCAL/MOL
REMARK 922        TOTAL FREE ENERGY PREDICTED BY IDOCK:  -11.03 KCAL/MOL
REMARK 923 INTER-LIGAND FREE ENERGY PREDICTED BY IDOCK:   -8.84 KCAL/MOL
REMARK 924 INTRA-LIGAND FREE ENERGY PREDICTED BY IDOCK:   -2.19 KCAL/MOL
REMARK 927      BINDING AFFINITY PREDICTED BY RF-SCORE:    0.00 PKD
ROOT
HETATM    1  C   UNL     1     -10.919  15.315  65.009  1.00  0.00    -0.450 C  
HETATM    2  C   UNL     1     -11.793  14.487  65.932  1.00  0.00    -0.334 C  
ENDROOT
BRANCH   2   3
HETATM    3  C   UNL     1     -12.751  13.581  65.158  1.00  0.00    -0.453 C  
BRANCH   3   4
HETATM    4  C   UNL     1     -12.290  13.444  63.705  1.00  0.00    -0.418 C  
BRANCH   4   5
HETATM    5  C   UNL     1     -11.830  12.025  63.368  1.00  0.00    -0.542 C  
BRANCH   5   6
HETATM    6  C   UNL     1     -10.320  11.812  63.572  1.00  0.00    -0.448 C  
HETATM    7  O   UNL     1      -9.913  10.801  62.653  1.00  0.00    -0.633 OA 
HETATM    8  H   UNL     1      -8.982  10.670  62.779  1.00  0.00     0.000 HD 
BRANCH   6   9
HETATM    9  C   UNL     1      -9.962  11.422  64.992  1.00  0.00    -0.312 C  
HETATM   10  C   UNL     1     -10.724  10.718  65.848  1.00  0.00    -0.143 C  
BRANCH  10  11
HETATM   11  C   UNL     1     -10.412  10.509  67.317  1.00  0.00    -0.300 C  
HETATM   12  C   UNL     1      -9.927   9.060  67.541  1.00  0.00    -0.207 C  
HETATM   13  O   UNL     1     -11.007   8.138  67.581  1.00  0.00    -0.508 OA 
HETATM   14  C   UNL     1      -9.189   9.077  68.862  1.00  0.00    -0.140 C  
HETATM   15  H   UNL     1     -10.709   7.247  67.719  1.00  0.00     0.000 HD 
HETATM   16  C   UNL     1      -8.579  10.443  68.837  1.00  0.00    -0.149 C  
HETATM   17  O   UNL     1      -7.621  10.742  69.542  1.00  0.00    -0.141 OA 
HETATM   18  C   UNL     1      -9.284  11.401  67.888  1.00  0.00    -0.164 C  
BRANCH  18  19
HETATM   19  C   UNL     1      -9.862  12.611  68.638  1.00  0.00    -0.077 C  
BRANCH  19  20
HETATM   20  C   UNL     1     -11.185  12.350  69.311  1.00  0.00    -0.264 C  
HETATM   21  C   UNL     1     -12.033  13.248  69.837  1.00  0.00    -0.400 C  
BRANCH  21  22
HETATM   22  C   UNL     1     -11.825  14.731  69.888  1.00  0.00    -0.364 C  
BRANCH  22  23
HETATM   23  C   UNL     1     -11.203  15.192  71.205  1.00  0.00    -0.326 C  
BRANCH  23  24
HETATM   24  C   UNL     1     -12.155  16.160  71.910  1.00  0.00    -0.548 C  
HETATM   25  C   UNL     1     -13.126  15.458  72.824  1.00  0.00    -0.466 C  
HETATM   26  O   UNL     1     -13.183  14.254  73.009  1.00  0.00    -0.554 OA 
HETATM   27  O   UNL     1     -13.960  16.330  73.440  1.00  0.00    -0.500 OA 
ENDBRANCH  23  24
ENDBRANCH  22  23
ENDBRANCH  21  22
ENDBRANCH  19  20
ENDBRANCH  18  19
ENDBRANCH  10  11
ENDBRANCH   6   9
ENDBRANCH   5   6
ENDBRANCH   4   5
ENDBRANCH   3   4
ENDBRANCH   2   3
TORSDOF 11
ENDMDL
MODEL       37
REMARK 921   NORMALIZED FREE ENERGY PREDICTED BY IDOCK:   -5.60 KCAL/MOL
REMARK 922        TOTAL FREE ENERGY PREDICTED BY IDOCK:  -11.02 KCAL/MOL
REMARK 923 INTER-LIGAND FREE ENERGY PREDICTED BY IDOCK:   -9.05 KCAL/MOL
REMARK 924 INTRA-LIGAND FREE ENERGY PREDICTED BY IDOCK:   -1.97 KCAL/MOL
REMARK 927      BINDING AFFINITY PREDICTED BY RF-SCORE:    0.00 PKD
ROOT
HETATM    1  C   UNL     1      -8.406  10.110  65.570  1.00  0.00    -0.160 C  
HETATM    2  C   UNL     1      -9.775  10.076  64.917  1.00  0.00    -0.377 C  
ENDROOT
BRANCH   2   3
HETATM    3  C   UNL     1      -9.767  10.719  63.529  1.00  0.00    -0.387 C  
BRANCH   3   4
HETATM    4  C   UNL     1     -10.456  12.085  63.577  1.00  0.00    -0.505 C  
BRANCH   4   5
HETATM    5  C   UNL     1     -11.908  11.992  64.047  1.00  0.00    -0.500 C  
BRANCH   5   6
HETATM    6  C   UNL     1     -12.202  12.861  65.283  1.00  0.00    -0.476 C  
HETATM    7  O   UNL     1     -13.090  13.895  64.864  1.00  0.00    -0.704 OA 
HETATM    8  H   UNL     1     -13.271  14.431  65.626  1.00  0.00     0.000 HD 
BRANCH   6   9
HETATM    9  C   UNL     1     -10.953  13.447  65.907  1.00  0.00    -0.284 C  
HETATM   10  C   UNL     1     -10.427  13.130  67.104  1.00  0.00    -0.247 C  
BRANCH  10  11
HETATM   11  C   UNL     1      -9.287  13.870  67.774  1.00  0.00    -0.204 C  
HETATM   12  C   UNL     1      -8.038  12.962  67.820  1.00  0.00    -0.166 C  
HETATM   13  O   UNL     1      -8.112  12.008  68.870  1.00  0.00    -0.329 OA 
HETATM   14  C   UNL     1      -6.864  13.893  68.024  1.00  0.00    -0.146 C  
HETATM   15  H   UNL     1      -7.344  11.450  68.898  1.00  0.00     0.000 HD 
HETATM   16  C   UNL     1      -7.311  15.100  67.261  1.00  0.00    -0.181 C  
HETATM   17  O   UNL     1      -6.523  15.954  66.872  1.00  0.00    -0.294 OA 
HETATM   18  C   UNL     1      -8.818  15.157  67.055  1.00  0.00    -0.258 C  
BRANCH  18  19
HETATM   19  C   UNL     1      -9.426  16.408  67.709  1.00  0.00    -0.222 C  
BRANCH  19  20
HETATM   20  C   UNL     1      -9.499  16.349  69.213  1.00  0.00    -0.182 C  
HETATM   21  C   UNL     1     -10.559  16.032  69.974  1.00  0.00    -0.297 C  
BRANCH  21  22
HETATM   22  C   UNL     1     -11.928  15.685  69.477  1.00  0.00    -0.363 C  
BRANCH  22  23
HETATM   23  C   UNL     1     -12.903  15.369  70.611  1.00  0.00    -0.484 C  
BRANCH  23  24
HETATM   24  C   UNL     1     -12.219  15.617  71.957  1.00  0.00    -0.521 C  
HETATM   25  C   UNL     1     -12.809  14.788  73.069  1.00  0.00    -0.485 C  
HETATM   26  O   UNL     1     -13.730  13.998  72.954  1.00  0.00    -0.677 OA 
HETATM   27  O   UNL     1     -12.190  15.019  74.252  1.00  0.00    -0.604 OA 
ENDBRANCH  23  24
ENDBRANCH  22  23
ENDBRANCH  21  22
ENDBRANCH  19  20
ENDBRANCH  18  19
ENDBRANCH  10  11
ENDBRANCH   6   9
ENDBRANCH   5   6
ENDBRANCH   4   5
ENDBRANCH   3   4
ENDBRANCH   2   3
TORSDOF 11
ENDMDL
MODEL       38
REMARK 921   NORMALIZED FREE ENERGY PREDICTED BY IDOCK:   -5.60 KCAL/MOL
REMARK 922        TOTAL FREE ENERGY PREDICTED BY IDOCK:  -11.01 KCAL/MOL
REMARK 923 INTER-LIGAND FREE ENERGY PREDICTED BY IDOCK:   -9.04 KCAL/MOL
REMARK 924 INTRA-LIGAND FREE ENERGY PREDICTED BY IDOCK:   -1.97 KCAL/MOL
REMARK 927      BINDING AFFINITY PREDICTED BY RF-SCORE:    0.00 PKD
ROOT
HETATM    1  C   UNL     1     -12.105   8.280  72.305  1.00  0.00    -0.439 C  
HETATM    2  C   UNL     1     -11.925   9.624  71.624  1.00  0.00    -0.470 C  
ENDROOT
BRANCH   2   3
HETATM    3  C   UNL     1     -13.176  10.497  71.736  1.00  0.00    -0.522 C  
BRANCH   3   4
HETATM    4  C   UNL     1     -12.791  11.977  71.695  1.00  0.00    -0.399 C  
BRANCH   4   5
HETATM    5  C   UNL     1     -12.224  12.397  70.338  1.00  0.00    -0.370 C  
BRANCH   5   6
HETATM    6  C   UNL     1     -12.224  13.921  70.125  1.00  0.00    -0.358 C  
HETATM    7  O   UNL     1     -13.480  14.407  70.591  1.00  0.00    -0.443 OA 
HETATM    8  H   UNL     1     -13.480  15.347  70.459  1.00  0.00     0.000 HD 
BRANCH   6   9
HETATM    9  C   UNL     1     -11.997  14.318  68.681  1.00  0.00    -0.348 C  
HETATM   10  C   UNL     1     -11.938  13.493  67.620  1.00  0.00    -0.373 C  
BRANCH  10  11
HETATM   11  C   UNL     1     -11.524  13.906  66.222  1.00  0.00    -0.347 C  
HETATM   12  C   UNL     1     -12.767  13.949  65.306  1.00  0.00    -0.449 C  
HETATM   13  O   UNL     1     -13.152  12.653  64.871  1.00  0.00    -0.850 OA 
HETATM   14  C   UNL     1     -12.376  14.816  64.129  1.00  0.00    -0.259 C  
HETATM   15  H   UNL     1     -13.916  12.680  64.307  1.00  0.00     0.000 HD 
HETATM   16  C   UNL     1     -11.466  15.806  64.784  1.00  0.00    -0.255 C  
HETATM   17  O   UNL     1     -11.205  16.889  64.272  1.00  0.00    -1.204 OA 
HETATM   18  C   UNL     1     -10.894  15.315  66.106  1.00  0.00    -0.320 C  
BRANCH  18  19
HETATM   19  C   UNL     1      -9.360  15.232  66.057  1.00  0.00    -0.346 C  
BRANCH  19  20
HETATM   20  C   UNL     1      -8.702  15.103  67.407  1.00  0.00    -0.205 C  
HETATM   21  C   UNL     1      -8.228  13.991  67.989  1.00  0.00    -0.155 C  
BRANCH  21  22
HETATM   22  C   UNL     1      -8.278  12.607  67.417  1.00  0.00    -0.184 C  
BRANCH  22  23
HETATM   23  C   UNL     1      -8.504  11.537  68.485  1.00  0.00    -0.143 C  
BRANCH  23  24
HETATM   24  C   UNL     1      -9.232  10.343  67.866  1.00  0.00    -0.143 C  
HETATM   25  C   UNL     1      -9.337   9.173  68.810  1.00  0.00    -0.139 C  
HETATM   26  O   UNL     1      -8.902   9.139  69.948  1.00  0.00    -0.143 OA 
HETATM   27  O   UNL     1      -9.986   8.127  68.246  1.00  0.00    -0.174 OA 
ENDBRANCH  23  24
ENDBRANCH  22  23
ENDBRANCH  21  22
ENDBRANCH  19  20
ENDBRANCH  18  19
ENDBRANCH  10  11
ENDBRANCH   6   9
ENDBRANCH   5   6
ENDBRANCH   4   5
ENDBRANCH   3   4
ENDBRANCH   2   3
TORSDOF 11
ENDMDL
MODEL       39
REMARK 921   NORMALIZED FREE ENERGY PREDICTED BY IDOCK:   -5.60 KCAL/MOL
REMARK 922        TOTAL FREE ENERGY PREDICTED BY IDOCK:  -11.01 KCAL/MOL
REMARK 923 INTER-LIGAND FREE ENERGY PREDICTED BY IDOCK:   -9.78 KCAL/MOL
REMARK 924 INTRA-LIGAND FREE ENERGY PREDICTED BY IDOCK:   -1.23 KCAL/MOL
REMARK 927      BINDING AFFINITY PREDICTED BY RF-SCORE:    0.00 PKD
ROOT
HETATM    1  C   UNL     1     -14.411   8.020  71.528  1.00  0.00    -0.546 C  
HETATM    2  C   UNL     1     -13.660   9.186  72.144  1.00  0.00    -0.534 C  
ENDROOT
BRANCH   2   3
HETATM    3  C   UNL     1     -12.835   9.950  71.107  1.00  0.00    -0.461 C  
BRANCH   3   4
HETATM    4  C   UNL     1     -12.869  11.450  71.408  1.00  0.00    -0.502 C  
BRANCH   4   5
HETATM    5  C   UNL     1     -12.084  12.270  70.384  1.00  0.00    -0.385 C  
BRANCH   5   6
HETATM    6  C   UNL     1     -11.505  11.420  69.239  1.00  0.00    -0.303 C  
HETATM    7  O   UNL     1     -10.155  11.119  69.585  1.00  0.00    -0.432 OA 
HETATM    8  H   UNL     1      -9.798  10.594  68.879  1.00  0.00     0.000 HD 
BRANCH   6   9
HETATM    9  C   UNL     1     -11.572  12.111  67.893  1.00  0.00    -0.413 C  
HETATM   10  C   UNL     1     -10.894  11.776  66.782  1.00  0.00    -0.312 C  
BRANCH  10  11
HETATM   11  C   UNL     1     -10.845  12.602  65.512  1.00  0.00    -0.310 C  
HETATM   12  C   UNL     1     -11.609  11.867  64.388  1.00  0.00    -0.292 C  
HETATM   13  O   UNL     1     -10.832  10.828  63.809  1.00  0.00    -0.490 OA 
HETATM   14  C   UNL     1     -11.938  12.927  63.359  1.00  0.00    -0.612 C  
HETATM   15  H   UNL     1     -11.302  10.377  63.118  1.00  0.00     0.000 HD 
HETATM   16  C   UNL     1     -12.160  14.122  64.231  1.00  0.00    -0.444 C  
HETATM   17  O   UNL     1     -12.785  15.103  63.845  1.00  0.00    -0.759 OA 
HETATM   18  C   UNL     1     -11.511  13.996  65.603  1.00  0.00    -0.319 C  
BRANCH  18  19
HETATM   19  C   UNL     1     -10.463  15.096  65.831  1.00  0.00    -0.350 C  
BRANCH  19  20
HETATM   20  C   UNL     1     -10.207  15.419  67.281  1.00  0.00    -0.254 C  
HETATM   21  C   UNL     1     -10.496  16.555  67.934  1.00  0.00    -0.313 C  
BRANCH  21  22
HETATM   22  C   UNL     1     -11.124  17.778  67.340  1.00  0.00     0.105 C  
BRANCH  22  23
HETATM   23  C   UNL     1     -10.294  19.039  67.575  1.00  0.00    -0.503 C  
BRANCH  23  24
HETATM   24  C   UNL     1      -9.413  19.307  66.354  1.00  0.00    -0.411 C  
HETATM   25  C   UNL     1      -7.980  18.893  66.569  1.00  0.00    -0.277 C  
HETATM   26  O   UNL     1      -7.530  18.399  67.589  1.00  0.00    -0.220 OA 
HETATM   27  O   UNL     1      -7.216  19.135  65.477  1.00  0.00    -0.443 OA 
ENDBRANCH  23  24
ENDBRANCH  22  23
ENDBRANCH  21  22
ENDBRANCH  19  20
ENDBRANCH  18  19
ENDBRANCH  10  11
ENDBRANCH   6   9
ENDBRANCH   5   6
ENDBRANCH   4   5
ENDBRANCH   3   4
ENDBRANCH   2   3
TORSDOF 11
ENDMDL
MODEL       40
REMARK 921   NORMALIZED FREE ENERGY PREDICTED BY IDOCK:   -5.59 KCAL/MOL
REMARK 922        TOTAL FREE ENERGY PREDICTED BY IDOCK:  -11.00 KCAL/MOL
REMARK 923 INTER-LIGAND FREE ENERGY PREDICTED BY IDOCK:   -9.56 KCAL/MOL
REMARK 924 INTRA-LIGAND FREE ENERGY PREDICTED BY IDOCK:   -1.44 KCAL/MOL
REMARK 927      BINDING AFFINITY PREDICTED BY RF-SCORE:    0.00 PKD
ROOT
HETATM    1  C   UNL     1     -10.635  10.263  66.903  1.00  0.00    -0.282 C  
HETATM    2  C   UNL     1      -9.613   9.782  65.890  1.00  0.00    -0.313 C  
ENDROOT
BRANCH   2   3
HETATM    3  C   UNL     1      -9.911  10.301  64.482  1.00  0.00    -0.384 C  
BRANCH   3   4
HETATM    4  C   UNL     1     -10.147  11.812  64.516  1.00  0.00    -0.312 C  
BRANCH   4   5
HETATM    5  C   UNL     1     -11.463  12.213  63.848  1.00  0.00    -0.519 C  
BRANCH   5   6
HETATM    6  C   UNL     1     -12.143  13.419  64.521  1.00  0.00    -0.409 C  
HETATM    7  O   UNL     1     -12.426  14.365  63.494  1.00  0.00    -1.102 OA 
HETATM    8  H   UNL     1     -12.846  15.109  63.910  1.00  0.00     0.000 HD 
BRANCH   6   9
HETATM    9  C   UNL     1     -11.295  14.046  65.610  1.00  0.00    -0.313 C  
HETATM   10  C   UNL     1     -11.449  13.893  66.937  1.00  0.00    -0.370 C  
BRANCH  10  11
HETATM   11  C   UNL     1     -10.702  14.682  67.993  1.00  0.00    -0.246 C  
HETATM   12  C   UNL     1      -9.298  15.050  67.467  1.00  0.00    -0.195 C  
HETATM   13  O   UNL     1      -8.392  13.959  67.561  1.00  0.00    -0.170 OA 
HETATM   14  C   UNL     1      -8.832  16.208  68.322  1.00  0.00    -0.188 C  
HETATM   15  H   UNL     1      -7.528  14.186  67.237  1.00  0.00     0.000 HD 
HETATM   16  C   UNL     1     -10.123  16.918  68.581  1.00  0.00    -0.291 C  
HETATM   17  O   UNL     1     -10.162  18.091  68.935  1.00  0.00    -0.379 OA 
HETATM   18  C   UNL     1     -11.346  16.032  68.391  1.00  0.00    -0.355 C  
BRANCH  18  19
HETATM   19  C   UNL     1     -12.151  15.898  69.693  1.00  0.00    -0.216 C  
BRANCH  19  20
HETATM   20  C   UNL     1     -11.308  15.695  70.926  1.00  0.00    -0.417 C  
HETATM   21  C   UNL     1     -11.725  15.416  72.171  1.00  0.00    -0.551 C  
BRANCH  21  22
HETATM   22  C   UNL     1     -13.149  15.270  72.612  1.00  0.00    -0.526 C  
BRANCH  22  23
HETATM   23  C   UNL     1     -13.927  14.267  71.762  1.00  0.00    -0.526 C  
BRANCH  23  24
HETATM   24  C   UNL     1     -13.672  12.851  72.280  1.00  0.00    -0.553 C  
HETATM   25  C   UNL     1     -12.802  12.041  71.352  1.00  0.00    -0.288 C  
HETATM   26  O   UNL     1     -12.335  12.431  70.296  1.00  0.00    -0.275 OA 
HETATM   27  O   UNL     1     -12.584  10.791  71.828  1.00  0.00    -0.376 OA 
ENDBRANCH  23  24
ENDBRANCH  22  23
ENDBRANCH  21  22
ENDBRANCH  19  20
ENDBRANCH  18  19
ENDBRANCH  10  11
ENDBRANCH   6   9
ENDBRANCH   5   6
ENDBRANCH   4   5
ENDBRANCH   3   4
ENDBRANCH   2   3
TORSDOF 11
ENDMDL
MODEL       41
REMARK 921   NORMALIZED FREE ENERGY PREDICTED BY IDOCK:   -5.58 KCAL/MOL
REMARK 922        TOTAL FREE ENERGY PREDICTED BY IDOCK:  -10.99 KCAL/MOL
REMARK 923 INTER-LIGAND FREE ENERGY PREDICTED BY IDOCK:   -9.44 KCAL/MOL
REMARK 924 INTRA-LIGAND FREE ENERGY PREDICTED BY IDOCK:   -1.55 KCAL/MOL
REMARK 927      BINDING AFFINITY PREDICTED BY RF-SCORE:    0.00 PKD
ROOT
HETATM    1  C   UNL     1     -12.072  12.572  63.300  1.00  0.00    -0.525 C  
HETATM    2  C   UNL     1     -12.379  13.339  64.573  1.00  0.00    -0.428 C  
ENDROOT
BRANCH   2   3
HETATM    3  C   UNL     1     -11.344  13.076  65.668  1.00  0.00    -0.330 C  
BRANCH   3   4
HETATM    4  C   UNL     1     -11.916  12.121  66.717  1.00  0.00    -0.170 C  
BRANCH   4   5
HETATM    5  C   UNL     1     -10.872  11.136  67.244  1.00  0.00    -0.326 C  
BRANCH   5   6
HETATM    6  C   UNL     1     -10.804  11.087  68.781  1.00  0.00    -0.210 C  
HETATM    7  O   UNL     1     -11.578   9.966  69.197  1.00  0.00    -0.467 OA 
HETATM    8  H   UNL     1     -11.535   9.935  70.145  1.00  0.00     0.000 HD 
BRANCH   6   9
HETATM    9  C   UNL     1     -11.303  12.358  69.437  1.00  0.00    -0.286 C  
HETATM   10  C   UNL     1     -12.162  12.446  70.469  1.00  0.00    -0.382 C  
BRANCH  10  11
HETATM   11  C   UNL     1     -12.781  13.733  70.974  1.00  0.00    -0.416 C  
HETATM   12  C   UNL     1     -13.108  13.594  72.477  1.00  0.00    -0.388 C  
HETATM   13  O   UNL     1     -14.308  12.864  72.695  1.00  0.00    -0.627 OA 
HETATM   14  C   UNL     1     -13.240  15.008  72.999  1.00  0.00    -0.596 C  
HETATM   15  H   UNL     1     -14.509  12.778  73.620  1.00  0.00     0.000 HD 
HETATM   16  C   UNL     1     -12.227  15.723  72.163  1.00  0.00    -0.464 C  
HETATM   17  O   UNL     1     -11.758  16.807  72.492  1.00  0.00    -0.421 OA 
HETATM   18  C   UNL     1     -11.879  14.986  70.877  1.00  0.00    -0.376 C  
BRANCH  18  19
HETATM   19  C   UNL     1     -12.229  15.824  69.637  1.00  0.00    -0.207 C  
BRANCH  19  20
HETATM   20  C   UNL     1     -11.173  15.814  68.562  1.00  0.00    -0.354 C  
HETATM   21  C   UNL     1     -10.150  16.668  68.403  1.00  0.00    -0.268 C  
BRANCH  21  22
HETATM   22  C   UNL     1      -9.850  17.853  69.268  1.00  0.00    -0.049 C  
BRANCH  22  23
HETATM   23  C   UNL     1      -9.772  19.156  68.474  1.00  0.00    -0.467 C  
BRANCH  23  24
HETATM   24  C   UNL     1     -10.813  19.135  67.354  1.00  0.00    -0.533 C  
HETATM   25  C   UNL     1     -10.202  19.329  65.989  1.00  0.00    -0.435 C  
HETATM   26  O   UNL     1      -9.016  19.489  65.760  1.00  0.00    -0.381 OA 
HETATM   27  O   UNL     1     -11.138  19.305  65.010  1.00  0.00    -0.337 OA 
ENDBRANCH  23  24
ENDBRANCH  22  23
ENDBRANCH  21  22
ENDBRANCH  19  20
ENDBRANCH  18  19
ENDBRANCH  10  11
ENDBRANCH   6   9
ENDBRANCH   5   6
ENDBRANCH   4   5
ENDBRANCH   3   4
ENDBRANCH   2   3
TORSDOF 11
ENDMDL
MODEL       42
REMARK 921   NORMALIZED FREE ENERGY PREDICTED BY IDOCK:   -5.58 KCAL/MOL
REMARK 922        TOTAL FREE ENERGY PREDICTED BY IDOCK:  -10.99 KCAL/MOL
REMARK 923 INTER-LIGAND FREE ENERGY PREDICTED BY IDOCK:   -8.93 KCAL/MOL
REMARK 924 INTRA-LIGAND FREE ENERGY PREDICTED BY IDOCK:   -2.06 KCAL/MOL
REMARK 927      BINDING AFFINITY PREDICTED BY RF-SCORE:    0.00 PKD
ROOT
HETATM    1  C   UNL     1      -9.723   4.331  69.926  1.00  0.00    -0.291 C  
HETATM    2  C   UNL     1     -10.548   5.506  70.419  1.00  0.00    -0.350 C  
ENDROOT
BRANCH   2   3
HETATM    3  C   UNL     1     -11.224   6.256  69.271  1.00  0.00    -0.458 C  
BRANCH   3   4
HETATM    4  C   UNL     1     -10.359   6.182  68.011  1.00  0.00    -0.245 C  
BRANCH   4   5
HETATM    5  C   UNL     1     -10.562   7.386  67.090  1.00  0.00    -0.413 C  
BRANCH   5   6
HETATM    6  C   UNL     1      -9.301   8.254  66.937  1.00  0.00    -0.176 C  
HETATM    7  O   UNL     1      -8.613   8.213  68.185  1.00  0.00    -0.128 OA 
HETATM    8  H   UNL     1      -7.835   8.749  68.091  1.00  0.00     0.000 HD 
BRANCH   6   9
HETATM    9  C   UNL     1      -9.609   9.683  66.540  1.00  0.00    -0.252 C  
HETATM   10  C   UNL     1     -10.623  10.101  65.763  1.00  0.00    -0.017 C  
BRANCH  10  11
HETATM   11  C   UNL     1     -10.788  11.513  65.236  1.00  0.00    -0.319 C  
HETATM   12  C   UNL     1     -11.424  11.468  63.830  1.00  0.00    -0.286 C  
HETATM   13  O   UNL     1     -10.472  11.144  62.826  1.00  0.00    -0.716 OA 
HETATM   14  C   UNL     1     -11.998  12.849  63.598  1.00  0.00    -0.613 C  
HETATM   15  H   UNL     1     -10.864  11.117  61.960  1.00  0.00     0.000 HD 
HETATM   16  C   UNL     1     -12.429  13.222  64.981  1.00  0.00    -0.443 C  
HETATM   17  O   UNL     1     -13.254  14.104  65.191  1.00  0.00    -0.743 OA 
HETATM   18  C   UNL     1     -11.721  12.425  66.068  1.00  0.00    -0.469 C  
BRANCH  18  19
HETATM   19  C   UNL     1     -10.912  13.341  66.999  1.00  0.00    -0.291 C  
BRANCH  19  20
HETATM   20  C   UNL     1     -11.564  13.604  68.332  1.00  0.00    -0.377 C  
HETATM   21  C   UNL     1     -12.013  12.705  69.220  1.00  0.00    -0.301 C  
BRANCH  21  22
HETATM   22  C   UNL     1     -11.983  11.216  69.059  1.00  0.00    -0.389 C  
BRANCH  22  23
HETATM   23  C   UNL     1     -10.791  10.572  69.766  1.00  0.00    -0.335 C  
BRANCH  23  24
HETATM   24  C   UNL     1     -11.276   9.827  71.011  1.00  0.00    -0.451 C  
HETATM   25  C   UNL     1     -10.223   8.918  71.591  1.00  0.00    -0.345 C  
HETATM   26  O   UNL     1      -9.098   8.762  71.148  1.00  0.00    -0.183 OA 
HETATM   27  O   UNL     1     -10.669   8.268  72.693  1.00  0.00    -0.343 OA 
ENDBRANCH  23  24
ENDBRANCH  22  23
ENDBRANCH  21  22
ENDBRANCH  19  20
ENDBRANCH  18  19
ENDBRANCH  10  11
ENDBRANCH   6   9
ENDBRANCH   5   6
ENDBRANCH   4   5
ENDBRANCH   3   4
ENDBRANCH   2   3
TORSDOF 11
ENDMDL
MODEL       43
REMARK 921   NORMALIZED FREE ENERGY PREDICTED BY IDOCK:   -5.58 KCAL/MOL
REMARK 922        TOTAL FREE ENERGY PREDICTED BY IDOCK:  -10.98 KCAL/MOL
REMARK 923 INTER-LIGAND FREE ENERGY PREDICTED BY IDOCK:   -9.19 KCAL/MOL
REMARK 924 INTRA-LIGAND FREE ENERGY PREDICTED BY IDOCK:   -1.79 KCAL/MOL
REMARK 927      BINDING AFFINITY PREDICTED BY RF-SCORE:    0.00 PKD
ROOT
HETATM    1  C   UNL     1     -12.141  13.086  64.002  1.00  0.00    -0.519 C  
HETATM    2  C   UNL     1     -12.582  14.072  65.068  1.00  0.00    -0.416 C  
ENDROOT
BRANCH   2   3
HETATM    3  C   UNL     1     -11.491  14.316  66.111  1.00  0.00    -0.357 C  
BRANCH   3   4
HETATM    4  C   UNL     1     -12.077  14.220  67.521  1.00  0.00    -0.347 C  
BRANCH   4   5
HETATM    5  C   UNL     1     -11.404  13.136  68.363  1.00  0.00    -0.324 C  
BRANCH   5   6
HETATM    6  C   UNL     1     -12.134  12.854  69.687  1.00  0.00    -0.226 C  
HETATM    7  O   UNL     1     -11.570  13.720  70.668  1.00  0.00    -0.515 OA 
HETATM    8  H   UNL     1     -12.021  13.546  71.485  1.00  0.00     0.000 HD 
BRANCH   6   9
HETATM    9  C   UNL     1     -12.030  11.407  70.126  1.00  0.00    -0.460 C  
HETATM   10  C   UNL     1     -12.615  10.849  71.200  1.00  0.00    -0.532 C  
BRANCH  10  11
HETATM   11  C   UNL     1     -12.336   9.449  71.710  1.00  0.00    -0.471 C  
HETATM   12  C   UNL     1     -13.660   8.658  71.797  1.00  0.00    -0.403 C  
HETATM   13  O   UNL     1     -14.405   8.994  72.959  1.00  0.00    -1.108 OA 
HETATM   14  C   UNL     1     -13.262   7.198  71.820  1.00  0.00    -0.355 C  
HETATM   15  H   UNL     1     -15.219   8.507  73.013  1.00  0.00     0.000 HD 
HETATM   16  C   UNL     1     -12.053   7.211  70.940  1.00  0.00    -0.326 C  
HETATM   17  O   UNL     1     -11.624   6.195  70.406  1.00  0.00    -0.343 OA 
HETATM   18  C   UNL     1     -11.415   8.588  70.813  1.00  0.00    -0.281 C  
BRANCH  18  19
HETATM   19  C   UNL     1      -9.972   8.589  71.340  1.00  0.00    -0.301 C  
BRANCH  19  20
HETATM   20  C   UNL     1      -8.989   9.317  70.460  1.00  0.00    -0.296 C  
HETATM   21  C   UNL     1      -8.693   9.067  69.175  1.00  0.00    -0.135 C  
BRANCH  21  22
HETATM   22  C   UNL     1      -9.272   7.971  68.334  1.00  0.00    -0.135 C  
BRANCH  22  23
HETATM   23  C   UNL     1     -10.303   8.483  67.329  1.00  0.00    -0.372 C  
BRANCH  23  24
HETATM   24  C   UNL     1     -10.090   9.980  67.096  1.00  0.00    -0.265 C  
HETATM   25  C   UNL     1      -9.619  10.289  65.698  1.00  0.00    -0.232 C  
HETATM   26  O   UNL     1      -9.416   9.468  64.820  1.00  0.00    -0.242 OA 
HETATM   27  O   UNL     1      -9.439  11.618  65.509  1.00  0.00    -0.229 OA 
ENDBRANCH  23  24
ENDBRANCH  22  23
ENDBRANCH  21  22
ENDBRANCH  19  20
ENDBRANCH  18  19
ENDBRANCH  10  11
ENDBRANCH   6   9
ENDBRANCH   5   6
ENDBRANCH   4   5
ENDBRANCH   3   4
ENDBRANCH   2   3
TORSDOF 11
ENDMDL
MODEL       44
REMARK 921   NORMALIZED FREE ENERGY PREDICTED BY IDOCK:   -5.56 KCAL/MOL
REMARK 922        TOTAL FREE ENERGY PREDICTED BY IDOCK:  -10.96 KCAL/MOL
REMARK 923 INTER-LIGAND FREE ENERGY PREDICTED BY IDOCK:   -8.64 KCAL/MOL
REMARK 924 INTRA-LIGAND FREE ENERGY PREDICTED BY IDOCK:   -2.31 KCAL/MOL
REMARK 927      BINDING AFFINITY PREDICTED BY RF-SCORE:    0.00 PKD
ROOT
HETATM    1  C   UNL     1      -9.315  10.337  62.973  1.00  0.00    -0.338 C  
HETATM    2  C   UNL     1      -9.758  10.823  64.341  1.00  0.00    -0.356 C  
ENDROOT
BRANCH   2   3
HETATM    3  C   UNL     1     -10.979  11.742  64.257  1.00  0.00    -0.419 C  
BRANCH   3   4
HETATM    4  C   UNL     1     -10.556  13.200  64.445  1.00  0.00    -0.441 C  
BRANCH   4   5
HETATM    5  C   UNL     1     -11.740  14.165  64.385  1.00  0.00    -0.409 C  
BRANCH   5   6
HETATM    6  C   UNL     1     -11.408  15.568  64.923  1.00  0.00    -0.335 C  
HETATM    7  O   UNL     1     -11.432  16.458  63.810  1.00  0.00    -1.590 OA 
HETATM    8  H   UNL     1     -11.227  17.324  64.142  1.00  0.00     0.000 HD 
BRANCH   6   9
HETATM    9  C   UNL     1     -10.070  15.631  65.631  1.00  0.00    -0.395 C  
HETATM   10  C   UNL     1      -9.582  16.664  66.340  1.00  0.00    -0.308 C  
BRANCH  10  11
HETATM   11  C   UNL     1      -8.167  16.760  66.874  1.00  0.00    -0.244 C  
HETATM   12  C   UNL     1      -7.588  18.155  66.553  1.00  0.00    -0.241 C  
HETATM   13  O   UNL     1      -7.147  18.251  65.206  1.00  0.00    -0.516 OA 
HETATM   14  C   UNL     1      -6.431  18.345  67.510  1.00  0.00    -0.198 C  
HETATM   15  H   UNL     1      -6.790  19.110  65.010  1.00  0.00     0.000 HD 
HETATM   16  C   UNL     1      -6.930  17.620  68.720  1.00  0.00    -0.245 C  
HETATM   17  O   UNL     1      -6.467  17.820  69.837  1.00  0.00    -0.138 OA 
HETATM   18  C   UNL     1      -8.026  16.611  68.407  1.00  0.00    -0.205 C  
BRANCH  18  19
HETATM   19  C   UNL     1      -7.599  15.184  68.787  1.00  0.00    -0.136 C  
BRANCH  19  20
HETATM   20  C   UNL     1      -7.101  14.356  67.630  1.00  0.00    -0.202 C  
HETATM   21  C   UNL     1      -7.190  13.026  67.472  1.00  0.00    -0.154 C  
BRANCH  21  22
HETATM   22  C   UNL     1      -7.794  12.061  68.445  1.00  0.00    -0.147 C  
BRANCH  22  23
HETATM   23  C   UNL     1      -9.223  11.668  68.073  1.00  0.00    -0.178 C  
BRANCH  23  24
HETATM   24  C   UNL     1     -10.154  12.862  68.292  1.00  0.00    -0.242 C  
HETATM   25  C   UNL     1     -11.580  12.565  67.904  1.00  0.00    -0.347 C  
HETATM   26  O   UNL     1     -11.989  11.507  67.459  1.00  0.00    -0.629 OA 
HETATM   27  O   UNL     1     -12.390  13.632  68.107  1.00  0.00    -0.233 OA 
ENDBRANCH  23  24
ENDBRANCH  22  23
ENDBRANCH  21  22
ENDBRANCH  19  20
ENDBRANCH  18  19
ENDBRANCH  10  11
ENDBRANCH   6   9
ENDBRANCH   5   6
ENDBRANCH   4   5
ENDBRANCH   3   4
ENDBRANCH   2   3
TORSDOF 11
ENDMDL
MODEL       45
REMARK 921   NORMALIZED FREE ENERGY PREDICTED BY IDOCK:   -5.55 KCAL/MOL
REMARK 922        TOTAL FREE ENERGY PREDICTED BY IDOCK:  -10.93 KCAL/MOL
REMARK 923 INTER-LIGAND FREE ENERGY PREDICTED BY IDOCK:   -9.09 KCAL/MOL
REMARK 924 INTRA-LIGAND FREE ENERGY PREDICTED BY IDOCK:   -1.84 KCAL/MOL
REMARK 927      BINDING AFFINITY PREDICTED BY RF-SCORE:    0.00 PKD
ROOT
HETATM    1  C   UNL     1      -5.677  18.620  65.204  1.00  0.00    -0.270 C  
HETATM    2  C   UNL     1      -6.256  17.734  66.292  1.00  0.00    -0.265 C  
ENDROOT
BRANCH   2   3
HETATM    3  C   UNL     1      -7.734  18.032  66.550  1.00  0.00    -0.283 C  
BRANCH   3   4
HETATM    4  C   UNL     1      -8.484  16.738  66.874  1.00  0.00    -0.242 C  
BRANCH   4   5
HETATM    5  C   UNL     1      -9.904  16.727  66.307  1.00  0.00    -0.327 C  
BRANCH   5   6
HETATM    6  C   UNL     1     -10.979  17.065  67.355  1.00  0.00    -0.065 C  
HETATM    7  O   UNL     1     -10.767  18.418  67.748  1.00  0.00    -0.414 OA 
HETATM    8  H   UNL     1     -11.431  18.627  68.394  1.00  0.00     0.000 HD 
BRANCH   6   9
HETATM    9  C   UNL     1     -10.946  16.145  68.558  1.00  0.00    -0.338 C  
HETATM   10  C   UNL     1     -12.006  15.635  69.209  1.00  0.00    -0.338 C  
BRANCH  10  11
HETATM   11  C   UNL     1     -11.936  14.873  70.518  1.00  0.00    -0.365 C  
HETATM   12  C   UNL     1     -12.542  15.732  71.649  1.00  0.00    -0.459 C  
HETATM   13  O   UNL     1     -11.634  16.721  72.111  1.00  0.00    -0.507 OA 
HETATM   14  C   UNL     1     -12.886  14.761  72.758  1.00  0.00    -0.527 C  
HETATM   15  H   UNL     1     -12.007  17.250  72.807  1.00  0.00     0.000 HD 
HETATM   16  C   UNL     1     -13.280  13.550  71.974  1.00  0.00    -0.439 C  
HETATM   17  O   UNL     1     -13.960  12.652  72.459  1.00  0.00    -0.412 OA 
HETATM   18  C   UNL     1     -12.729  13.545  70.554  1.00  0.00    -0.227 C  
BRANCH  18  19
HETATM   19  C   UNL     1     -11.804  12.341  70.316  1.00  0.00    -0.324 C  
BRANCH  19  20
HETATM   20  C   UNL     1     -12.125  11.548  69.075  1.00  0.00    -0.303 C  
HETATM   21  C   UNL     1     -11.481  11.564  67.898  1.00  0.00    -0.372 C  
BRANCH  21  22
HETATM   22  C   UNL     1     -10.295  12.412  67.554  1.00  0.00    -0.223 C  
BRANCH  22  23
HETATM   23  C   UNL     1     -10.468  13.156  66.231  1.00  0.00    -0.291 C  
BRANCH  23  24
HETATM   24  C   UNL     1     -11.843  12.838  65.641  1.00  0.00    -0.472 C  
HETATM   25  C   UNL     1     -11.788  12.547  64.163  1.00  0.00    -0.411 C  
HETATM   26  O   UNL     1     -10.782  12.555  63.475  1.00  0.00    -0.435 OA 
HETATM   27  O   UNL     1     -13.013  12.265  63.659  1.00  0.00    -0.777 OA 
ENDBRANCH  23  24
ENDBRANCH  22  23
ENDBRANCH  21  22
ENDBRANCH  19  20
ENDBRANCH  18  19
ENDBRANCH  10  11
ENDBRANCH   6   9
ENDBRANCH   5   6
ENDBRANCH   4   5
ENDBRANCH   3   4
ENDBRANCH   2   3
TORSDOF 11
ENDMDL
MODEL       46
REMARK 921   NORMALIZED FREE ENERGY PREDICTED BY IDOCK:   -5.54 KCAL/MOL
REMARK 922        TOTAL FREE ENERGY PREDICTED BY IDOCK:  -10.91 KCAL/MOL
REMARK 923 INTER-LIGAND FREE ENERGY PREDICTED BY IDOCK:   -9.75 KCAL/MOL
REMARK 924 INTRA-LIGAND FREE ENERGY PREDICTED BY IDOCK:   -1.16 KCAL/MOL
REMARK 927      BINDING AFFINITY PREDICTED BY RF-SCORE:    0.00 PKD
ROOT
HETATM    1  C   UNL     1     -14.201  15.287  71.406  1.00  0.00    -0.589 C  
HETATM    2  C   UNL     1     -13.142  14.241  71.110  1.00  0.00    -0.412 C  
ENDROOT
BRANCH   2   3
HETATM    3  C   UNL     1     -13.349  12.965  71.928  1.00  0.00    -0.530 C  
BRANCH   3   4
HETATM    4  C   UNL     1     -12.726  11.769  71.206  1.00  0.00    -0.420 C  
BRANCH   4   5
HETATM    5  C   UNL     1     -11.882  12.186  70.001  1.00  0.00    -0.383 C  
BRANCH   5   6
HETATM    6  C   UNL     1     -11.718  11.068  68.957  1.00  0.00    -0.333 C  
HETATM    7  O   UNL     1     -10.533  10.352  69.297  1.00  0.00    -0.206 OA 
HETATM    8  H   UNL     1     -10.432   9.661  68.653  1.00  0.00     0.000 HD 
BRANCH   6   9
HETATM    9  C   UNL     1     -11.642  11.588  67.537  1.00  0.00    -0.322 C  
HETATM   10  C   UNL     1     -10.603  12.226  66.968  1.00  0.00    -0.248 C  
BRANCH  10  11
HETATM   11  C   UNL     1     -10.634  12.895  65.609  1.00  0.00    -0.295 C  
HETATM   12  C   UNL     1     -11.473  12.043  64.633  1.00  0.00    -0.308 C  
HETATM   13  O   UNL     1     -10.741  10.933  64.132  1.00  0.00    -0.431 OA 
HETATM   14  C   UNL     1     -11.865  12.977  63.508  1.00  0.00    -0.582 C  
HETATM   15  H   UNL     1     -11.258  10.408  63.531  1.00  0.00     0.000 HD 
HETATM   16  C   UNL     1     -12.023  14.269  64.245  1.00  0.00    -0.425 C  
HETATM   17  O   UNL     1     -12.667  15.206  63.786  1.00  0.00    -0.722 OA 
HETATM   18  C   UNL     1     -11.286  14.298  65.577  1.00  0.00    -0.325 C  
BRANCH  18  19
HETATM   19  C   UNL     1     -10.220  15.404  65.604  1.00  0.00    -0.403 C  
BRANCH  19  20
HETATM   20  C   UNL     1     -10.180  16.196  66.886  1.00  0.00    -0.283 C  
HETATM   21  C   UNL     1     -10.309  17.524  67.038  1.00  0.00    -0.324 C  
BRANCH  21  22
HETATM   22  C   UNL     1     -10.501  18.522  65.938  1.00  0.00    -0.379 C  
BRANCH  22  23
HETATM   23  C   UNL     1      -9.896  19.886  66.270  1.00  0.00    -0.570 C  
BRANCH  23  24
HETATM   24  C   UNL     1      -9.166  19.809  67.611  1.00  0.00    -0.430 C  
HETATM   25  C   UNL     1      -7.668  19.882  67.463  1.00  0.00    -0.287 C  
HETATM   26  O   UNL     1      -7.064  19.989  66.410  1.00  0.00    -0.226 OA 
HETATM   27  O   UNL     1      -7.039  19.815  68.661  1.00  0.00    -0.318 OA 
ENDBRANCH  23  24
ENDBRANCH  22  23
ENDBRANCH  21  22
ENDBRANCH  19  20
ENDBRANCH  18  19
ENDBRANCH  10  11
ENDBRANCH   6   9
ENDBRANCH   5   6
ENDBRANCH   4   5
ENDBRANCH   3   4
ENDBRANCH   2   3
TORSDOF 11
ENDMDL
MODEL       47
REMARK 921   NORMALIZED FREE ENERGY PREDICTED BY IDOCK:   -5.53 KCAL/MOL
REMARK 922        TOTAL FREE ENERGY PREDICTED BY IDOCK:  -10.91 KCAL/MOL
REMARK 923 INTER-LIGAND FREE ENERGY PREDICTED BY IDOCK:   -9.08 KCAL/MOL
REMARK 924 INTRA-LIGAND FREE ENERGY PREDICTED BY IDOCK:   -1.83 KCAL/MOL
REMARK 927      BINDING AFFINITY PREDICTED BY RF-SCORE:    0.00 PKD
ROOT
HETATM    1  C   UNL     1     -10.635   6.197  69.787  1.00  0.00    -0.343 C  
HETATM    2  C   UNL     1     -11.332   6.029  71.125  1.00  0.00    -0.300 C  
ENDROOT
BRANCH   2   3
HETATM    3  C   UNL     1     -12.055   7.305  71.561  1.00  0.00    -0.365 C  
BRANCH   3   4
HETATM    4  C   UNL     1     -11.059   8.293  72.171  1.00  0.00    -0.397 C  
BRANCH   4   5
HETATM    5  C   UNL     1     -10.769   9.477  71.248  1.00  0.00    -0.386 C  
BRANCH   5   6
HETATM    6  C   UNL     1     -11.929   9.799  70.289  1.00  0.00    -0.090 C  
HETATM    7  O   UNL     1     -11.393   9.792  68.969  1.00  0.00    -0.446 OA 
HETATM    8  H   UNL     1     -12.109   9.990  68.378  1.00  0.00     0.000 HD 
BRANCH   6   9
HETATM    9  C   UNL     1     -12.598  11.124  70.591  1.00  0.00    -0.408 C  
HETATM   10  C   UNL     1     -12.053  12.347  70.464  1.00  0.00    -0.363 C  
BRANCH  10  11
HETATM   11  C   UNL     1     -12.686  13.634  70.952  1.00  0.00    -0.382 C  
HETATM   12  C   UNL     1     -13.074  13.487  72.440  1.00  0.00    -0.393 C  
HETATM   13  O   UNL     1     -14.285  12.762  72.604  1.00  0.00    -0.635 OA 
HETATM   14  C   UNL     1     -13.220  14.899  72.964  1.00  0.00    -0.596 C  
HETATM   15  H   UNL     1     -14.523  12.672  73.520  1.00  0.00     0.000 HD 
HETATM   16  C   UNL     1     -12.171  15.614  72.174  1.00  0.00    -0.439 C  
HETATM   17  O   UNL     1     -11.711  16.694  72.528  1.00  0.00    -0.485 OA 
HETATM   18  C   UNL     1     -11.775  14.883  70.898  1.00  0.00    -0.374 C  
BRANCH  18  19
HETATM   19  C   UNL     1     -12.071  15.731  69.651  1.00  0.00    -0.282 C  
BRANCH  19  20
HETATM   20  C   UNL     1     -10.882  16.488  69.118  1.00  0.00    -0.334 C  
HETATM   21  C   UNL     1      -9.689  15.996  68.753  1.00  0.00    -0.226 C  
BRANCH  21  22
HETATM   22  C   UNL     1      -9.269  14.559  68.822  1.00  0.00    -0.162 C  
BRANCH  22  23
HETATM   23  C   UNL     1      -9.084  13.933  67.441  1.00  0.00    -0.217 C  
BRANCH  23  24
HETATM   24  C   UNL     1      -9.883  12.631  67.358  1.00  0.00    -0.205 C  
HETATM   25  C   UNL     1     -11.318  12.854  66.954  1.00  0.00    -0.312 C  
HETATM   26  O   UNL     1     -11.827  13.935  66.713  1.00  0.00    -0.377 OA 
HETATM   27  O   UNL     1     -12.009  11.691  66.884  1.00  0.00    -0.567 OA 
ENDBRANCH  23  24
ENDBRANCH  22  23
ENDBRANCH  21  22
ENDBRANCH  19  20
ENDBRANCH  18  19
ENDBRANCH  10  11
ENDBRANCH   6   9
ENDBRANCH   5   6
ENDBRANCH   4   5
ENDBRANCH   3   4
ENDBRANCH   2   3
TORSDOF 11
ENDMDL
MODEL       48
REMARK 921   NORMALIZED FREE ENERGY PREDICTED BY IDOCK:   -5.53 KCAL/MOL
REMARK 922        TOTAL FREE ENERGY PREDICTED BY IDOCK:  -10.90 KCAL/MOL
REMARK 923 INTER-LIGAND FREE ENERGY PREDICTED BY IDOCK:   -8.95 KCAL/MOL
REMARK 924 INTRA-LIGAND FREE ENERGY PREDICTED BY IDOCK:   -1.94 KCAL/MOL
REMARK 927      BINDING AFFINITY PREDICTED BY RF-SCORE:    0.00 PKD
ROOT
HETATM    1  C   UNL     1     -12.091  10.896  69.443  1.00  0.00    -0.362 C  
HETATM    2  C   UNL     1     -12.318  10.601  70.914  1.00  0.00    -0.502 C  
ENDROOT
BRANCH   2   3
HETATM    3  C   UNL     1     -13.006  11.762  71.635  1.00  0.00    -0.467 C  
BRANCH   3   4
HETATM    4  C   UNL     1     -12.625  13.090  70.977  1.00  0.00    -0.386 C  
BRANCH   4   5
HETATM    5  C   UNL     1     -12.966  14.296  71.854  1.00  0.00    -0.429 C  
BRANCH   5   6
HETATM    6  C   UNL     1     -11.817  15.314  71.960  1.00  0.00    -0.434 C  
HETATM    7  O   UNL     1     -12.391  16.546  72.386  1.00  0.00    -0.483 OA 
HETATM    8  H   UNL     1     -11.681  17.175  72.452  1.00  0.00     0.000 HD 
BRANCH   6   9
HETATM    9  C   UNL     1     -11.063  15.495  70.658  1.00  0.00    -0.378 C  
HETATM   10  C   UNL     1     -11.479  16.174  69.575  1.00  0.00    -0.292 C  
BRANCH  10  11
HETATM   11  C   UNL     1     -10.781  16.175  68.230  1.00  0.00    -0.307 C  
HETATM   12  C   UNL     1      -9.975  17.482  68.067  1.00  0.00    -0.310 C  
HETATM   13  O   UNL     1     -10.804  18.577  67.702  1.00  0.00    -0.412 OA 
HETATM   14  C   UNL     1      -8.954  17.200  66.987  1.00  0.00    -0.244 C  
HETATM   15  H   UNL     1     -10.308  19.381  67.601  1.00  0.00     0.000 HD 
HETATM   16  C   UNL     1      -8.656  15.755  67.238  1.00  0.00    -0.188 C  
HETATM   17  O   UNL     1      -7.635  15.219  66.822  1.00  0.00    -0.112 OA 
HETATM   18  C   UNL     1      -9.751  15.041  68.018  1.00  0.00    -0.213 C  
BRANCH  18  19
HETATM   19  C   UNL     1     -10.358  13.887  67.204  1.00  0.00    -0.265 C  
BRANCH  19  20
HETATM   20  C   UNL     1     -11.861  13.923  67.102  1.00  0.00    -0.445 C  
HETATM   21  C   UNL     1     -12.611  13.929  65.989  1.00  0.00    -0.467 C  
BRANCH  21  22
HETATM   22  C   UNL     1     -12.099  13.925  64.582  1.00  0.00    -0.458 C  
BRANCH  22  23
HETATM   23  C   UNL     1     -12.216  12.555  63.916  1.00  0.00    -0.590 C  
BRANCH  23  24
HETATM   24  C   UNL     1     -10.828  12.074  63.489  1.00  0.00    -0.509 C  
HETATM   25  C   UNL     1     -10.205  11.136  64.491  1.00  0.00    -0.324 C  
HETATM   26  O   UNL     1     -10.713  10.776  65.538  1.00  0.00    -0.189 OA 
HETATM   27  O   UNL     1      -8.978  10.718  64.095  1.00  0.00    -0.187 OA 
ENDBRANCH  23  24
ENDBRANCH  22  23
ENDBRANCH  21  22
ENDBRANCH  19  20
ENDBRANCH  18  19
ENDBRANCH  10  11
ENDBRANCH   6   9
ENDBRANCH   5   6
ENDBRANCH   4   5
ENDBRANCH   3   4
ENDBRANCH   2   3
TORSDOF 11
ENDMDL
MODEL       49
REMARK 921   NORMALIZED FREE ENERGY PREDICTED BY IDOCK:   -5.51 KCAL/MOL
REMARK 922        TOTAL FREE ENERGY PREDICTED BY IDOCK:  -10.86 KCAL/MOL
REMARK 923 INTER-LIGAND FREE ENERGY PREDICTED BY IDOCK:   -9.26 KCAL/MOL
REMARK 924 INTRA-LIGAND FREE ENERGY PREDICTED BY IDOCK:   -1.60 KCAL/MOL
REMARK 927      BINDING AFFINITY PREDICTED BY RF-SCORE:    0.00 PKD
ROOT
HETATM    1  C   UNL     1      -8.605   9.421  64.948  1.00  0.00    -0.198 C  
HETATM    2  C   UNL     1      -9.227  10.788  64.729  1.00  0.00    -0.245 C  
ENDROOT
BRANCH   2   3
HETATM    3  C   UNL     1     -10.049  10.845  63.439  1.00  0.00    -0.398 C  
BRANCH   3   4
HETATM    4  C   UNL     1     -10.856  12.143  63.386  1.00  0.00    -0.474 C  
BRANCH   4   5
HETATM    5  C   UNL     1     -11.926  12.213  64.477  1.00  0.00    -0.415 C  
BRANCH   5   6
HETATM    6  C   UNL     1     -12.588  13.597  64.590  1.00  0.00    -0.242 C  
HETATM    7  O   UNL     1     -12.471  14.221  63.315  1.00  0.00    -1.133 OA 
HETATM    8  H   UNL     1     -12.880  15.076  63.385  1.00  0.00     0.000 HD 
BRANCH   6   9
HETATM    9  C   UNL     1     -11.972  14.463  65.670  1.00  0.00    -0.356 C  
HETATM   10  C   UNL     1     -10.837  15.179  65.577  1.00  0.00    -0.373 C  
BRANCH  10  11
HETATM   11  C   UNL     1     -10.156  15.880  66.735  1.00  0.00    -0.276 C  
HETATM   12  C   UNL     1     -10.557  17.371  66.744  1.00  0.00    -0.194 C  
HETATM   13  O   UNL     1      -9.827  18.124  65.785  1.00  0.00    -0.527 OA 
HETATM   14  C   UNL     1     -10.266  17.863  68.145  1.00  0.00    -0.386 C  
HETATM   15  H   UNL     1     -10.074  19.041  65.791  1.00  0.00     0.000 HD 
HETATM   16  C   UNL     1     -10.575  16.643  68.953  1.00  0.00    -0.337 C  
HETATM   17  O   UNL     1     -10.811  16.700  70.155  1.00  0.00    -0.301 OA 
HETATM   18  C   UNL     1     -10.533  15.356  68.141  1.00  0.00    -0.247 C  
BRANCH  18  19
HETATM   19  C   UNL     1      -9.465  14.389  68.676  1.00  0.00    -0.193 C  
BRANCH  19  20
HETATM   20  C   UNL     1      -9.760  12.934  68.418  1.00  0.00    -0.186 C  
HETATM   21  C   UNL     1     -10.937  12.299  68.532  1.00  0.00    -0.275 C  
BRANCH  21  22
HETATM   22  C   UNL     1     -12.230  12.913  68.974  1.00  0.00    -0.055 C  
BRANCH  22  23
HETATM   23  C   UNL     1     -12.286  13.147  70.483  1.00  0.00    -0.405 C  
BRANCH  23  24
HETATM   24  C   UNL     1     -13.025  14.454  70.771  1.00  0.00    -0.388 C  
HETATM   25  C   UNL     1     -13.722  14.444  72.108  1.00  0.00    -0.463 C  
HETATM   26  O   UNL     1     -13.724  13.518  72.900  1.00  0.00    -0.650 OA 
HETATM   27  O   UNL     1     -14.369  15.610  72.347  1.00  0.00    -0.546 OA 
ENDBRANCH  23  24
ENDBRANCH  22  23
ENDBRANCH  21  22
ENDBRANCH  19  20
ENDBRANCH  18  19
ENDBRANCH  10  11
ENDBRANCH   6   9
ENDBRANCH   5   6
ENDBRANCH   4   5
ENDBRANCH   3   4
ENDBRANCH   2   3
TORSDOF 11
ENDMDL
MODEL       50
REMARK 921   NORMALIZED FREE ENERGY PREDICTED BY IDOCK:   -5.50 KCAL/MOL
REMARK 922        TOTAL FREE ENERGY PREDICTED BY IDOCK:  -10.85 KCAL/MOL
REMARK 923 INTER-LIGAND FREE ENERGY PREDICTED BY IDOCK:   -9.10 KCAL/MOL
REMARK 924 INTRA-LIGAND FREE ENERGY PREDICTED BY IDOCK:   -1.75 KCAL/MOL
REMARK 927      BINDING AFFINITY PREDICTED BY RF-SCORE:    0.00 PKD
ROOT
HETATM    1  C   UNL     1      -8.539  10.311  65.114  1.00  0.00    -0.181 C  
HETATM    2  C   UNL     1      -8.629  10.320  63.599  1.00  0.00    -0.196 C  
ENDROOT
BRANCH   2   3
HETATM    3  C   UNL     1      -9.871  11.061  63.102  1.00  0.00    -0.398 C  
BRANCH   3   4
HETATM    4  C   UNL     1     -10.379  12.020  64.179  1.00  0.00    -0.381 C  
BRANCH   4   5
HETATM    5  C   UNL     1     -11.902  11.994  64.315  1.00  0.00    -0.431 C  
BRANCH   5   6
HETATM    6  C   UNL     1     -12.523  13.393  64.470  1.00  0.00    -0.301 C  
HETATM    7  O   UNL     1     -12.446  14.026  63.195  1.00  0.00    -1.137 OA 
HETATM    8  H   UNL     1     -12.829  14.890  63.290  1.00  0.00     0.000 HD 
BRANCH   6   9
HETATM    9  C   UNL     1     -11.838  14.233  65.528  1.00  0.00    -0.363 C  
HETATM   10  C   UNL     1     -12.039  14.172  66.857  1.00  0.00    -0.466 C  
BRANCH  10  11
HETATM   11  C   UNL     1     -11.476  15.153  67.865  1.00  0.00    -0.344 C  
HETATM   12  C   UNL     1     -11.557  14.542  69.281  1.00  0.00    -0.302 C  
HETATM   13  O   UNL     1     -12.865  14.642  69.829  1.00  0.00    -0.571 OA 
HETATM   14  C   UNL     1     -10.565  15.320  70.119  1.00  0.00    -0.279 C  
HETATM   15  H   UNL     1     -12.914  14.266  70.700  1.00  0.00     0.000 HD 
HETATM   16  C   UNL     1      -9.496  15.608  69.112  1.00  0.00    -0.256 C  
HETATM   17  O   UNL     1      -8.355  15.909  69.442  1.00  0.00    -0.244 OA 
HETATM   18  C   UNL     1      -9.985  15.518  67.673  1.00  0.00    -0.233 C  
BRANCH  18  19
HETATM   19  C   UNL     1      -9.834  16.863  66.945  1.00  0.00    -0.278 C  
BRANCH  19  20
HETATM   20  C   UNL     1     -10.674  17.976  67.516  1.00  0.00    -0.352 C  
HETATM   21  C   UNL     1     -10.621  19.284  67.217  1.00  0.00    -0.590 C  
BRANCH  21  22
HETATM   22  C   UNL     1      -9.677  19.929  66.250  1.00  0.00    -0.551 C  
BRANCH  22  23
HETATM   23  C   UNL     1      -8.482  20.582  66.943  1.00  0.00    -0.267 C  
BRANCH  23  24
HETATM   24  C   UNL     1      -7.295  19.619  66.930  1.00  0.00    -0.246 C  
HETATM   25  C   UNL     1      -7.012  19.027  68.288  1.00  0.00    -0.256 C  
HETATM   26  O   UNL     1      -7.633  19.266  69.309  1.00  0.00    -0.305 OA 
HETATM   27  O   UNL     1      -5.959  18.175  68.257  1.00  0.00    -0.171 OA 
ENDBRANCH  23  24
ENDBRANCH  22  23
ENDBRANCH  21  22
ENDBRANCH  19  20
ENDBRANCH  18  19
ENDBRANCH  10  11
ENDBRANCH   6   9
ENDBRANCH   5   6
ENDBRANCH   4   5
ENDBRANCH   3   4
ENDBRANCH   2   3
TORSDOF 11
ENDMDL
MODEL       51
REMARK 921   NORMALIZED FREE ENERGY PREDICTED BY IDOCK:   -5.49 KCAL/MOL
REMARK 922        TOTAL FREE ENERGY PREDICTED BY IDOCK:  -10.83 KCAL/MOL
REMARK 923 INTER-LIGAND FREE ENERGY PREDICTED BY IDOCK:   -8.33 KCAL/MOL
REMARK 924 INTRA-LIGAND FREE ENERGY PREDICTED BY IDOCK:   -2.50 KCAL/MOL
REMARK 927      BINDING AFFINITY PREDICTED BY RF-SCORE:    0.00 PKD
ROOT
HETATM    1  C   UNL     1     -13.367  12.410  71.957  1.00  0.00    -0.511 C  
HETATM    2  C   UNL     1     -12.602  11.207  71.436  1.00  0.00    -0.479 C  
ENDROOT
BRANCH   2   3
HETATM    3  C   UNL     1     -13.483   9.960  71.345  1.00  0.00    -0.379 C  
BRANCH   3   4
HETATM    4  C   UNL     1     -12.983   8.889  72.317  1.00  0.00    -0.479 C  
BRANCH   4   5
HETATM    5  C   UNL     1     -11.478   8.645  72.195  1.00  0.00    -0.443 C  
BRANCH   5   6
HETATM    6  C   UNL     1     -11.106   7.720  71.023  1.00  0.00    -0.257 C  
HETATM    7  O   UNL     1     -10.102   6.828  71.499  1.00  0.00    -0.183 OA 
HETATM    8  H   UNL     1      -9.872   6.257  70.776  1.00  0.00     0.000 HD 
BRANCH   6   9
HETATM    9  C   UNL     1     -10.619   8.474  69.803  1.00  0.00    -0.224 C  
HETATM   10  C   UNL     1      -9.928   9.628  69.794  1.00  0.00    -0.252 C  
BRANCH  10  11
HETATM   11  C   UNL     1      -9.623  10.447  68.555  1.00  0.00    -0.161 C  
HETATM   12  C   UNL     1      -8.399   9.848  67.829  1.00  0.00    -0.114 C  
HETATM   13  O   UNL     1      -7.177  10.224  68.448  1.00  0.00    -0.077 OA 
HETATM   14  C   UNL     1      -8.467  10.376  66.412  1.00  0.00    -0.138 C  
HETATM   15  H   UNL     1      -6.424   9.855  68.000  1.00  0.00     0.000 HD 
HETATM   16  C   UNL     1      -9.946  10.438  66.194  1.00  0.00    -0.231 C  
HETATM   17  O   UNL     1     -10.438  10.477  65.072  1.00  0.00    -0.286 OA 
HETATM   18  C   UNL     1     -10.744  10.479  67.490  1.00  0.00    -0.326 C  
BRANCH  18  19
HETATM   19  C   UNL     1     -11.573  11.768  67.597  1.00  0.00    -0.364 C  
BRANCH  19  20
HETATM   20  C   UNL     1     -10.944  12.842  68.448  1.00  0.00    -0.281 C  
HETATM   21  C   UNL     1     -10.063  13.781  68.070  1.00  0.00    -0.245 C  
BRANCH  21  22
HETATM   22  C   UNL     1      -9.489  13.949  66.697  1.00  0.00    -0.296 C  
BRANCH  22  23
HETATM   23  C   UNL     1     -10.376  14.798  65.788  1.00  0.00    -0.358 C  
BRANCH  23  24
HETATM   24  C   UNL     1     -10.750  13.994  64.543  1.00  0.00    -0.355 C  
HETATM   25  C   UNL     1     -12.229  13.715  64.454  1.00  0.00    -0.390 C  
HETATM   26  O   UNL     1     -13.068  14.070  65.264  1.00  0.00    -0.782 OA 
HETATM   27  O   UNL     1     -12.542  13.004  63.344  1.00  0.00    -0.722 OA 
ENDBRANCH  23  24
ENDBRANCH  22  23
ENDBRANCH  21  22
ENDBRANCH  19  20
ENDBRANCH  18  19
ENDBRANCH  10  11
ENDBRANCH   6   9
ENDBRANCH   5   6
ENDBRANCH   4   5
ENDBRANCH   3   4
ENDBRANCH   2   3
TORSDOF 11
ENDMDL
MODEL       52
REMARK 921   NORMALIZED FREE ENERGY PREDICTED BY IDOCK:   -5.47 KCAL/MOL
REMARK 922        TOTAL FREE ENERGY PREDICTED BY IDOCK:  -10.80 KCAL/MOL
REMARK 923 INTER-LIGAND FREE ENERGY PREDICTED BY IDOCK:   -9.16 KCAL/MOL
REMARK 924 INTRA-LIGAND FREE ENERGY PREDICTED BY IDOCK:   -1.65 KCAL/MOL
REMARK 927      BINDING AFFINITY PREDICTED BY RF-SCORE:    0.00 PKD
ROOT
HETATM    1  C   UNL     1      -6.000  19.501  69.594  1.00  0.00    -0.303 C  
HETATM    2  C   UNL     1      -7.024  18.800  68.721  1.00  0.00    -0.329 C  
ENDROOT
BRANCH   2   3
HETATM    3  C   UNL     1      -6.450  18.418  67.355  1.00  0.00    -0.197 C  
BRANCH   3   4
HETATM    4  C   UNL     1      -6.183  16.913  67.298  1.00  0.00    -0.198 C  
BRANCH   4   5
HETATM    5  C   UNL     1      -7.044  16.127  68.287  1.00  0.00    -0.130 C  
BRANCH   5   6
HETATM    6  C   UNL     1      -7.294  14.672  67.853  1.00  0.00    -0.154 C  
HETATM    7  O   UNL     1      -6.243  14.318  66.957  1.00  0.00    -0.253 OA 
HETATM    8  H   UNL     1      -6.397  13.420  66.690  1.00  0.00     0.000 HD 
BRANCH   6   9
HETATM    9  C   UNL     1      -8.646  14.471  67.201  1.00  0.00    -0.242 C  
HETATM   10  C   UNL     1      -9.391  15.409  66.589  1.00  0.00    -0.288 C  
BRANCH  10  11
HETATM   11  C   UNL     1     -10.817  15.212  66.115  1.00  0.00    -0.330 C  
HETATM   12  C   UNL     1     -10.924  15.599  64.624  1.00  0.00    -0.325 C  
HETATM   13  O   UNL     1     -10.998  17.007  64.444  1.00  0.00    -1.017 OA 
HETATM   14  C   UNL     1     -12.182  14.927  64.118  1.00  0.00    -0.280 C  
HETATM   15  H   UNL     1     -11.064  17.244  63.526  1.00  0.00     0.000 HD 
HETATM   16  C   UNL     1     -12.184  13.667  64.923  1.00  0.00    -0.414 C  
HETATM   17  O   UNL     1     -12.827  12.679  64.586  1.00  0.00    -0.704 OA 
HETATM   18  C   UNL     1     -11.345  13.760  66.191  1.00  0.00    -0.320 C  
BRANCH  18  19
HETATM   19  C   UNL     1     -12.203  13.548  67.448  1.00  0.00    -0.278 C  
BRANCH  19  20
HETATM   20  C   UNL     1     -11.467  12.917  68.602  1.00  0.00    -0.346 C  
HETATM   21  C   UNL     1     -11.038  13.509  69.728  1.00  0.00     0.037 C  
BRANCH  21  22
HETATM   22  C   UNL     1     -11.182  14.961  70.069  1.00  0.00    -0.293 C  
BRANCH  22  23
HETATM   23  C   UNL     1     -12.418  15.245  70.922  1.00  0.00    -0.446 C  
BRANCH  23  24
HETATM   24  C   UNL     1     -12.021  16.093  72.130  1.00  0.00    -0.623 C  
HETATM   25  C   UNL     1     -12.789  15.726  73.375  1.00  0.00    -0.564 C  
HETATM   26  O   UNL     1     -13.640  14.858  73.453  1.00  0.00    -0.439 OA 
HETATM   27  O   UNL     1     -12.423  16.486  74.435  1.00  0.00    -0.724 OA 
ENDBRANCH  23  24
ENDBRANCH  22  23
ENDBRANCH  21  22
ENDBRANCH  19  20
ENDBRANCH  18  19
ENDBRANCH  10  11
ENDBRANCH   6   9
ENDBRANCH   5   6
ENDBRANCH   4   5
ENDBRANCH   3   4
ENDBRANCH   2   3
TORSDOF 11
ENDMDL
MODEL       53
REMARK 921   NORMALIZED FREE ENERGY PREDICTED BY IDOCK:   -5.46 KCAL/MOL
REMARK 922        TOTAL FREE ENERGY PREDICTED BY IDOCK:  -10.79 KCAL/MOL
REMARK 923 INTER-LIGAND FREE ENERGY PREDICTED BY IDOCK:   -8.51 KCAL/MOL
REMARK 924 INTRA-LIGAND FREE ENERGY PREDICTED BY IDOCK:   -2.28 KCAL/MOL
REMARK 927      BINDING AFFINITY PREDICTED BY RF-SCORE:    0.00 PKD
ROOT
HETATM    1  C   UNL     1     -12.856  13.621  65.338  1.00  0.00    -0.440 C  
HETATM    2  C   UNL     1     -12.356  13.596  63.906  1.00  0.00    -0.375 C  
ENDROOT
BRANCH   2   3
HETATM    3  C   UNL     1     -11.819  12.221  63.508  1.00  0.00    -0.601 C  
BRANCH   3   4
HETATM    4  C   UNL     1     -10.299  12.180  63.673  1.00  0.00    -0.482 C  
BRANCH   4   5
HETATM    5  C   UNL     1      -9.689  10.873  63.165  1.00  0.00    -0.396 C  
BRANCH   5   6
HETATM    6  C   UNL     1      -9.090  10.006  64.287  1.00  0.00    -0.255 C  
HETATM    7  O   UNL     1      -8.844   8.717  63.731  1.00  0.00    -0.425 OA 
HETATM    8  H   UNL     1      -8.474   8.182  64.423  1.00  0.00     0.000 HD 
BRANCH   6   9
HETATM    9  C   UNL     1      -9.988   9.904  65.503  1.00  0.00    -0.363 C  
HETATM   10  C   UNL     1      -9.703   9.288  66.663  1.00  0.00    -0.281 C  
BRANCH  10  11
HETATM   11  C   UNL     1     -10.695   9.046  67.784  1.00  0.00    -0.217 C  
HETATM   12  C   UNL     1     -10.362   7.714  68.490  1.00  0.00    -0.198 C  
HETATM   13  O   UNL     1     -10.831   6.591  67.756  1.00  0.00    -0.257 OA 
HETATM   14  C   UNL     1     -11.037   7.789  69.842  1.00  0.00    -0.142 C  
HETATM   15  H   UNL     1     -10.626   5.771  68.191  1.00  0.00     0.000 HD 
HETATM   16  C   UNL     1     -10.916   9.248  70.148  1.00  0.00    -0.246 C  
HETATM   17  O   UNL     1     -11.015   9.685  71.289  1.00  0.00    -0.349 OA 
HETATM   18  C   UNL     1     -10.693  10.107  68.910  1.00  0.00    -0.249 C  
BRANCH  18  19
HETATM   19  C   UNL     1     -11.833  11.119  68.717  1.00  0.00    -0.388 C  
BRANCH  19  20
HETATM   20  C   UNL     1     -11.506  12.517  69.178  1.00  0.00    -0.361 C  
HETATM   21  C   UNL     1     -10.728  13.424  68.567  1.00  0.00    -0.278 C  
BRANCH  21  22
HETATM   22  C   UNL     1      -9.984  13.225  67.283  1.00  0.00    -0.231 C  
BRANCH  22  23
HETATM   23  C   UNL     1      -9.059  14.395  66.952  1.00  0.00    -0.269 C  
BRANCH  23  24
HETATM   24  C   UNL     1      -9.539  15.081  65.672  1.00  0.00    -0.279 C  
HETATM   25  C   UNL     1     -10.365  16.311  65.947  1.00  0.00    -0.365 C  
HETATM   26  O   UNL     1     -10.646  16.745  67.051  1.00  0.00    -0.305 OA 
HETATM   27  O   UNL     1     -10.779  16.906  64.803  1.00  0.00    -0.758 OA 
ENDBRANCH  23  24
ENDBRANCH  22  23
ENDBRANCH  21  22
ENDBRANCH  19  20
ENDBRANCH  18  19
ENDBRANCH  10  11
ENDBRANCH   6   9
ENDBRANCH   5   6
ENDBRANCH   4   5
ENDBRANCH   3   4
ENDBRANCH   2   3
TORSDOF 11
ENDMDL
MODEL       54
REMARK 921   NORMALIZED FREE ENERGY PREDICTED BY IDOCK:   -5.45 KCAL/MOL
REMARK 922        TOTAL FREE ENERGY PREDICTED BY IDOCK:  -10.77 KCAL/MOL
REMARK 923 INTER-LIGAND FREE ENERGY PREDICTED BY IDOCK:   -9.02 KCAL/MOL
REMARK 924 INTRA-LIGAND FREE ENERGY PREDICTED BY IDOCK:   -1.74 KCAL/MOL
REMARK 927      BINDING AFFINITY PREDICTED BY RF-SCORE:    0.00 PKD
ROOT
HETATM    1  C   UNL     1      -8.242   7.612  66.233  1.00  0.00    -0.120 C  
HETATM    2  C   UNL     1      -8.680   8.173  67.573  1.00  0.00    -0.129 C  
ENDROOT
BRANCH   2   3
HETATM    3  C   UNL     1     -10.165   8.543  67.583  1.00  0.00    -0.297 C  
BRANCH   3   4
HETATM    4  C   UNL     1     -10.591   8.975  68.987  1.00  0.00    -0.209 C  
BRANCH   4   5
HETATM    5  C   UNL     1     -10.297  10.451  69.261  1.00  0.00    -0.250 C  
BRANCH   5   6
HETATM    6  C   UNL     1     -11.543  11.348  69.156  1.00  0.00    -0.314 C  
HETATM    7  O   UNL     1     -12.679  10.501  69.302  1.00  0.00    -0.703 OA 
HETATM    8  H   UNL     1     -13.448  11.055  69.237  1.00  0.00     0.000 HD 
BRANCH   6   9
HETATM    9  C   UNL     1     -11.611  12.119  67.854  1.00  0.00    -0.413 C  
HETATM   10  C   UNL     1     -10.917  11.863  66.730  1.00  0.00    -0.337 C  
BRANCH  10  11
HETATM   11  C   UNL     1     -10.872  12.766  65.514  1.00  0.00    -0.301 C  
HETATM   12  C   UNL     1     -11.672  12.120  64.362  1.00  0.00    -0.355 C  
HETATM   13  O   UNL     1     -10.931  11.102  63.704  1.00  0.00    -0.554 OA 
HETATM   14  C   UNL     1     -11.995  13.249  63.407  1.00  0.00    -0.491 C  
HETATM   15  H   UNL     1     -11.424  10.705  62.996  1.00  0.00     0.000 HD 
HETATM   16  C   UNL     1     -12.173  14.392  64.355  1.00  0.00    -0.458 C  
HETATM   17  O   UNL     1     -12.782  15.409  64.043  1.00  0.00    -0.664 OA 
HETATM   18  C   UNL     1     -11.503  14.166  65.704  1.00  0.00    -0.325 C  
BRANCH  18  19
HETATM   19  C   UNL     1     -10.425  15.226  65.979  1.00  0.00    -0.328 C  
BRANCH  19  20
HETATM   20  C   UNL     1      -9.447  14.850  67.062  1.00  0.00    -0.239 C  
HETATM   21  C   UNL     1      -9.490  15.182  68.362  1.00  0.00    -0.208 C  
BRANCH  21  22
HETATM   22  C   UNL     1     -10.530  16.036  69.020  1.00  0.00    -0.246 C  
BRANCH  22  23
HETATM   23  C   UNL     1     -11.791  15.253  69.382  1.00  0.00    -0.367 C  
BRANCH  23  24
HETATM   24  C   UNL     1     -11.795  14.955  70.882  1.00  0.00    -0.375 C  
HETATM   25  C   UNL     1     -13.127  15.241  71.528  1.00  0.00    -0.438 C  
HETATM   26  O   UNL     1     -14.116  15.666  70.956  1.00  0.00    -0.499 OA 
HETATM   27  O   UNL     1     -13.112  14.969  72.855  1.00  0.00    -0.403 OA 
ENDBRANCH  23  24
ENDBRANCH  22  23
ENDBRANCH  21  22
ENDBRANCH  19  20
ENDBRANCH  18  19
ENDBRANCH  10  11
ENDBRANCH   6   9
ENDBRANCH   5   6
ENDBRANCH   4   5
ENDBRANCH   3   4
ENDBRANCH   2   3
TORSDOF 11
ENDMDL
MODEL       55
REMARK 921   NORMALIZED FREE ENERGY PREDICTED BY IDOCK:   -5.44 KCAL/MOL
REMARK 922        TOTAL FREE ENERGY PREDICTED BY IDOCK:  -10.76 KCAL/MOL
REMARK 923 INTER-LIGAND FREE ENERGY PREDICTED BY IDOCK:   -7.67 KCAL/MOL
REMARK 924 INTRA-LIGAND FREE ENERGY PREDICTED BY IDOCK:   -3.09 KCAL/MOL
REMARK 927      BINDING AFFINITY PREDICTED BY RF-SCORE:    0.00 PKD
ROOT
HETATM    1  C   UNL     1      -8.271  11.535  66.754  1.00  0.00    -0.164 C  
HETATM    2  C   UNL     1      -8.249  11.639  68.267  1.00  0.00    -0.156 C  
ENDROOT
BRANCH   2   3
HETATM    3  C   UNL     1      -7.219  12.658  68.759  1.00  0.00    -0.083 C  
BRANCH   3   4
HETATM    4  C   UNL     1      -6.591  13.388  67.570  1.00  0.00    -0.143 C  
BRANCH   4   5
HETATM    5  C   UNL     1      -6.388  14.880  67.840  1.00  0.00    -0.174 C  
BRANCH   5   6
HETATM    6  C   UNL     1      -7.118  15.784  66.831  1.00  0.00    -0.039 C  
HETATM    7  O   UNL     1      -7.241  17.068  67.435  1.00  0.00    -0.144 OA 
HETATM    8  H   UNL     1      -7.691  17.626  66.812  1.00  0.00     0.000 HD 
BRANCH   6   9
HETATM    9  C   UNL     1      -8.476  15.248  66.427  1.00  0.00    -0.106 C  
HETATM   10  C   UNL     1      -9.564  15.971  66.109  1.00  0.00    -0.366 C  
BRANCH  10  11
HETATM   11  C   UNL     1     -10.952  15.401  65.894  1.00  0.00    -0.293 C  
HETATM   12  C   UNL     1     -11.249  15.323  64.381  1.00  0.00    -0.178 C  
HETATM   13  O   UNL     1     -11.622  16.585  63.845  1.00  0.00    -1.598 OA 
HETATM   14  C   UNL     1     -12.378  14.326  64.238  1.00  0.00    -0.407 C  
HETATM   15  H   UNL     1     -11.805  16.536  62.914  1.00  0.00     0.000 HD 
HETATM   16  C   UNL     1     -12.062  13.366  65.341  1.00  0.00    -0.421 C  
HETATM   17  O   UNL     1     -12.514  12.227  65.364  1.00  0.00    -0.596 OA 
HETATM   18  C   UNL     1     -11.166  13.962  66.419  1.00  0.00    -0.319 C  
BRANCH  18  19
HETATM   19  C   UNL     1     -11.864  13.970  67.788  1.00  0.00    -0.419 C  
BRANCH  19  20
HETATM   20  C   UNL     1     -10.932  14.136  68.960  1.00  0.00    -0.286 C  
HETATM   21  C   UNL     1     -10.651  15.261  69.636  1.00  0.00    -0.285 C  
BRANCH  21  22
HETATM   22  C   UNL     1     -11.200  16.624  69.346  1.00  0.00    -0.085 C  
BRANCH  22  23
HETATM   23  C   UNL     1     -10.114  17.697  69.296  1.00  0.00    -0.147 C  
BRANCH  23  24
HETATM   24  C   UNL     1     -10.562  18.837  68.380  1.00  0.00    -0.125 C  
HETATM   25  C   UNL     1      -9.418  19.718  67.946  1.00  0.00    -0.354 C  
HETATM   26  O   UNL     1      -8.251  19.575  68.267  1.00  0.00    -0.321 OA 
HETATM   27  O   UNL     1      -9.834  20.719  67.134  1.00  0.00    -0.463 OA 
ENDBRANCH  23  24
ENDBRANCH  22  23
ENDBRANCH  21  22
ENDBRANCH  19  20
ENDBRANCH  18  19
ENDBRANCH  10  11
ENDBRANCH   6   9
ENDBRANCH   5   6
ENDBRANCH   4   5
ENDBRANCH   3   4
ENDBRANCH   2   3
TORSDOF 11
ENDMDL
MODEL       56
REMARK 921   NORMALIZED FREE ENERGY PREDICTED BY IDOCK:   -5.41 KCAL/MOL
REMARK 922        TOTAL FREE ENERGY PREDICTED BY IDOCK:  -10.70 KCAL/MOL
REMARK 923 INTER-LIGAND FREE ENERGY PREDICTED BY IDOCK:   -7.69 KCAL/MOL
REMARK 924 INTRA-LIGAND FREE ENERGY PREDICTED BY IDOCK:   -3.01 KCAL/MOL
REMARK 927      BINDING AFFINITY PREDICTED BY RF-SCORE:    0.00 PKD
ROOT
HETATM    1  C   UNL     1      -8.246   9.651  64.115  1.00  0.00    -0.158 C  
HETATM    2  C   UNL     1      -9.620  10.268  64.303  1.00  0.00    -0.375 C  
ENDROOT
BRANCH   2   3
HETATM    3  C   UNL     1      -9.755  11.605  63.572  1.00  0.00    -0.342 C  
BRANCH   3   4
HETATM    4  C   UNL     1     -11.217  12.055  63.561  1.00  0.00    -0.526 C  
BRANCH   4   5
HETATM    5  C   UNL     1     -11.450  13.310  64.403  1.00  0.00    -0.416 C  
BRANCH   5   6
HETATM    6  C   UNL     1     -12.479  13.105  65.529  1.00  0.00    -0.458 C  
HETATM    7  O   UNL     1     -12.818  14.397  66.025  1.00  0.00    -0.433 OA 
HETATM    8  H   UNL     1     -13.453  14.270  66.719  1.00  0.00     0.000 HD 
BRANCH   6   9
HETATM    9  C   UNL     1     -11.966  12.219  66.646  1.00  0.00    -0.257 C  
HETATM   10  C   UNL     1     -11.734  12.583  67.919  1.00  0.00    -0.416 C  
BRANCH  10  11
HETATM   11  C   UNL     1     -11.046  11.720  68.957  1.00  0.00    -0.301 C  
HETATM   12  C   UNL     1     -12.107  11.061  69.867  1.00  0.00    -0.361 C  
HETATM   13  O   UNL     1     -12.593  11.960  70.854  1.00  0.00    -0.339 OA 
HETATM   14  C   UNL     1     -11.414   9.881  70.512  1.00  0.00    -0.391 C  
HETATM   15  H   UNL     1     -13.245  11.555  71.413  1.00  0.00     0.000 HD 
HETATM   16  C   UNL     1     -10.493   9.448  69.416  1.00  0.00    -0.220 C  
HETATM   17  O   UNL     1     -10.004   8.324  69.381  1.00  0.00    -0.180 OA 
HETATM   18  C   UNL     1     -10.215  10.542  68.395  1.00  0.00    -0.192 C  
BRANCH  18  19
HETATM   19  C   UNL     1      -8.721  10.895  68.342  1.00  0.00    -0.147 C  
BRANCH  19  20
HETATM   20  C   UNL     1      -8.334  11.791  67.194  1.00  0.00    -0.168 C  
HETATM   21  C   UNL     1      -8.080  13.108  67.227  1.00  0.00    -0.151 C  
BRANCH  21  22
HETATM   22  C   UNL     1      -8.155  13.990  68.435  1.00  0.00    -0.148 C  
BRANCH  22  23
HETATM   23  C   UNL     1      -9.081  15.189  68.232  1.00  0.00    -0.183 C  
BRANCH  23  24
HETATM   24  C   UNL     1      -9.449  15.306  66.753  1.00  0.00    -0.264 C  
HETATM   25  C   UNL     1     -10.299  16.516  66.459  1.00  0.00    -0.305 C  
HETATM   26  O   UNL     1     -10.676  17.334  67.280  1.00  0.00    -0.310 OA 
HETATM   27  O   UNL     1     -10.613  16.604  65.145  1.00  0.00    -0.645 OA 
ENDBRANCH  23  24
ENDBRANCH  22  23
ENDBRANCH  21  22
ENDBRANCH  19  20
ENDBRANCH  18  19
ENDBRANCH  10  11
ENDBRANCH   6   9
ENDBRANCH   5   6
ENDBRANCH   4   5
ENDBRANCH   3   4
ENDBRANCH   2   3
TORSDOF 11
ENDMDL
MODEL       57
REMARK 921   NORMALIZED FREE ENERGY PREDICTED BY IDOCK:   -5.40 KCAL/MOL
REMARK 922        TOTAL FREE ENERGY PREDICTED BY IDOCK:  -10.70 KCAL/MOL
REMARK 923 INTER-LIGAND FREE ENERGY PREDICTED BY IDOCK:   -9.22 KCAL/MOL
REMARK 924 INTRA-LIGAND FREE ENERGY PREDICTED BY IDOCK:   -1.48 KCAL/MOL
REMARK 927      BINDING AFFINITY PREDICTED BY RF-SCORE:    0.00 PKD
ROOT
HETATM    1  C   UNL     1     -10.307   5.296  70.940  1.00  0.00    -0.303 C  
HETATM    2  C   UNL     1     -11.108   5.894  69.799  1.00  0.00    -0.422 C  
ENDROOT
BRANCH   2   3
HETATM    3  C   UNL     1     -10.378   5.774  68.460  1.00  0.00    -0.274 C  
BRANCH   3   4
HETATM    4  C   UNL     1     -11.008   6.714  67.430  1.00  0.00    -0.434 C  
BRANCH   4   5
HETATM    5  C   UNL     1      -9.981   7.641  66.778  1.00  0.00    -0.317 C  
BRANCH   5   6
HETATM    6  C   UNL     1     -10.087   9.099  67.260  1.00  0.00    -0.233 C  
HETATM    7  O   UNL     1     -11.138   9.146  68.221  1.00  0.00    -0.478 OA 
HETATM    8  H   UNL     1     -11.203  10.045  68.518  1.00  0.00     0.000 HD 
BRANCH   6   9
HETATM    9  C   UNL     1     -10.346  10.078  66.133  1.00  0.00    -0.225 C  
HETATM   10  C   UNL     1      -9.820  11.309  66.000  1.00  0.00    -0.267 C  
BRANCH  10  11
HETATM   11  C   UNL     1     -10.247  12.327  64.962  1.00  0.00    -0.312 C  
HETATM   12  C   UNL     1     -11.192  11.658  63.940  1.00  0.00    -0.397 C  
HETATM   13  O   UNL     1     -10.479  10.893  62.978  1.00  0.00    -0.726 OA 
HETATM   14  C   UNL     1     -11.940  12.792  63.273  1.00  0.00    -0.522 C  
HETATM   15  H   UNL     1     -11.060  10.481  62.350  1.00  0.00     0.000 HD 
HETATM   16  C   UNL     1     -12.064  13.764  64.404  1.00  0.00    -0.436 C  
HETATM   17  O   UNL     1     -12.900  14.661  64.403  1.00  0.00    -0.578 OA 
HETATM   18  C   UNL     1     -11.041  13.537  65.508  1.00  0.00    -0.303 C  
BRANCH  18  19
HETATM   19  C   UNL     1     -10.130  14.761  65.689  1.00  0.00    -0.393 C  
BRANCH  19  20
HETATM   20  C   UNL     1     -10.587  15.723  66.756  1.00  0.00    -0.309 C  
HETATM   21  C   UNL     1     -10.813  15.466  68.054  1.00  0.00    -0.292 C  
BRANCH  21  22
HETATM   22  C   UNL     1     -10.679  14.134  68.725  1.00  0.00    -0.265 C  
BRANCH  22  23
HETATM   23  C   UNL     1     -12.009  13.612  69.267  1.00  0.00    -0.384 C  
BRANCH  23  24
HETATM   24  C   UNL     1     -11.959  12.087  69.360  1.00  0.00    -0.334 C  
HETATM   25  C   UNL     1     -12.489  11.567  70.672  1.00  0.00    -0.314 C  
HETATM   26  O   UNL     1     -12.917  12.252  71.586  1.00  0.00    -0.390 OA 
HETATM   27  O   UNL     1     -12.440  10.215  70.736  1.00  0.00    -0.309 OA 
ENDBRANCH  23  24
ENDBRANCH  22  23
ENDBRANCH  21  22
ENDBRANCH  19  20
ENDBRANCH  18  19
ENDBRANCH  10  11
ENDBRANCH   6   9
ENDBRANCH   5   6
ENDBRANCH   4   5
ENDBRANCH   3   4
ENDBRANCH   2   3
TORSDOF 11
ENDMDL
MODEL       58
REMARK 921   NORMALIZED FREE ENERGY PREDICTED BY IDOCK:   -5.40 KCAL/MOL
REMARK 922        TOTAL FREE ENERGY PREDICTED BY IDOCK:  -10.68 KCAL/MOL
REMARK 923 INTER-LIGAND FREE ENERGY PREDICTED BY IDOCK:   -8.50 KCAL/MOL
REMARK 924 INTRA-LIGAND FREE ENERGY PREDICTED BY IDOCK:   -2.18 KCAL/MOL
REMARK 927      BINDING AFFINITY PREDICTED BY RF-SCORE:    0.00 PKD
ROOT
HETATM    1  C   UNL     1     -10.780   7.425  71.256  1.00  0.00    -0.238 C  
HETATM    2  C   UNL     1     -11.219   6.591  70.067  1.00  0.00    -0.453 C  
ENDROOT
BRANCH   2   3
HETATM    3  C   UNL     1     -10.054   5.822  69.442  1.00  0.00    -0.277 C  
BRANCH   3   4
HETATM    4  C   UNL     1      -9.674   6.441  68.096  1.00  0.00    -0.122 C  
BRANCH   4   5
HETATM    5  C   UNL     1     -10.695   7.474  67.618  1.00  0.00    -0.266 C  
BRANCH   5   6
HETATM    6  C   UNL     1     -10.100   8.883  67.444  1.00  0.00    -0.227 C  
HETATM    7  O   UNL     1      -8.858   8.899  68.144  1.00  0.00    -0.133 OA 
HETATM    8  H   UNL     1      -8.490   9.768  68.036  1.00  0.00     0.000 HD 
BRANCH   6   9
HETATM    9  C   UNL     1     -11.014   9.980  67.948  1.00  0.00    -0.311 C  
HETATM   10  C   UNL     1     -11.049  10.489  69.192  1.00  0.00    -0.302 C  
BRANCH  10  11
HETATM   11  C   UNL     1     -12.102  11.451  69.707  1.00  0.00    -0.388 C  
HETATM   12  C   UNL     1     -12.551  11.017  71.119  1.00  0.00    -0.418 C  
HETATM   13  O   UNL     1     -13.476   9.939  71.075  1.00  0.00    -0.479 OA 
HETATM   14  C   UNL     1     -13.187  12.243  71.739  1.00  0.00    -0.428 C  
HETATM   15  H   UNL     1     -13.752   9.673  71.944  1.00  0.00     0.000 HD 
HETATM   16  C   UNL     1     -12.356  13.335  71.143  1.00  0.00    -0.232 C  
HETATM   17  O   UNL     1     -12.299  14.454  71.640  1.00  0.00    -0.344 OA 
HETATM   18  C   UNL     1     -11.637  12.918  69.868  1.00  0.00    -0.246 C  
BRANCH  18  19
HETATM   19  C   UNL     1     -12.078  13.773  68.670  1.00  0.00    -0.333 C  
BRANCH  19  20
HETATM   20  C   UNL     1     -11.059  14.791  68.225  1.00  0.00    -0.284 C  
HETATM   21  C   UNL     1      -9.974  14.590  67.461  1.00  0.00    -0.224 C  
BRANCH  21  22
HETATM   22  C   UNL     1      -9.524  13.277  66.897  1.00  0.00    -0.249 C  
BRANCH  22  23
HETATM   23  C   UNL     1     -10.405  12.799  65.744  1.00  0.00    -0.297 C  
BRANCH  23  24
HETATM   24  C   UNL     1     -10.665  13.961  64.783  1.00  0.00    -0.437 C  
HETATM   25  C   UNL     1     -12.129  14.295  64.657  1.00  0.00    -0.463 C  
HETATM   26  O   UNL     1     -13.039  13.727  65.237  1.00  0.00    -0.756 OA 
HETATM   27  O   UNL     1     -12.339  15.326  63.805  1.00  0.00    -0.594 OA 
ENDBRANCH  23  24
ENDBRANCH  22  23
ENDBRANCH  21  22
ENDBRANCH  19  20
ENDBRANCH  18  19
ENDBRANCH  10  11
ENDBRANCH   6   9
ENDBRANCH   5   6
ENDBRANCH   4   5
ENDBRANCH   3   4
ENDBRANCH   2   3
TORSDOF 11
ENDMDL
MODEL       59
REMARK 921   NORMALIZED FREE ENERGY PREDICTED BY IDOCK:   -5.39 KCAL/MOL
REMARK 922        TOTAL FREE ENERGY PREDICTED BY IDOCK:  -10.67 KCAL/MOL
REMARK 923 INTER-LIGAND FREE ENERGY PREDICTED BY IDOCK:   -8.69 KCAL/MOL
REMARK 924 INTRA-LIGAND FREE ENERGY PREDICTED BY IDOCK:   -1.98 KCAL/MOL
REMARK 927      BINDING AFFINITY PREDICTED BY RF-SCORE:    0.00 PKD
ROOT
HETATM    1  C   UNL     1     -11.286  14.921  67.466  1.00  0.00    -0.351 C  
HETATM    2  C   UNL     1     -12.063  13.747  66.898  1.00  0.00    -0.454 C  
ENDROOT
BRANCH   2   3
HETATM    3  C   UNL     1     -12.512  13.998  65.458  1.00  0.00    -0.533 C  
BRANCH   3   4
HETATM    4  C   UNL     1     -12.662  12.669  64.714  1.00  0.00    -0.460 C  
BRANCH   4   5
HETATM    5  C   UNL     1     -11.744  12.573  63.495  1.00  0.00    -0.595 C  
BRANCH   5   6
HETATM    6  C   UNL     1     -10.452  11.782  63.769  1.00  0.00    -0.416 C  
HETATM    7  O   UNL     1     -10.315  10.832  62.716  1.00  0.00    -0.752 OA 
HETATM    8  H   UNL     1      -9.518  10.344  62.885  1.00  0.00     0.000 HD 
BRANCH   6   9
HETATM    9  C   UNL     1     -10.454  11.092  65.118  1.00  0.00    -0.341 C  
HETATM   10  C   UNL     1     -10.031   9.844  65.383  1.00  0.00    -0.349 C  
BRANCH  10  11
HETATM   11  C   UNL     1     -10.222   9.125  66.703  1.00  0.00    -0.328 C  
HETATM   12  C   UNL     1      -9.124   8.051  66.870  1.00  0.00    -0.152 C  
HETATM   13  O   UNL     1      -9.412   6.877  66.124  1.00  0.00    -0.348 OA 
HETATM   14  C   UNL     1      -9.074   7.746  68.351  1.00  0.00    -0.131 C  
HETATM   15  H   UNL     1      -8.736   6.216  66.227  1.00  0.00     0.000 HD 
HETATM   16  C   UNL     1      -9.391   9.086  68.936  1.00  0.00    -0.143 C  
HETATM   17  O   UNL     1      -9.113   9.373  70.095  1.00  0.00    -0.194 OA 
HETATM   18  C   UNL     1     -10.106  10.014  67.964  1.00  0.00    -0.197 C  
BRANCH  18  19
HETATM   19  C   UNL     1     -11.494  10.414  68.488  1.00  0.00    -0.231 C  
BRANCH  19  20
HETATM   20  C   UNL     1     -11.472  11.465  69.567  1.00  0.00    -0.381 C  
HETATM   21  C   UNL     1     -12.114  11.450  70.746  1.00  0.00    -0.433 C  
BRANCH  21  22
HETATM   22  C   UNL     1     -13.030  10.371  71.236  1.00  0.00    -0.517 C  
BRANCH  22  23
HETATM   23  C   UNL     1     -12.287   9.265  71.984  1.00  0.00    -0.433 C  
BRANCH  23  24
HETATM   24  C   UNL     1     -12.331   7.975  71.165  1.00  0.00    -0.234 C  
HETATM   25  C   UNL     1     -11.251   6.999  71.559  1.00  0.00    -0.249 C  
HETATM   26  O   UNL     1     -10.414   7.180  72.427  1.00  0.00    -0.205 OA 
HETATM   27  O   UNL     1     -11.306   5.863  70.824  1.00  0.00    -0.267 OA 
ENDBRANCH  23  24
ENDBRANCH  22  23
ENDBRANCH  21  22
ENDBRANCH  19  20
ENDBRANCH  18  19
ENDBRANCH  10  11
ENDBRANCH   6   9
ENDBRANCH   5   6
ENDBRANCH   4   5
ENDBRANCH   3   4
ENDBRANCH   2   3
TORSDOF 11
ENDMDL
MODEL       60
REMARK 921   NORMALIZED FREE ENERGY PREDICTED BY IDOCK:   -5.39 KCAL/MOL
REMARK 922        TOTAL FREE ENERGY PREDICTED BY IDOCK:  -10.67 KCAL/MOL
REMARK 923 INTER-LIGAND FREE ENERGY PREDICTED BY IDOCK:   -8.24 KCAL/MOL
REMARK 924 INTRA-LIGAND FREE ENERGY PREDICTED BY IDOCK:   -2.43 KCAL/MOL
REMARK 927      BINDING AFFINITY PREDICTED BY RF-SCORE:    0.00 PKD
ROOT
HETATM    1  C   UNL     1     -10.916  15.433  64.864  1.00  0.00    -0.453 C  
HETATM    2  C   UNL     1     -11.747  14.649  65.863  1.00  0.00    -0.301 C  
ENDROOT
BRANCH   2   3
HETATM    3  C   UNL     1     -12.772  13.746  65.175  1.00  0.00    -0.439 C  
BRANCH   3   4
HETATM    4  C   UNL     1     -12.343  13.463  63.735  1.00  0.00    -0.418 C  
BRANCH   4   5
HETATM    5  C   UNL     1     -11.991  11.992  63.506  1.00  0.00    -0.605 C  
BRANCH   5   6
HETATM    6  C   UNL     1     -10.478  11.716  63.543  1.00  0.00    -0.443 C  
HETATM    7  O   UNL     1     -10.255  10.513  62.813  1.00  0.00    -0.706 OA 
HETATM    8  H   UNL     1      -9.321  10.343  62.836  1.00  0.00     0.000 HD 
BRANCH   6   9
HETATM    9  C   UNL     1      -9.931  11.599  64.951  1.00  0.00    -0.293 C  
HETATM   10  C   UNL     1     -10.580  11.125  66.029  1.00  0.00    -0.298 C  
BRANCH  10  11
HETATM   11  C   UNL     1     -10.066  11.197  67.453  1.00  0.00    -0.213 C  
HETATM   12  C   UNL     1      -9.761   9.772  67.965  1.00  0.00    -0.145 C  
HETATM   13  O   UNL     1     -10.940   9.088  68.365  1.00  0.00    -0.451 OA 
HETATM   14  C   UNL     1      -8.823   9.953  69.138  1.00  0.00    -0.165 C  
HETATM   15  H   UNL     1     -10.753   8.211  68.681  1.00  0.00     0.000 HD 
HETATM   16  C   UNL     1      -8.037  11.149  68.703  1.00  0.00    -0.150 C  
HETATM   17  O   UNL     1      -6.945  11.423  69.187  1.00  0.00    -0.101 OA 
HETATM   18  C   UNL     1      -8.745  11.980  67.642  1.00  0.00    -0.166 C  
BRANCH  18  19
HETATM   19  C   UNL     1      -9.016  13.410  68.137  1.00  0.00    -0.188 C  
BRANCH  19  20
HETATM   20  C   UNL     1      -8.357  14.487  67.314  1.00  0.00    -0.232 C  
HETATM   21  C   UNL     1      -8.331  15.807  67.556  1.00  0.00    -0.183 C  
BRANCH  21  22
HETATM   22  C   UNL     1      -8.985  16.505  68.708  1.00  0.00    -0.250 C  
BRANCH  22  23
HETATM   23  C   UNL     1     -10.341  17.106  68.338  1.00  0.00    -0.362 C  
BRANCH  23  24
HETATM   24  C   UNL     1     -10.172  18.058  67.153  1.00  0.00    -0.366 C  
HETATM   25  C   UNL     1     -10.223  19.508  67.561  1.00  0.00    -0.424 C  
HETATM   26  O   UNL     1     -10.383  19.921  68.697  1.00  0.00    -0.446 OA 
HETATM   27  O   UNL     1     -10.070  20.336  66.500  1.00  0.00    -0.442 OA 
ENDBRANCH  23  24
ENDBRANCH  22  23
ENDBRANCH  21  22
ENDBRANCH  19  20
ENDBRANCH  18  19
ENDBRANCH  10  11
ENDBRANCH   6   9
ENDBRANCH   5   6
ENDBRANCH   4   5
ENDBRANCH   3   4
ENDBRANCH   2   3
TORSDOF 11
ENDMDL
MODEL       61
REMARK 921   NORMALIZED FREE ENERGY PREDICTED BY IDOCK:   -5.38 KCAL/MOL
REMARK 922        TOTAL FREE ENERGY PREDICTED BY IDOCK:  -10.66 KCAL/MOL
REMARK 923 INTER-LIGAND FREE ENERGY PREDICTED BY IDOCK:   -8.06 KCAL/MOL
REMARK 924 INTRA-LIGAND FREE ENERGY PREDICTED BY IDOCK:   -2.60 KCAL/MOL
REMARK 927      BINDING AFFINITY PREDICTED BY RF-SCORE:    0.00 PKD
ROOT
HETATM    1  C   UNL     1      -9.204  10.774  65.647  1.00  0.00    -0.226 C  
HETATM    2  C   UNL     1      -9.168  10.604  67.155  1.00  0.00    -0.161 C  
ENDROOT
BRANCH   2   3
HETATM    3  C   UNL     1      -7.772  10.856  67.728  1.00  0.00    -0.107 C  
BRANCH   3   4
HETATM    4  C   UNL     1      -7.083  11.985  66.961  1.00  0.00    -0.091 C  
BRANCH   4   5
HETATM    5  C   UNL     1      -6.712  13.165  67.861  1.00  0.00    -0.138 C  
BRANCH   5   6
HETATM    6  C   UNL     1      -7.404  14.478  67.457  1.00  0.00    -0.189 C  
HETATM    7  O   UNL     1      -7.527  15.265  68.639  1.00  0.00    -0.115 OA 
HETATM    8  H   UNL     1      -7.954  16.076  68.389  1.00  0.00     0.000 HD 
BRANCH   6   9
HETATM    9  C   UNL     1      -8.758  14.262  66.813  1.00  0.00    -0.161 C  
HETATM   10  C   UNL     1      -9.600  15.214  66.372  1.00  0.00    -0.309 C  
BRANCH  10  11
HETATM   11  C   UNL     1     -11.021  14.967  65.907  1.00  0.00    -0.338 C  
HETATM   12  C   UNL     1     -11.120  15.229  64.388  1.00  0.00    -0.117 C  
HETATM   13  O   UNL     1     -11.204  16.616  64.092  1.00  0.00    -1.410 OA 
HETATM   14  C   UNL     1     -12.369  14.507  63.931  1.00  0.00    -0.063 C  
HETATM   15  H   UNL     1     -11.265  16.777  63.158  1.00  0.00     0.000 HD 
HETATM   16  C   UNL     1     -12.367  13.317  64.837  1.00  0.00    -0.425 C  
HETATM   17  O   UNL     1     -13.000  12.300  64.577  1.00  0.00    -0.738 OA 
HETATM   18  C   UNL     1     -11.539  13.521  66.098  1.00  0.00    -0.371 C  
BRANCH  18  19
HETATM   19  C   UNL     1     -12.404  13.406  67.362  1.00  0.00    -0.113 C  
BRANCH  19  20
HETATM   20  C   UNL     1     -11.671  12.883  68.571  1.00  0.00    -0.374 C  
HETATM   21  C   UNL     1     -11.115  13.590  69.567  1.00  0.00    -0.111 C  
BRANCH  21  22
HETATM   22  C   UNL     1     -11.085  15.083  69.677  1.00  0.00    -0.291 C  
BRANCH  22  23
HETATM   23  C   UNL     1     -12.343  15.651  70.331  1.00  0.00    -0.427 C  
BRANCH  23  24
HETATM   24  C   UNL     1     -12.731  14.785  71.531  1.00  0.00    -0.401 C  
HETATM   25  C   UNL     1     -12.398  15.436  72.849  1.00  0.00    -0.411 C  
HETATM   26  O   UNL     1     -11.876  16.529  72.989  1.00  0.00    -0.507 OA 
HETATM   27  O   UNL     1     -12.751  14.657  73.899  1.00  0.00    -0.469 OA 
ENDBRANCH  23  24
ENDBRANCH  22  23
ENDBRANCH  21  22
ENDBRANCH  19  20
ENDBRANCH  18  19
ENDBRANCH  10  11
ENDBRANCH   6   9
ENDBRANCH   5   6
ENDBRANCH   4   5
ENDBRANCH   3   4
ENDBRANCH   2   3
TORSDOF 11
ENDMDL
MODEL       62
REMARK 921   NORMALIZED FREE ENERGY PREDICTED BY IDOCK:   -5.35 KCAL/MOL
REMARK 922        TOTAL FREE ENERGY PREDICTED BY IDOCK:  -10.60 KCAL/MOL
REMARK 923 INTER-LIGAND FREE ENERGY PREDICTED BY IDOCK:   -8.85 KCAL/MOL
REMARK 924 INTRA-LIGAND FREE ENERGY PREDICTED BY IDOCK:   -1.75 KCAL/MOL
REMARK 927      BINDING AFFINITY PREDICTED BY RF-SCORE:    0.00 PKD
ROOT
HETATM    1  C   UNL     1     -10.766  14.452  68.680  1.00  0.00    -0.258 C  
HETATM    2  C   UNL     1     -10.312  13.298  67.805  1.00  0.00    -0.233 C  
ENDROOT
BRANCH   2   3
HETATM    3  C   UNL     1     -10.619  13.543  66.326  1.00  0.00    -0.288 C  
BRANCH   3   4
HETATM    4  C   UNL     1     -11.370  12.347  65.738  1.00  0.00    -0.393 C  
BRANCH   4   5
HETATM    5  C   UNL     1     -10.496  11.508  64.805  1.00  0.00    -0.354 C  
BRANCH   5   6
HETATM    6  C   UNL     1      -9.708  10.407  65.538  1.00  0.00    -0.249 C  
HETATM    7  O   UNL     1      -9.371   9.420  64.568  1.00  0.00    -0.430 OA 
HETATM    8  H   UNL     1      -8.885   8.741  65.020  1.00  0.00     0.000 HD 
BRANCH   6   9
HETATM    9  C   UNL     1     -10.480   9.790  66.687  1.00  0.00    -0.233 C  
HETATM   10  C   UNL     1      -9.963   9.138  67.743  1.00  0.00    -0.236 C  
BRANCH  10  11
HETATM   11  C   UNL     1     -10.773   8.374  68.771  1.00  0.00    -0.086 C  
HETATM   12  C   UNL     1     -10.742   6.866  68.438  1.00  0.00    -0.211 C  
HETATM   13  O   UNL     1     -11.647   6.533  67.394  1.00  0.00    -0.719 OA 
HETATM   14  C   UNL     1     -11.119   6.157  69.720  1.00  0.00    -0.486 C  
HETATM   15  H   UNL     1     -11.627   5.606  67.189  1.00  0.00     0.000 HD 
HETATM   16  C   UNL     1     -10.512   7.063  70.744  1.00  0.00    -0.212 C  
HETATM   17  O   UNL     1     -10.277   6.689  71.887  1.00  0.00    -0.187 OA 
HETATM   18  C   UNL     1     -10.258   8.472  70.227  1.00  0.00    -0.206 C  
BRANCH  18  19
HETATM   19  C   UNL     1     -11.054   9.515  71.026  1.00  0.00    -0.433 C  
BRANCH  19  20
HETATM   20  C   UNL     1     -11.541  10.685  70.209  1.00  0.00    -0.424 C  
HETATM   21  C   UNL     1     -12.410  11.639  70.575  1.00  0.00    -0.410 C  
BRANCH  21  22
HETATM   22  C   UNL     1     -13.115  11.731  71.894  1.00  0.00    -0.482 C  
BRANCH  22  23
HETATM   23  C   UNL     1     -13.623  13.141  72.192  1.00  0.00    -0.637 C  
BRANCH  23  24
HETATM   24  C   UNL     1     -12.444  14.115  72.215  1.00  0.00    -0.236 C  
HETATM   25  C   UNL     1     -12.759  15.425  71.538  1.00  0.00    -0.411 C  
HETATM   26  O   UNL     1     -13.822  15.716  71.016  1.00  0.00    -0.567 OA 
HETATM   27  O   UNL     1     -11.706  16.275  71.570  1.00  0.00    -0.469 OA 
ENDBRANCH  23  24
ENDBRANCH  22  23
ENDBRANCH  21  22
ENDBRANCH  19  20
ENDBRANCH  18  19
ENDBRANCH  10  11
ENDBRANCH   6   9
ENDBRANCH   5   6
ENDBRANCH   4   5
ENDBRANCH   3   4
ENDBRANCH   2   3
TORSDOF 11
ENDMDL
MODEL       63
REMARK 921   NORMALIZED FREE ENERGY PREDICTED BY IDOCK:   -5.34 KCAL/MOL
REMARK 922        TOTAL FREE ENERGY PREDICTED BY IDOCK:  -10.59 KCAL/MOL
REMARK 923 INTER-LIGAND FREE ENERGY PREDICTED BY IDOCK:   -7.71 KCAL/MOL
REMARK 924 INTRA-LIGAND FREE ENERGY PREDICTED BY IDOCK:   -2.88 KCAL/MOL
REMARK 927      BINDING AFFINITY PREDICTED BY RF-SCORE:    0.00 PKD
ROOT
HETATM    1  C   UNL     1     -12.268  14.451  64.653  1.00  0.00    -0.479 C  
HETATM    2  C   UNL     1     -12.899  13.072  64.707  1.00  0.00    -0.336 C  
ENDROOT
BRANCH   2   3
HETATM    3  C   UNL     1     -12.349  12.145  63.622  1.00  0.00    -0.673 C  
BRANCH   3   4
HETATM    4  C   UNL     1     -10.823  12.232  63.577  1.00  0.00    -0.508 C  
BRANCH   4   5
HETATM    5  C   UNL     1     -10.155  10.859  63.665  1.00  0.00    -0.414 C  
BRANCH   5   6
HETATM    6  C   UNL     1      -9.470  10.602  65.019  1.00  0.00    -0.243 C  
HETATM    7  O   UNL     1      -9.905   9.322  65.470  1.00  0.00    -0.431 OA 
HETATM    8  H   UNL     1      -9.482   9.164  66.305  1.00  0.00     0.000 HD 
BRANCH   6   9
HETATM    9  C   UNL     1      -9.777  11.668  66.051  1.00  0.00    -0.257 C  
HETATM   10  C   UNL     1      -8.904  12.245  66.895  1.00  0.00    -0.207 C  
BRANCH  10  11
HETATM   11  C   UNL     1      -9.282  13.167  68.037  1.00  0.00    -0.211 C  
HETATM   12  C   UNL     1      -8.051  14.002  68.455  1.00  0.00    -0.148 C  
HETATM   13  O   UNL     1      -7.159  13.260  69.274  1.00  0.00    -0.271 OA 
HETATM   14  C   UNL     1      -8.604  15.194  69.206  1.00  0.00    -0.211 C  
HETATM   15  H   UNL     1      -6.402  13.774  69.531  1.00  0.00     0.000 HD 
HETATM   16  C   UNL     1      -9.888  15.430  68.477  1.00  0.00    -0.207 C  
HETATM   17  O   UNL     1     -10.479  16.502  68.528  1.00  0.00    -0.266 OA 
HETATM   18  C   UNL     1     -10.380  14.208  67.712  1.00  0.00    -0.242 C  
BRANCH  18  19
HETATM   19  C   UNL     1     -11.752  13.742  68.222  1.00  0.00    -0.394 C  
BRANCH  19  20
HETATM   20  C   UNL     1     -11.800  13.453  69.700  1.00  0.00    -0.394 C  
HETATM   21  C   UNL     1     -11.985  12.267  70.302  1.00  0.00    -0.373 C  
BRANCH  21  22
HETATM   22  C   UNL     1     -12.212  10.956  69.615  1.00  0.00    -0.354 C  
BRANCH  22  23
HETATM   23  C   UNL     1     -11.472   9.802  70.289  1.00  0.00    -0.317 C  
BRANCH  23  24
HETATM   24  C   UNL     1     -10.004   9.818  69.862  1.00  0.00    -0.282 C  
HETATM   25  C   UNL     1      -9.714   8.852  68.741  1.00  0.00    -0.164 C  
HETATM   26  O   UNL     1     -10.529   8.121  68.207  1.00  0.00    -0.204 OA 
HETATM   27  O   UNL     1      -8.410   8.882  68.375  1.00  0.00    -0.122 OA 
ENDBRANCH  23  24
ENDBRANCH  22  23
ENDBRANCH  21  22
ENDBRANCH  19  20
ENDBRANCH  18  19
ENDBRANCH  10  11
ENDBRANCH   6   9
ENDBRANCH   5   6
ENDBRANCH   4   5
ENDBRANCH   3   4
ENDBRANCH   2   3
TORSDOF 11
ENDMDL
MODEL       64
REMARK 921   NORMALIZED FREE ENERGY PREDICTED BY IDOCK:   -5.32 KCAL/MOL
REMARK 922        TOTAL FREE ENERGY PREDICTED BY IDOCK:  -10.56 KCAL/MOL
REMARK 923 INTER-LIGAND FREE ENERGY PREDICTED BY IDOCK:   -8.04 KCAL/MOL
REMARK 924 INTRA-LIGAND FREE ENERGY PREDICTED BY IDOCK:   -2.52 KCAL/MOL
REMARK 927      BINDING AFFINITY PREDICTED BY RF-SCORE:    0.00 PKD
ROOT
HETATM    1  C   UNL     1     -10.248  10.436  65.251  1.00  0.00    -0.332 C  
HETATM    2  C   UNL     1     -10.215   9.389  66.348  1.00  0.00    -0.300 C  
ENDROOT
BRANCH   2   3
HETATM    3  C   UNL     1      -9.537   9.907  67.618  1.00  0.00    -0.172 C  
BRANCH   3   4
HETATM    4  C   UNL     1      -8.752  11.184  67.313  1.00  0.00    -0.139 C  
BRANCH   4   5
HETATM    5  C   UNL     1      -7.981  11.701  68.528  1.00  0.00    -0.144 C  
BRANCH   5   6
HETATM    6  C   UNL     1      -7.376  13.100  68.313  1.00  0.00    -0.116 C  
HETATM    7  O   UNL     1      -6.983  13.586  69.594  1.00  0.00    -0.321 OA 
HETATM    8  H   UNL     1      -6.610  14.449  69.461  1.00  0.00     0.000 HD 
BRANCH   6   9
HETATM    9  C   UNL     1      -8.335  14.064  67.644  1.00  0.00    -0.191 C  
HETATM   10  C   UNL     1      -8.872  15.170  68.188  1.00  0.00    -0.169 C  
BRANCH  10  11
HETATM   11  C   UNL     1      -9.969  16.003  67.554  1.00  0.00    -0.240 C  
HETATM   12  C   UNL     1      -9.386  17.356  67.089  1.00  0.00    -0.245 C  
HETATM   13  O   UNL     1      -9.236  18.269  68.167  1.00  0.00    -0.285 OA 
HETATM   14  C   UNL     1     -10.364  17.891  66.066  1.00  0.00    -0.318 C  
HETATM   15  H   UNL     1      -8.877  19.101  67.880  1.00  0.00     0.000 HD 
HETATM   16  C   UNL     1     -10.837  16.625  65.424  1.00  0.00    -0.173 C  
HETATM   17  O   UNL     1     -11.366  16.613  64.319  1.00  0.00    -1.116 OA 
HETATM   18  C   UNL     1     -10.619  15.392  66.291  1.00  0.00    -0.311 C  
BRANCH  18  19
HETATM   19  C   UNL     1     -11.950  14.704  66.632  1.00  0.00    -0.293 C  
BRANCH  19  20
HETATM   20  C   UNL     1     -11.825  13.239  66.962  1.00  0.00    -0.442 C  
HETATM   21  C   UNL     1     -11.783  12.670  68.177  1.00  0.00    -0.396 C  
BRANCH  21  22
HETATM   22  C   UNL     1     -11.829  13.390  69.490  1.00  0.00    -0.391 C  
BRANCH  22  23
HETATM   23  C   UNL     1     -12.398  12.527  70.615  1.00  0.00    -0.369 C  
BRANCH  23  24
HETATM   24  C   UNL     1     -11.952  11.077  70.422  1.00  0.00    -0.459 C  
HETATM   25  C   UNL     1     -12.577  10.138  71.422  1.00  0.00    -0.422 C  
HETATM   26  O   UNL     1     -13.356  10.458  72.304  1.00  0.00    -0.396 OA 
HETATM   27  O   UNL     1     -12.173   8.859  71.235  1.00  0.00    -0.298 OA 
ENDBRANCH  23  24
ENDBRANCH  22  23
ENDBRANCH  21  22
ENDBRANCH  19  20
ENDBRANCH  18  19
ENDBRANCH  10  11
ENDBRANCH   6   9
ENDBRANCH   5   6
ENDBRANCH   4   5
ENDBRANCH   3   4
ENDBRANCH   2   3
TORSDOF 11
ENDMDL
MODEL       65
REMARK 921   NORMALIZED FREE ENERGY PREDICTED BY IDOCK:   -5.30 KCAL/MOL
REMARK 922        TOTAL FREE ENERGY PREDICTED BY IDOCK:  -10.53 KCAL/MOL
REMARK 923 INTER-LIGAND FREE ENERGY PREDICTED BY IDOCK:   -8.48 KCAL/MOL
REMARK 924 INTRA-LIGAND FREE ENERGY PREDICTED BY IDOCK:   -2.04 KCAL/MOL
REMARK 927      BINDING AFFINITY PREDICTED BY RF-SCORE:    0.00 PKD
ROOT
HETATM    1  C   UNL     1     -12.313  12.555  63.380  1.00  0.00    -0.577 C  
HETATM    2  C   UNL     1     -12.427  12.533  64.893  1.00  0.00    -0.524 C  
ENDROOT
BRANCH   2   3
HETATM    3  C   UNL     1     -12.624  13.934  65.476  1.00  0.00    -0.560 C  
BRANCH   3   4
HETATM    4  C   UNL     1     -12.185  13.963  66.941  1.00  0.00    -0.415 C  
BRANCH   4   5
HETATM    5  C   UNL     1     -11.950  12.563  67.509  1.00  0.00    -0.287 C  
BRANCH   5   6
HETATM    6  C   UNL     1     -11.930  12.528  69.048  1.00  0.00    -0.233 C  
HETATM    7  O   UNL     1     -10.787  13.268  69.466  1.00  0.00    -0.450 OA 
HETATM    8  H   UNL     1     -10.774  13.247  70.416  1.00  0.00     0.000 HD 
BRANCH   6   9
HETATM    9  C   UNL     1     -11.892  11.121  69.608  1.00  0.00    -0.419 C  
HETATM   10  C   UNL     1     -12.275  10.735  70.838  1.00  0.00    -0.487 C  
BRANCH  10  11
HETATM   11  C   UNL     1     -12.048   9.356  71.425  1.00  0.00    -0.442 C  
HETATM   12  C   UNL     1     -13.404   8.635  71.590  1.00  0.00    -0.350 C  
HETATM   13  O   UNL     1     -14.102   9.075  72.747  1.00  0.00    -0.893 OA 
HETATM   14  C   UNL     1     -13.073   7.162  71.692  1.00  0.00    -0.410 C  
HETATM   15  H   UNL     1     -14.936   8.631  72.849  1.00  0.00     0.000 HD 
HETATM   16  C   UNL     1     -11.887   7.066  70.785  1.00  0.00    -0.355 C  
HETATM   17  O   UNL     1     -11.519   6.000  70.304  1.00  0.00    -0.339 OA 
HETATM   18  C   UNL     1     -11.190   8.401  70.561  1.00  0.00    -0.252 C  
BRANCH  18  19
HETATM   19  C   UNL     1      -9.736   8.365  71.054  1.00  0.00    -0.218 C  
BRANCH  19  20
HETATM   20  C   UNL     1      -8.715   8.162  69.964  1.00  0.00    -0.131 C  
HETATM   21  C   UNL     1      -8.079   9.101  69.246  1.00  0.00    -0.102 C  
BRANCH  21  22
HETATM   22  C   UNL     1      -8.271  10.582  69.364  1.00  0.00    -0.128 C  
BRANCH  22  23
HETATM   23  C   UNL     1      -8.462  11.260  68.009  1.00  0.00    -0.138 C  
BRANCH  23  24
HETATM   24  C   UNL     1      -7.242  12.126  67.694  1.00  0.00    -0.123 C  
HETATM   25  C   UNL     1      -7.570  13.596  67.643  1.00  0.00    -0.179 C  
HETATM   26  O   UNL     1      -8.673  14.083  67.825  1.00  0.00    -0.165 OA 
HETATM   27  O   UNL     1      -6.478  14.348  67.366  1.00  0.00    -0.307 OA 
ENDBRANCH  23  24
ENDBRANCH  22  23
ENDBRANCH  21  22
ENDBRANCH  19  20
ENDBRANCH  18  19
ENDBRANCH  10  11
ENDBRANCH   6   9
ENDBRANCH   5   6
ENDBRANCH   4   5
ENDBRANCH   3   4
ENDBRANCH   2   3
TORSDOF 11
ENDMDL
MODEL       66
REMARK 921   NORMALIZED FREE ENERGY PREDICTED BY IDOCK:   -5.30 KCAL/MOL
REMARK 922        TOTAL FREE ENERGY PREDICTED BY IDOCK:  -10.52 KCAL/MOL
REMARK 923 INTER-LIGAND FREE ENERGY PREDICTED BY IDOCK:   -8.70 KCAL/MOL
REMARK 924 INTRA-LIGAND FREE ENERGY PREDICTED BY IDOCK:   -1.82 KCAL/MOL
REMARK 927      BINDING AFFINITY PREDICTED BY RF-SCORE:    0.00 PKD
ROOT
HETATM    1  C   UNL     1     -13.179  14.114  71.200  1.00  0.00    -0.369 C  
HETATM    2  C   UNL     1     -13.161  12.661  71.638  1.00  0.00    -0.394 C  
ENDROOT
BRANCH   2   3
HETATM    3  C   UNL     1     -12.259  11.803  70.750  1.00  0.00    -0.424 C  
BRANCH   3   4
HETATM    4  C   UNL     1     -12.860  10.407  70.580  1.00  0.00    -0.393 C  
BRANCH   4   5
HETATM    5  C   UNL     1     -13.040   9.681  71.914  1.00  0.00    -0.530 C  
BRANCH   5   6
HETATM    6  C   UNL     1     -12.722   8.178  71.836  1.00  0.00    -0.332 C  
HETATM    7  O   UNL     1     -12.199   7.795  73.106  1.00  0.00    -0.514 OA 
HETATM    8  H   UNL     1     -12.003   6.868  73.057  1.00  0.00     0.000 HD 
BRANCH   6   9
HETATM    9  C   UNL     1     -11.746   7.835  70.729  1.00  0.00    -0.242 C  
HETATM   10  C   UNL     1     -11.641   6.659  70.085  1.00  0.00    -0.446 C  
BRANCH  10  11
HETATM   11  C   UNL     1     -10.533   6.295  69.117  1.00  0.00    -0.291 C  
HETATM   12  C   UNL     1      -9.959   4.910  69.487  1.00  0.00    -0.225 C  
HETATM   13  O   UNL     1      -9.057   4.983  70.582  1.00  0.00    -0.126 OA 
HETATM   14  C   UNL     1      -9.253   4.416  68.243  1.00  0.00    -0.182 C  
HETATM   15  H   UNL     1      -8.704   4.130  70.809  1.00  0.00     0.000 HD 
HETATM   16  C   UNL     1     -10.121   4.988  67.168  1.00  0.00    -0.199 C  
HETATM   17  O   UNL     1     -10.117   4.548  66.024  1.00  0.00    -0.223 OA 
HETATM   18  C   UNL     1     -10.962   6.168  67.636  1.00  0.00    -0.400 C  
BRANCH  18  19
HETATM   19  C   UNL     1     -10.623   7.445  66.851  1.00  0.00    -0.375 C  
BRANCH  19  20
HETATM   20  C   UNL     1      -9.668   8.373  67.557  1.00  0.00    -0.209 C  
HETATM   21  C   UNL     1      -9.852   9.667  67.864  1.00  0.00    -0.182 C  
BRANCH  21  22
HETATM   22  C   UNL     1     -11.064  10.485  67.540  1.00  0.00    -0.358 C  
BRANCH  22  23
HETATM   23  C   UNL     1     -10.713  11.849  66.948  1.00  0.00    -0.285 C  
BRANCH  23  24
HETATM   24  C   UNL     1     -11.815  12.287  65.983  1.00  0.00    -0.409 C  
HETATM   25  C   UNL     1     -12.192  13.737  66.151  1.00  0.00    -0.459 C  
HETATM   26  O   UNL     1     -11.699  14.509  66.955  1.00  0.00    -0.377 OA 
HETATM   27  O   UNL     1     -13.167  14.108  65.287  1.00  0.00    -0.760 OA 
ENDBRANCH  23  24
ENDBRANCH  22  23
ENDBRANCH  21  22
ENDBRANCH  19  20
ENDBRANCH  18  19
ENDBRANCH  10  11
ENDBRANCH   6   9
ENDBRANCH   5   6
ENDBRANCH   4   5
ENDBRANCH   3   4
ENDBRANCH   2   3
TORSDOF 11
ENDMDL
MODEL       67
REMARK 921   NORMALIZED FREE ENERGY PREDICTED BY IDOCK:   -5.29 KCAL/MOL
REMARK 922        TOTAL FREE ENERGY PREDICTED BY IDOCK:  -10.51 KCAL/MOL
REMARK 923 INTER-LIGAND FREE ENERGY PREDICTED BY IDOCK:   -8.96 KCAL/MOL
REMARK 924 INTRA-LIGAND FREE ENERGY PREDICTED BY IDOCK:   -1.55 KCAL/MOL
REMARK 927      BINDING AFFINITY PREDICTED BY RF-SCORE:    0.00 PKD
ROOT
HETATM    1  C   UNL     1      -9.845  15.165  65.685  1.00  0.00    -0.378 C  
HETATM    2  C   UNL     1      -9.680  16.109  66.862  1.00  0.00    -0.246 C  
ENDROOT
BRANCH   2   3
HETATM    3  C   UNL     1     -10.855  16.023  67.837  1.00  0.00    -0.333 C  
BRANCH   3   4
HETATM    4  C   UNL     1     -10.717  14.783  68.722  1.00  0.00    -0.253 C  
BRANCH   4   5
HETATM    5  C   UNL     1     -11.978  13.919  68.720  1.00  0.00    -0.393 C  
BRANCH   5   6
HETATM    6  C   UNL     1     -12.385  13.435  70.123  1.00  0.00    -0.252 C  
HETATM    7  O   UNL     1     -11.727  14.281  71.063  1.00  0.00    -0.473 OA 
HETATM    8  H   UNL     1     -11.978  13.983  71.929  1.00  0.00     0.000 HD 
BRANCH   6   9
HETATM    9  C   UNL     1     -12.037  11.982  70.374  1.00  0.00    -0.407 C  
HETATM   10  C   UNL     1     -12.660  11.140  71.218  1.00  0.00    -0.503 C  
BRANCH  10  11
HETATM   11  C   UNL     1     -12.168   9.753  71.579  1.00  0.00    -0.493 C  
HETATM   12  C   UNL     1     -13.374   8.846  71.908  1.00  0.00    -0.405 C  
HETATM   13  O   UNL     1     -13.869   9.075  73.220  1.00  0.00    -1.159 OA 
HETATM   14  C   UNL     1     -12.868   7.427  71.766  1.00  0.00    -0.365 C  
HETATM   15  H   UNL     1     -14.611   8.517  73.422  1.00  0.00     0.000 HD 
HETATM   16  C   UNL     1     -11.886   7.578  70.647  1.00  0.00    -0.179 C  
HETATM   17  O   UNL     1     -11.507   6.622  69.980  1.00  0.00    -0.358 OA 
HETATM   18  C   UNL     1     -11.402   9.009  70.460  1.00  0.00    -0.282 C  
BRANCH  18  19
HETATM   19  C   UNL     1      -9.882   9.118  70.663  1.00  0.00    -0.308 C  
BRANCH  19  20
HETATM   20  C   UNL     1      -9.071   8.901  69.411  1.00  0.00    -0.145 C  
HETATM   21  C   UNL     1      -9.204   9.519  68.227  1.00  0.00    -0.132 C  
BRANCH  21  22
HETATM   22  C   UNL     1     -10.225  10.560  67.885  1.00  0.00    -0.213 C  
BRANCH  22  23
HETATM   23  C   UNL     1      -9.904  11.295  66.585  1.00  0.00    -0.235 C  
BRANCH  23  24
HETATM   24  C   UNL     1     -11.204  11.726  65.906  1.00  0.00    -0.345 C  
HETATM   25  C   UNL     1     -11.094  11.753  64.403  1.00  0.00    -0.334 C  
HETATM   26  O   UNL     1     -10.097  11.473  63.760  1.00  0.00    -0.295 OA 
HETATM   27  O   UNL     1     -12.255  12.134  63.819  1.00  0.00    -0.474 OA 
ENDBRANCH  23  24
ENDBRANCH  22  23
ENDBRANCH  21  22
ENDBRANCH  19  20
ENDBRANCH  18  19
ENDBRANCH  10  11
ENDBRANCH   6   9
ENDBRANCH   5   6
ENDBRANCH   4   5
ENDBRANCH   3   4
ENDBRANCH   2   3
TORSDOF 11
ENDMDL
MODEL       68
REMARK 921   NORMALIZED FREE ENERGY PREDICTED BY IDOCK:   -5.27 KCAL/MOL
REMARK 922        TOTAL FREE ENERGY PREDICTED BY IDOCK:  -10.48 KCAL/MOL
REMARK 923 INTER-LIGAND FREE ENERGY PREDICTED BY IDOCK:   -8.51 KCAL/MOL
REMARK 924 INTRA-LIGAND FREE ENERGY PREDICTED BY IDOCK:   -1.96 KCAL/MOL
REMARK 927      BINDING AFFINITY PREDICTED BY RF-SCORE:    0.00 PKD
ROOT
HETATM    1  C   UNL     1     -11.403  16.071  68.753  1.00  0.00    -0.380 C  
HETATM    2  C   UNL     1     -11.019  15.467  70.091  1.00  0.00    -0.336 C  
ENDROOT
BRANCH   2   3
HETATM    3  C   UNL     1     -12.114  15.656  71.142  1.00  0.00    -0.454 C  
BRANCH   3   4
HETATM    4  C   UNL     1     -13.100  14.488  71.093  1.00  0.00    -0.424 C  
BRANCH   4   5
HETATM    5  C   UNL     1     -12.408  13.147  70.842  1.00  0.00    -0.393 C  
BRANCH   5   6
HETATM    6  C   UNL     1     -13.268  11.936  71.243  1.00  0.00     0.024 C  
HETATM    7  O   UNL     1     -13.521  12.048  72.641  1.00  0.00    -0.557 OA 
HETATM    8  H   UNL     1     -14.051  11.301  72.888  1.00  0.00     0.000 HD 
BRANCH   6   9
HETATM    9  C   UNL     1     -12.610  10.609  70.922  1.00  0.00    -0.503 C  
HETATM   10  C   UNL     1     -11.717   9.949  71.681  1.00  0.00    -0.327 C  
BRANCH  10  11
HETATM   11  C   UNL     1     -10.943   8.723  71.241  1.00  0.00    -0.345 C  
HETATM   12  C   UNL     1     -11.743   7.452  71.599  1.00  0.00    -0.279 C  
HETATM   13  O   UNL     1     -11.614   7.111  72.972  1.00  0.00    -0.541 OA 
HETATM   14  C   UNL     1     -11.181   6.355  70.720  1.00  0.00    -0.386 C  
HETATM   15  H   UNL     1     -12.106   6.328  73.192  1.00  0.00     0.000 HD 
HETATM   16  C   UNL     1     -10.841   7.121  69.481  1.00  0.00    -0.225 C  
HETATM   17  O   UNL     1     -10.687   6.570  68.397  1.00  0.00    -0.225 OA 
HETATM   18  C   UNL     1     -10.680   8.615  69.721  1.00  0.00    -0.215 C  
BRANCH  18  19
HETATM   19  C   UNL     1      -9.262   9.091  69.369  1.00  0.00    -0.150 C  
BRANCH  19  20
HETATM   20  C   UNL     1      -9.100  10.589  69.331  1.00  0.00    -0.123 C  
HETATM   21  C   UNL     1      -9.824  11.477  68.631  1.00  0.00    -0.184 C  
BRANCH  21  22
HETATM   22  C   UNL     1     -10.954  11.156  67.702  1.00  0.00    -0.323 C  
BRANCH  22  23
HETATM   23  C   UNL     1     -11.792  12.384  67.349  1.00  0.00    -0.360 C  
BRANCH  23  24
HETATM   24  C   UNL     1     -10.991  13.302  66.425  1.00  0.00    -0.301 C  
HETATM   25  C   UNL     1     -11.854  13.993  65.400  1.00  0.00    -0.359 C  
HETATM   26  O   UNL     1     -13.060  13.861  65.284  1.00  0.00    -0.777 OA 
HETATM   27  O   UNL     1     -11.128  14.802  64.593  1.00  0.00    -0.371 OA 
ENDBRANCH  23  24
ENDBRANCH  22  23
ENDBRANCH  21  22
ENDBRANCH  19  20
ENDBRANCH  18  19
ENDBRANCH  10  11
ENDBRANCH   6   9
ENDBRANCH   5   6
ENDBRANCH   4   5
ENDBRANCH   3   4
ENDBRANCH   2   3
TORSDOF 11
ENDMDL
MODEL       69
REMARK 921   NORMALIZED FREE ENERGY PREDICTED BY IDOCK:   -5.26 KCAL/MOL
REMARK 922        TOTAL FREE ENERGY PREDICTED BY IDOCK:  -10.46 KCAL/MOL
REMARK 923 INTER-LIGAND FREE ENERGY PREDICTED BY IDOCK:   -8.63 KCAL/MOL
REMARK 924 INTRA-LIGAND FREE ENERGY PREDICTED BY IDOCK:   -1.83 KCAL/MOL
REMARK 927      BINDING AFFINITY PREDICTED BY RF-SCORE:    0.00 PKD
ROOT
HETATM    1  C   UNL     1     -10.958  15.458  69.068  1.00  0.00    -0.252 C  
HETATM    2  C   UNL     1      -9.598  14.822  68.850  1.00  0.00    -0.210 C  
ENDROOT
BRANCH   2   3
HETATM    3  C   UNL     1      -8.458  15.825  69.035  1.00  0.00    -0.242 C  
BRANCH   3   4
HETATM    4  C   UNL     1      -8.702  17.066  68.173  1.00  0.00    -0.233 C  
BRANCH   4   5
HETATM    5  C   UNL     1      -8.392  16.823  66.696  1.00  0.00    -0.296 C  
BRANCH   5   6
HETATM    6  C   UNL     1      -9.632  16.927  65.790  1.00  0.00    -0.042 C  
HETATM    7  O   UNL     1     -10.623  17.644  66.520  1.00  0.00    -0.304 OA 
HETATM    8  H   UNL     1     -11.388  17.708  65.961  1.00  0.00     0.000 HD 
BRANCH   6   9
HETATM    9  C   UNL     1     -10.160  15.577  65.350  1.00  0.00    -0.387 C  
HETATM   10  C   UNL     1     -11.356  15.043  65.656  1.00  0.00    -0.297 C  
BRANCH  10  11
HETATM   11  C   UNL     1     -11.772  13.617  65.355  1.00  0.00    -0.347 C  
HETATM   12  C   UNL     1     -11.591  13.333  63.848  1.00  0.00    -0.400 C  
HETATM   13  O   UNL     1     -12.657  13.868  63.075  1.00  0.00    -1.030 OA 
HETATM   14  C   UNL     1     -11.540  11.827  63.720  1.00  0.00    -0.508 C  
HETATM   15  H   UNL     1     -12.546  13.693  62.148  1.00  0.00     0.000 HD 
HETATM   16  C   UNL     1     -10.852  11.448  64.993  1.00  0.00    -0.246 C  
HETATM   17  O   UNL     1     -10.298  10.365  65.137  1.00  0.00    -0.295 OA 
HETATM   18  C   UNL     1     -10.946  12.521  66.070  1.00  0.00    -0.318 C  
BRANCH  18  19
HETATM   19  C   UNL     1     -11.678  12.002  67.317  1.00  0.00    -0.339 C  
BRANCH  19  20
HETATM   20  C   UNL     1     -10.776  11.381  68.353  1.00  0.00    -0.237 C  
HETATM   21  C   UNL     1     -11.048  11.146  69.646  1.00  0.00    -0.297 C  
BRANCH  21  22
HETATM   22  C   UNL     1     -12.325  11.481  70.354  1.00  0.00    -0.390 C  
BRANCH  22  23
HETATM   23  C   UNL     1     -12.609  12.982  70.374  1.00  0.00    -0.165 C  
BRANCH  23  24
HETATM   24  C   UNL     1     -12.948  13.419  71.800  1.00  0.00    -0.435 C  
HETATM   25  C   UNL     1     -13.403  14.854  71.876  1.00  0.00    -0.363 C  
HETATM   26  O   UNL     1     -13.502  15.617  70.931  1.00  0.00    -0.569 OA 
HETATM   27  O   UNL     1     -13.700  15.222  73.145  1.00  0.00    -0.428 OA 
ENDBRANCH  23  24
ENDBRANCH  22  23
ENDBRANCH  21  22
ENDBRANCH  19  20
ENDBRANCH  18  19
ENDBRANCH  10  11
ENDBRANCH   6   9
ENDBRANCH   5   6
ENDBRANCH   4   5
ENDBRANCH   3   4
ENDBRANCH   2   3
TORSDOF 11
ENDMDL
MODEL       70
REMARK 921   NORMALIZED FREE ENERGY PREDICTED BY IDOCK:   -5.25 KCAL/MOL
REMARK 922        TOTAL FREE ENERGY PREDICTED BY IDOCK:  -10.44 KCAL/MOL
REMARK 923 INTER-LIGAND FREE ENERGY PREDICTED BY IDOCK:   -8.38 KCAL/MOL
REMARK 924 INTRA-LIGAND FREE ENERGY PREDICTED BY IDOCK:   -2.06 KCAL/MOL
REMARK 927      BINDING AFFINITY PREDICTED BY RF-SCORE:    0.00 PKD
ROOT
HETATM    1  C   UNL     1     -12.894  13.772  65.304  1.00  0.00    -0.430 C  
HETATM    2  C   UNL     1     -12.083  13.684  64.024  1.00  0.00    -0.474 C  
ENDROOT
BRANCH   2   3
HETATM    3  C   UNL     1     -11.796  12.236  63.624  1.00  0.00    -0.610 C  
BRANCH   3   4
HETATM    4  C   UNL     1     -10.361  11.860  63.997  1.00  0.00    -0.403 C  
BRANCH   4   5
HETATM    5  C   UNL     1     -10.297  10.653  64.934  1.00  0.00    -0.347 C  
BRANCH   5   6
HETATM    6  C   UNL     1      -9.883  11.020  66.370  1.00  0.00    -0.212 C  
HETATM    7  O   UNL     1     -10.896  10.518  67.237  1.00  0.00    -0.275 OA 
HETATM    8  H   UNL     1     -10.640  10.744  68.123  1.00  0.00     0.000 HD 
BRANCH   6   9
HETATM    9  C   UNL     1      -9.695  12.510  66.571  1.00  0.00    -0.249 C  
HETATM   10  C   UNL     1      -8.544  13.143  66.861  1.00  0.00    -0.118 C  
BRANCH  10  11
HETATM   11  C   UNL     1      -8.431  14.607  67.238  1.00  0.00    -0.234 C  
HETATM   12  C   UNL     1      -6.941  15.002  67.331  1.00  0.00    -0.152 C  
HETATM   13  O   UNL     1      -6.354  14.582  68.555  1.00  0.00    -0.079 OA 
HETATM   14  C   UNL     1      -6.911  16.510  67.212  1.00  0.00    -0.208 C  
HETATM   15  H   UNL     1      -5.437  14.826  68.611  1.00  0.00     0.000 HD 
HETATM   16  C   UNL     1      -8.050  16.752  66.273  1.00  0.00    -0.330 C  
HETATM   17  O   UNL     1      -8.159  17.793  65.636  1.00  0.00    -0.518 OA 
HETATM   18  C   UNL     1      -9.046  15.601  66.226  1.00  0.00    -0.376 C  
BRANCH  18  19
HETATM   19  C   UNL     1     -10.445  16.052  66.675  1.00  0.00    -0.304 C  
BRANCH  19  20
HETATM   20  C   UNL     1     -10.453  16.916  67.910  1.00  0.00    -0.344 C  
HETATM   21  C   UNL     1     -10.595  16.526  69.186  1.00  0.00    -0.319 C  
BRANCH  21  22
HETATM   22  C   UNL     1     -10.803  15.121  69.661  1.00  0.00    -0.297 C  
BRANCH  22  23
HETATM   23  C   UNL     1     -12.281  14.741  69.743  1.00  0.00    -0.337 C  
BRANCH  23  24
HETATM   24  C   UNL     1     -12.930  15.464  70.924  1.00  0.00    -0.539 C  
HETATM   25  C   UNL     1     -13.427  14.516  71.985  1.00  0.00    -0.384 C  
HETATM   26  O   UNL     1     -13.343  13.300  71.945  1.00  0.00    -0.418 OA 
HETATM   27  O   UNL     1     -13.996  15.174  73.023  1.00  0.00    -0.424 OA 
ENDBRANCH  23  24
ENDBRANCH  22  23
ENDBRANCH  21  22
ENDBRANCH  19  20
ENDBRANCH  18  19
ENDBRANCH  10  11
ENDBRANCH   6   9
ENDBRANCH   5   6
ENDBRANCH   4   5
ENDBRANCH   3   4
ENDBRANCH   2   3
TORSDOF 11
ENDMDL
MODEL       71
REMARK 921   NORMALIZED FREE ENERGY PREDICTED BY IDOCK:   -5.24 KCAL/MOL
REMARK 922        TOTAL FREE ENERGY PREDICTED BY IDOCK:  -10.43 KCAL/MOL
REMARK 923 INTER-LIGAND FREE ENERGY PREDICTED BY IDOCK:   -8.90 KCAL/MOL
REMARK 924 INTRA-LIGAND FREE ENERGY PREDICTED BY IDOCK:   -1.53 KCAL/MOL
REMARK 927      BINDING AFFINITY PREDICTED BY RF-SCORE:    0.00 PKD
ROOT
HETATM    1  C   UNL     1     -12.400  15.702  74.238  1.00  0.00    -0.813 C  
HETATM    2  C   UNL     1     -12.816  14.966  72.978  1.00  0.00    -0.586 C  
ENDROOT
BRANCH   2   3
HETATM    3  C   UNL     1     -11.869  15.245  71.810  1.00  0.00    -0.473 C  
BRANCH   3   4
HETATM    4  C   UNL     1     -12.118  14.245  70.679  1.00  0.00    -0.417 C  
BRANCH   4   5
HETATM    5  C   UNL     1     -12.343  14.930  69.330  1.00  0.00    -0.168 C  
BRANCH   5   6
HETATM    6  C   UNL     1     -11.615  14.234  68.166  1.00  0.00    -0.332 C  
HETATM    7  O   UNL     1     -12.604  13.905  67.194  1.00  0.00    -0.450 OA 
HETATM    8  H   UNL     1     -12.155  13.476  66.476  1.00  0.00     0.000 HD 
BRANCH   6   9
HETATM    9  C   UNL     1     -10.854  12.997  68.598  1.00  0.00    -0.287 C  
HETATM   10  C   UNL     1     -11.054  11.739  68.167  1.00  0.00    -0.297 C  
BRANCH  10  11
HETATM   11  C   UNL     1     -10.401  10.505  68.758  1.00  0.00    -0.208 C  
HETATM   12  C   UNL     1     -11.266   9.971  69.921  1.00  0.00    -0.275 C  
HETATM   13  O   UNL     1     -11.070  10.716  71.115  1.00  0.00    -0.128 OA 
HETATM   14  C   UNL     1     -10.844   8.531  70.114  1.00  0.00    -0.238 C  
HETATM   15  H   UNL     1     -11.602  10.387  71.830  1.00  0.00     0.000 HD 
HETATM   16  C   UNL     1     -10.534   8.126  68.708  1.00  0.00    -0.174 C  
HETATM   17  O   UNL     1     -10.493   6.951  68.361  1.00  0.00    -0.183 OA 
HETATM   18  C   UNL     1     -10.249   9.308  67.790  1.00  0.00    -0.271 C  
BRANCH  18  19
HETATM   19  C   UNL     1      -8.827   9.240  67.213  1.00  0.00    -0.132 C  
BRANCH  19  20
HETATM   20  C   UNL     1      -8.761   8.793  65.775  1.00  0.00    -0.209 C  
HETATM   21  C   UNL     1      -8.964   9.532  64.673  1.00  0.00    -0.266 C  
BRANCH  21  22
HETATM   22  C   UNL     1      -9.333  10.984  64.641  1.00  0.00    -0.235 C  
BRANCH  22  23
HETATM   23  C   UNL     1     -10.534  11.266  63.740  1.00  0.00    -0.459 C  
BRANCH  23  24
HETATM   24  C   UNL     1     -10.951  12.730  63.887  1.00  0.00    -0.458 C  
HETATM   25  C   UNL     1     -12.410  12.952  63.579  1.00  0.00    -0.434 C  
HETATM   26  O   UNL     1     -13.204  12.090  63.244  1.00  0.00    -0.628 OA 
HETATM   27  O   UNL     1     -12.761  14.253  63.716  1.00  0.00    -0.779 OA 
ENDBRANCH  23  24
ENDBRANCH  22  23
ENDBRANCH  21  22
ENDBRANCH  19  20
ENDBRANCH  18  19
ENDBRANCH  10  11
ENDBRANCH   6   9
ENDBRANCH   5   6
ENDBRANCH   4   5
ENDBRANCH   3   4
ENDBRANCH   2   3
TORSDOF 11
ENDMDL
MODEL       72
REMARK 921   NORMALIZED FREE ENERGY PREDICTED BY IDOCK:   -5.24 KCAL/MOL
REMARK 922        TOTAL FREE ENERGY PREDICTED BY IDOCK:  -10.43 KCAL/MOL
REMARK 923 INTER-LIGAND FREE ENERGY PREDICTED BY IDOCK:   -9.11 KCAL/MOL
REMARK 924 INTRA-LIGAND FREE ENERGY PREDICTED BY IDOCK:   -1.32 KCAL/MOL
REMARK 927      BINDING AFFINITY PREDICTED BY RF-SCORE:    0.00 PKD
ROOT
HETATM    1  C   UNL     1      -6.642  20.543  65.374  1.00  0.00    -0.280 C  
HETATM    2  C   UNL     1      -6.167  19.104  65.458  1.00  0.00    -0.274 C  
ENDROOT
BRANCH   2   3
HETATM    3  C   UNL     1      -6.938  18.304  66.509  1.00  0.00    -0.250 C  
BRANCH   3   4
HETATM    4  C   UNL     1      -7.877  19.227  67.290  1.00  0.00    -0.279 C  
BRANCH   4   5
HETATM    5  C   UNL     1      -9.283  18.645  67.434  1.00  0.00    -0.292 C  
BRANCH   5   6
HETATM    6  C   UNL     1      -9.821  18.026  66.132  1.00  0.00    -0.249 C  
HETATM    7  O   UNL     1     -10.678  18.994  65.533  1.00  0.00    -0.536 OA 
HETATM    8  H   UNL     1     -11.010  18.612  64.729  1.00  0.00     0.000 HD 
BRANCH   6   9
HETATM    9  C   UNL     1     -10.559  16.722  66.355  1.00  0.00    -0.192 C  
HETATM   10  C   UNL     1     -10.752  15.742  65.454  1.00  0.00    -0.420 C  
BRANCH  10  11
HETATM   11  C   UNL     1     -11.653  14.540  65.658  1.00  0.00    -0.344 C  
HETATM   12  C   UNL     1     -11.656  13.675  64.379  1.00  0.00    -0.393 C  
HETATM   13  O   UNL     1     -12.506  14.213  63.375  1.00  0.00    -1.122 OA 
HETATM   14  C   UNL     1     -12.139  12.308  64.813  1.00  0.00    -0.436 C  
HETATM   15  H   UNL     1     -12.508  13.680  62.589  1.00  0.00     0.000 HD 
HETATM   16  C   UNL     1     -11.565  12.219  66.192  1.00  0.00    -0.390 C  
HETATM   17  O   UNL     1     -11.416  11.148  66.768  1.00  0.00    -0.380 OA 
HETATM   18  C   UNL     1     -11.226  13.577  66.791  1.00  0.00    -0.327 C  
BRANCH  18  19
HETATM   19  C   UNL     1     -12.031  13.841  68.073  1.00  0.00    -0.390 C  
BRANCH  19  20
HETATM   20  C   UNL     1     -11.281  14.610  69.131  1.00  0.00    -0.291 C  
HETATM   21  C   UNL     1     -11.678  14.892  70.381  1.00  0.00    -0.347 C  
BRANCH  21  22
HETATM   22  C   UNL     1     -12.991  14.514  70.995  1.00  0.00    -0.423 C  
BRANCH  22  23
HETATM   23  C   UNL     1     -12.833  13.576  72.191  1.00  0.00    -0.330 C  
BRANCH  23  24
HETATM   24  C   UNL     1     -13.606  12.282  71.932  1.00  0.00    -0.195 C  
HETATM   25  C   UNL     1     -12.833  11.303  71.086  1.00  0.00    -0.352 C  
HETATM   26  O   UNL     1     -11.715  11.483  70.635  1.00  0.00    -0.272 OA 
HETATM   27  O   UNL     1     -13.531  10.163  70.869  1.00  0.00    -0.345 OA 
ENDBRANCH  23  24
ENDBRANCH  22  23
ENDBRANCH  21  22
ENDBRANCH  19  20
ENDBRANCH  18  19
ENDBRANCH  10  11
ENDBRANCH   6   9
ENDBRANCH   5   6
ENDBRANCH   4   5
ENDBRANCH   3   4
ENDBRANCH   2   3
TORSDOF 11
ENDMDL
MODEL       73
REMARK 921   NORMALIZED FREE ENERGY PREDICTED BY IDOCK:   -5.23 KCAL/MOL
REMARK 922        TOTAL FREE ENERGY PREDICTED BY IDOCK:  -10.41 KCAL/MOL
REMARK 923 INTER-LIGAND FREE ENERGY PREDICTED BY IDOCK:   -8.45 KCAL/MOL
REMARK 924 INTRA-LIGAND FREE ENERGY PREDICTED BY IDOCK:   -1.96 KCAL/MOL
REMARK 927      BINDING AFFINITY PREDICTED BY RF-SCORE:    0.00 PKD
ROOT
HETATM    1  C   UNL     1      -9.560  15.218  66.148  1.00  0.00    -0.353 C  
HETATM    2  C   UNL     1     -10.574  14.214  66.665  1.00  0.00    -0.278 C  
ENDROOT
BRANCH   2   3
HETATM    3  C   UNL     1     -11.997  14.552  66.218  1.00  0.00    -0.335 C  
BRANCH   3   4
HETATM    4  C   UNL     1     -12.595  13.383  65.432  1.00  0.00    -0.528 C  
BRANCH   4   5
HETATM    5  C   UNL     1     -12.197  13.406  63.956  1.00  0.00    -0.466 C  
BRANCH   5   6
HETATM    6  C   UNL     1     -11.533  12.099  63.486  1.00  0.00    -0.458 C  
HETATM    7  O   UNL     1     -12.512  11.379  62.741  1.00  0.00    -0.929 OA 
HETATM    8  H   UNL     1     -12.102  10.573  62.451  1.00  0.00     0.000 HD 
BRANCH   6   9
HETATM    9  C   UNL     1     -11.003  11.259  64.629  1.00  0.00    -0.281 C  
HETATM   10  C   UNL     1      -9.720  11.146  65.017  1.00  0.00    -0.298 C  
BRANCH  10  11
HETATM   11  C   UNL     1      -9.207  10.154  66.041  1.00  0.00    -0.198 C  
HETATM   12  C   UNL     1      -8.175   9.215  65.378  1.00  0.00    -0.130 C  
HETATM   13  O   UNL     1      -8.799   8.192  64.616  1.00  0.00    -0.397 OA 
HETATM   14  C   UNL     1      -7.374   8.622  66.517  1.00  0.00    -0.081 C  
HETATM   15  H   UNL     1      -8.164   7.614  64.209  1.00  0.00     0.000 HD 
HETATM   16  C   UNL     1      -7.351   9.763  67.484  1.00  0.00    -0.090 C  
HETATM   17  O   UNL     1      -6.521   9.839  68.383  1.00  0.00    -0.054 OA 
HETATM   18  C   UNL     1      -8.466  10.773  67.250  1.00  0.00    -0.124 C  
BRANCH  18  19
HETATM   19  C   UNL     1      -9.393  10.879  68.471  1.00  0.00    -0.181 C  
BRANCH  19  20
HETATM   20  C   UNL     1     -10.863  10.868  68.138  1.00  0.00    -0.283 C  
HETATM   21  C   UNL     1     -11.899  10.935  68.988  1.00  0.00    -0.370 C  
BRANCH  21  22
HETATM   22  C   UNL     1     -11.812  11.011  70.481  1.00  0.00    -0.464 C  
BRANCH  22  23
HETATM   23  C   UNL     1     -12.853  11.954  71.083  1.00  0.00    -0.346 C  
BRANCH  23  24
HETATM   24  C   UNL     1     -12.449  13.403  70.810  1.00  0.00    -0.418 C  
HETATM   25  C   UNL     1     -12.905  14.348  71.893  1.00  0.00    -0.349 C  
HETATM   26  O   UNL     1     -13.530  14.034  72.891  1.00  0.00    -0.647 OA 
HETATM   27  O   UNL     1     -12.537  15.626  71.635  1.00  0.00    -0.387 OA 
ENDBRANCH  23  24
ENDBRANCH  22  23
ENDBRANCH  21  22
ENDBRANCH  19  20
ENDBRANCH  18  19
ENDBRANCH  10  11
ENDBRANCH   6   9
ENDBRANCH   5   6
ENDBRANCH   4   5
ENDBRANCH   3   4
ENDBRANCH   2   3
TORSDOF 11
ENDMDL
MODEL       74
REMARK 921   NORMALIZED FREE ENERGY PREDICTED BY IDOCK:   -5.22 KCAL/MOL
REMARK 922        TOTAL FREE ENERGY PREDICTED BY IDOCK:  -10.39 KCAL/MOL
REMARK 923 INTER-LIGAND FREE ENERGY PREDICTED BY IDOCK:   -8.39 KCAL/MOL
REMARK 924 INTRA-LIGAND FREE ENERGY PREDICTED BY IDOCK:   -2.00 KCAL/MOL
REMARK 927      BINDING AFFINITY PREDICTED BY RF-SCORE:    0.00 PKD
ROOT
HETATM    1  C   UNL     1     -11.050   6.329  68.051  1.00  0.00    -0.365 C  
HETATM    2  C   UNL     1      -9.546   6.386  68.240  1.00  0.00    -0.123 C  
ENDROOT
BRANCH   2   3
HETATM    3  C   UNL     1      -9.049   5.322  69.221  1.00  0.00    -0.138 C  
BRANCH   3   4
HETATM    4  C   UNL     1     -10.206   4.822  70.088  1.00  0.00    -0.259 C  
BRANCH   4   5
HETATM    5  C   UNL     1      -9.810   4.661  71.556  1.00  0.00    -0.259 C  
BRANCH   5   6
HETATM    6  C   UNL     1     -10.613   5.568  72.505  1.00  0.00    -0.226 C  
HETATM    7  O   UNL     1     -11.491   4.724  73.245  1.00  0.00    -0.332 OA 
HETATM    8  H   UNL     1     -11.986   5.284  73.831  1.00  0.00     0.000 HD 
BRANCH   6   9
HETATM    9  C   UNL     1     -11.392   6.646  71.778  1.00  0.00    -0.320 C  
HETATM   10  C   UNL     1     -11.181   7.972  71.842  1.00  0.00    -0.335 C  
BRANCH  10  11
HETATM   11  C   UNL     1     -12.096   9.026  71.250  1.00  0.00    -0.375 C  
HETATM   12  C   UNL     1     -13.023   9.583  72.353  1.00  0.00    -0.317 C  
HETATM   13  O   UNL     1     -14.110   8.709  72.624  1.00  0.00    -0.651 OA 
HETATM   14  C   UNL     1     -13.521  10.913  71.832  1.00  0.00    -0.306 C  
HETATM   15  H   UNL     1     -14.680   9.053  73.303  1.00  0.00     0.000 HD 
HETATM   16  C   UNL     1     -12.332  11.390  71.061  1.00  0.00    -0.343 C  
HETATM   17  O   UNL     1     -12.174  12.570  70.770  1.00  0.00    -0.369 OA 
HETATM   18  C   UNL     1     -11.384  10.267  70.662  1.00  0.00    -0.431 C  
BRANCH  18  19
HETATM   19  C   UNL     1     -11.254  10.158  69.135  1.00  0.00    -0.234 C  
BRANCH  19  20
HETATM   20  C   UNL     1      -9.847   9.928  68.646  1.00  0.00    -0.168 C  
HETATM   21  C   UNL     1      -9.416   9.867  67.376  1.00  0.00    -0.173 C  
BRANCH  21  22
HETATM   22  C   UNL     1     -10.266   9.995  66.150  1.00  0.00    -0.283 C  
BRANCH  22  23
HETATM   23  C   UNL     1     -10.047  11.318  65.417  1.00  0.00    -0.314 C  
BRANCH  23  24
HETATM   24  C   UNL     1     -10.917  11.357  64.161  1.00  0.00    -0.411 C  
HETATM   25  C   UNL     1     -12.237  12.048  64.389  1.00  0.00    -0.266 C  
HETATM   26  O   UNL     1     -12.611  12.533  65.442  1.00  0.00    -0.656 OA 
HETATM   27  O   UNL     1     -12.993  12.075  63.265  1.00  0.00    -0.736 OA 
ENDBRANCH  23  24
ENDBRANCH  22  23
ENDBRANCH  21  22
ENDBRANCH  19  20
ENDBRANCH  18  19
ENDBRANCH  10  11
ENDBRANCH   6   9
ENDBRANCH   5   6
ENDBRANCH   4   5
ENDBRANCH   3   4
ENDBRANCH   2   3
TORSDOF 11
ENDMDL
MODEL       75
REMARK 921   NORMALIZED FREE ENERGY PREDICTED BY IDOCK:   -5.22 KCAL/MOL
REMARK 922        TOTAL FREE ENERGY PREDICTED BY IDOCK:  -10.39 KCAL/MOL
REMARK 923 INTER-LIGAND FREE ENERGY PREDICTED BY IDOCK:   -9.55 KCAL/MOL
REMARK 924 INTRA-LIGAND FREE ENERGY PREDICTED BY IDOCK:   -0.84 KCAL/MOL
REMARK 927      BINDING AFFINITY PREDICTED BY RF-SCORE:    0.00 PKD
ROOT
HETATM    1  C   UNL     1      -8.557   7.242  72.130  1.00  0.00    -0.126 C  
HETATM    2  C   UNL     1      -9.319   6.731  73.338  1.00  0.00    -0.171 C  
ENDROOT
BRANCH   2   3
HETATM    3  C   UNL     1     -10.727   7.323  73.423  1.00  0.00    -0.415 C  
BRANCH   3   4
HETATM    4  C   UNL     1     -11.591   6.796  72.276  1.00  0.00    -0.311 C  
BRANCH   4   5
HETATM    5  C   UNL     1     -12.261   7.919  71.483  1.00  0.00    -0.338 C  
BRANCH   5   6
HETATM    6  C   UNL     1     -13.066   8.889  72.367  1.00  0.00    -0.418 C  
HETATM    7  O   UNL     1     -14.282   8.229  72.710  1.00  0.00    -0.702 OA 
HETATM    8  H   UNL     1     -14.778   8.828  73.255  1.00  0.00     0.000 HD 
BRANCH   6   9
HETATM    9  C   UNL     1     -13.347  10.214  71.689  1.00  0.00    -0.463 C  
HETATM   10  C   UNL     1     -12.437  11.111  71.269  1.00  0.00    -0.466 C  
BRANCH  10  11
HETATM   11  C   UNL     1     -12.760  12.504  70.767  1.00  0.00    -0.209 C  
HETATM   12  C   UNL     1     -13.028  13.437  71.969  1.00  0.00    -0.310 C  
HETATM   13  O   UNL     1     -14.336  13.262  72.496  1.00  0.00    -0.662 OA 
HETATM   14  C   UNL     1     -12.847  14.843  71.442  1.00  0.00    -0.416 C  
HETATM   15  H   UNL     1     -14.500  13.836  73.236  1.00  0.00     0.000 HD 
HETATM   16  C   UNL     1     -11.757  14.641  70.437  1.00  0.00    -0.295 C  
HETATM   17  O   UNL     1     -11.065  15.567  70.031  1.00  0.00    -0.261 OA 
HETATM   18  C   UNL     1     -11.633  13.198  69.967  1.00  0.00    -0.202 C  
BRANCH  18  19
HETATM   19  C   UNL     1     -11.874  13.079  68.454  1.00  0.00    -0.370 C  
BRANCH  19  20
HETATM   20  C   UNL     1     -10.869  13.813  67.604  1.00  0.00    -0.264 C  
HETATM   21  C   UNL     1     -10.004  13.294  66.719  1.00  0.00    -0.263 C  
BRANCH  21  22
HETATM   22  C   UNL     1      -9.835  11.841  66.399  1.00  0.00    -0.237 C  
BRANCH  22  23
HETATM   23  C   UNL     1     -10.760  11.375  65.275  1.00  0.00    -0.326 C  
BRANCH  23  24
HETATM   24  C   UNL     1     -10.894  12.483  64.231  1.00  0.00    -0.400 C  
HETATM   25  C   UNL     1     -12.330  12.822  63.924  1.00  0.00    -0.426 C  
HETATM   26  O   UNL     1     -13.307  12.293  64.427  1.00  0.00    -0.786 OA 
HETATM   27  O   UNL     1     -12.430  13.806  62.999  1.00  0.00    -0.712 OA 
ENDBRANCH  23  24
ENDBRANCH  22  23
ENDBRANCH  21  22
ENDBRANCH  19  20
ENDBRANCH  18  19
ENDBRANCH  10  11
ENDBRANCH   6   9
ENDBRANCH   5   6
ENDBRANCH   4   5
ENDBRANCH   3   4
ENDBRANCH   2   3
TORSDOF 11
ENDMDL
MODEL       76
REMARK 921   NORMALIZED FREE ENERGY PREDICTED BY IDOCK:   -5.21 KCAL/MOL
REMARK 922        TOTAL FREE ENERGY PREDICTED BY IDOCK:  -10.38 KCAL/MOL
REMARK 923 INTER-LIGAND FREE ENERGY PREDICTED BY IDOCK:   -7.59 KCAL/MOL
REMARK 924 INTRA-LIGAND FREE ENERGY PREDICTED BY IDOCK:   -2.79 KCAL/MOL
REMARK 927      BINDING AFFINITY PREDICTED BY RF-SCORE:    0.00 PKD
ROOT
HETATM    1  C   UNL     1     -11.771  12.217  67.923  1.00  0.00    -0.410 C  
HETATM    2  C   UNL     1     -12.011  13.716  67.907  1.00  0.00    -0.382 C  
ENDROOT
BRANCH   2   3
HETATM    3  C   UNL     1     -12.161  14.259  66.485  1.00  0.00    -0.454 C  
BRANCH   3   4
HETATM    4  C   UNL     1     -12.523  13.126  65.523  1.00  0.00    -0.516 C  
BRANCH   4   5
HETATM    5  C   UNL     1     -12.139  13.441  64.077  1.00  0.00    -0.506 C  
BRANCH   5   6
HETATM    6  C   UNL     1     -11.089  12.474  63.502  1.00  0.00    -0.439 C  
HETATM    7  O   UNL     1     -11.799  11.438  62.830  1.00  0.00    -0.874 OA 
HETATM    8  H   UNL     1     -11.151  10.841  62.476  1.00  0.00     0.000 HD 
BRANCH   6   9
HETATM    9  C   UNL     1     -10.172  11.897  64.562  1.00  0.00    -0.320 C  
HETATM   10  C   UNL     1     -10.108  10.612  64.956  1.00  0.00    -0.388 C  
BRANCH  10  11
HETATM   11  C   UNL     1      -9.315  10.108  66.145  1.00  0.00    -0.217 C  
HETATM   12  C   UNL     1      -9.805   8.696  66.532  1.00  0.00    -0.278 C  
HETATM   13  O   UNL     1     -11.011   8.739  67.282  1.00  0.00    -0.419 OA 
HETATM   14  C   UNL     1      -8.688   8.086  67.349  1.00  0.00    -0.124 C  
HETATM   15  H   UNL     1     -11.313   7.870  67.520  1.00  0.00     0.000 HD 
HETATM   16  C   UNL     1      -7.484   8.683  66.691  1.00  0.00    -0.089 C  
HETATM   17  O   UNL     1      -6.367   8.192  66.806  1.00  0.00    -0.053 OA 
HETATM   18  C   UNL     1      -7.794   9.953  65.909  1.00  0.00    -0.116 C  
BRANCH  18  19
HETATM   19  C   UNL     1      -7.021  11.158  66.467  1.00  0.00    -0.126 C  
BRANCH  19  20
HETATM   20  C   UNL     1      -7.437  11.573  67.855  1.00  0.00    -0.103 C  
HETATM   21  C   UNL     1      -8.022  12.722  68.230  1.00  0.00    -0.151 C  
BRANCH  21  22
HETATM   22  C   UNL     1      -8.370  13.868  67.331  1.00  0.00    -0.208 C  
BRANCH  22  23
HETATM   23  C   UNL     1      -8.735  15.134  68.106  1.00  0.00    -0.167 C  
BRANCH  23  24
HETATM   24  C   UNL     1      -9.111  16.244  67.124  1.00  0.00    -0.217 C  
HETATM   25  C   UNL     1     -10.190  17.151  67.657  1.00  0.00    -0.329 C  
HETATM   26  O   UNL     1     -10.732  17.046  68.744  1.00  0.00    -0.337 OA 
HETATM   27  O   UNL     1     -10.508  18.129  66.776  1.00  0.00    -0.365 OA 
ENDBRANCH  23  24
ENDBRANCH  22  23
ENDBRANCH  21  22
ENDBRANCH  19  20
ENDBRANCH  18  19
ENDBRANCH  10  11
ENDBRANCH   6   9
ENDBRANCH   5   6
ENDBRANCH   4   5
ENDBRANCH   3   4
ENDBRANCH   2   3
TORSDOF 11
ENDMDL
MODEL       77
REMARK 921   NORMALIZED FREE ENERGY PREDICTED BY IDOCK:   -5.20 KCAL/MOL
REMARK 922        TOTAL FREE ENERGY PREDICTED BY IDOCK:  -10.36 KCAL/MOL
REMARK 923 INTER-LIGAND FREE ENERGY PREDICTED BY IDOCK:   -8.53 KCAL/MOL
REMARK 924 INTRA-LIGAND FREE ENERGY PREDICTED BY IDOCK:   -1.84 KCAL/MOL
REMARK 927      BINDING AFFINITY PREDICTED BY RF-SCORE:    0.00 PKD
ROOT
HETATM    1  C   UNL     1     -11.201   6.494  72.058  1.00  0.00    -0.312 C  
HETATM    2  C   UNL     1     -11.560   7.690  71.195  1.00  0.00    -0.301 C  
ENDROOT
BRANCH   2   3
HETATM    3  C   UNL     1     -11.190   9.014  71.866  1.00  0.00    -0.438 C  
BRANCH   3   4
HETATM    4  C   UNL     1     -12.289  10.052  71.627  1.00  0.00    -0.486 C  
BRANCH   4   5
HETATM    5  C   UNL     1     -12.455  10.398  70.147  1.00  0.00    -0.247 C  
BRANCH   5   6
HETATM    6  C   UNL     1     -11.522  11.528  69.678  1.00  0.00    -0.301 C  
HETATM    7  O   UNL     1     -11.828  12.675  70.467  1.00  0.00    -0.525 OA 
HETATM    8  H   UNL     1     -11.251  13.372  70.178  1.00  0.00     0.000 HD 
BRANCH   6   9
HETATM    9  C   UNL     1     -11.660  11.839  68.202  1.00  0.00    -0.391 C  
HETATM   10  C   UNL     1     -10.661  11.982  67.313  1.00  0.00    -0.269 C  
BRANCH  10  11
HETATM   11  C   UNL     1     -10.830  12.476  65.891  1.00  0.00    -0.302 C  
HETATM   12  C   UNL     1     -10.370  11.380  64.905  1.00  0.00    -0.292 C  
HETATM   13  O   UNL     1      -8.955  11.335  64.782  1.00  0.00    -0.370 OA 
HETATM   14  C   UNL     1     -11.012  11.728  63.580  1.00  0.00    -0.499 C  
HETATM   15  H   UNL     1      -8.672  10.660  64.175  1.00  0.00     0.000 HD 
HETATM   16  C   UNL     1     -12.311  12.318  64.030  1.00  0.00    -0.475 C  
HETATM   17  O   UNL     1     -13.278  12.409  63.284  1.00  0.00    -0.489 OA 
HETATM   18  C   UNL     1     -12.282  12.806  65.472  1.00  0.00    -0.519 C  
BRANCH  18  19
HETATM   19  C   UNL     1     -12.553  14.316  65.558  1.00  0.00    -0.429 C  
BRANCH  19  20
HETATM   20  C   UNL     1     -11.392  15.181  65.138  1.00  0.00    -0.357 C  
HETATM   21  C   UNL     1     -10.597  15.928  65.920  1.00  0.00    -0.348 C  
BRANCH  21  22
HETATM   22  C   UNL     1     -10.715  16.084  67.405  1.00  0.00    -0.306 C  
BRANCH  22  23
HETATM   23  C   UNL     1      -9.678  15.261  68.167  1.00  0.00    -0.212 C  
BRANCH  23  24
HETATM   24  C   UNL     1      -8.304  15.920  68.033  1.00  0.00    -0.161 C  
HETATM   25  C   UNL     1      -7.288  15.020  67.378  1.00  0.00    -0.201 C  
HETATM   26  O   UNL     1      -7.496  13.884  66.985  1.00  0.00     0.014 OA 
HETATM   27  O   UNL     1      -6.080  15.621  67.266  1.00  0.00    -0.310 OA 
ENDBRANCH  23  24
ENDBRANCH  22  23
ENDBRANCH  21  22
ENDBRANCH  19  20
ENDBRANCH  18  19
ENDBRANCH  10  11
ENDBRANCH   6   9
ENDBRANCH   5   6
ENDBRANCH   4   5
ENDBRANCH   3   4
ENDBRANCH   2   3
TORSDOF 11
ENDMDL
MODEL       78
REMARK 921   NORMALIZED FREE ENERGY PREDICTED BY IDOCK:   -5.20 KCAL/MOL
REMARK 922        TOTAL FREE ENERGY PREDICTED BY IDOCK:  -10.35 KCAL/MOL
REMARK 923 INTER-LIGAND FREE ENERGY PREDICTED BY IDOCK:   -9.06 KCAL/MOL
REMARK 924 INTRA-LIGAND FREE ENERGY PREDICTED BY IDOCK:   -1.30 KCAL/MOL
REMARK 927      BINDING AFFINITY PREDICTED BY RF-SCORE:    0.00 PKD
ROOT
HETATM    1  C   UNL     1      -9.353   9.065  65.960  1.00  0.00    -0.305 C  
HETATM    2  C   UNL     1     -10.006  10.383  65.589  1.00  0.00    -0.337 C  
ENDROOT
BRANCH   2   3
HETATM    3  C   UNL     1     -10.139  10.552  64.074  1.00  0.00    -0.321 C  
BRANCH   3   4
HETATM    4  C   UNL     1     -11.184  11.621  63.752  1.00  0.00    -0.498 C  
BRANCH   4   5
HETATM    5  C   UNL     1     -11.019  12.878  64.607  1.00  0.00    -0.357 C  
BRANCH   5   6
HETATM    6  C   UNL     1     -12.307  13.284  65.346  1.00  0.00    -0.479 C  
HETATM    7  O   UNL     1     -12.843  14.411  64.659  1.00  0.00    -0.643 OA 
HETATM    8  H   UNL     1     -13.638  14.662  65.115  1.00  0.00     0.000 HD 
BRANCH   6   9
HETATM    9  C   UNL     1     -12.076  13.606  66.808  1.00  0.00    -0.445 C  
HETATM   10  C   UNL     1     -11.273  12.943  67.660  1.00  0.00    -0.317 C  
BRANCH  10  11
HETATM   11  C   UNL     1     -11.213  13.180  69.156  1.00  0.00    -0.303 C  
HETATM   12  C   UNL     1     -11.317  14.693  69.444  1.00  0.00    -0.284 C  
HETATM   13  O   UNL     1     -10.081  15.361  69.231  1.00  0.00    -0.223 OA 
HETATM   14  C   UNL     1     -11.743  14.804  70.892  1.00  0.00    -0.360 C  
HETATM   15  H   UNL     1     -10.145  16.292  69.409  1.00  0.00     0.000 HD 
HETATM   16  C   UNL     1     -12.622  13.602  71.030  1.00  0.00    -0.363 C  
HETATM   17  O   UNL     1     -13.449  13.500  71.930  1.00  0.00    -0.402 OA 
HETATM   18  C   UNL     1     -12.357  12.537  69.975  1.00  0.00    -0.154 C  
BRANCH  18  19
HETATM   19  C   UNL     1     -11.906  11.214  70.613  1.00  0.00    -0.403 C  
BRANCH  19  20
HETATM   20  C   UNL     1     -13.036  10.315  71.045  1.00  0.00    -0.488 C  
HETATM   21  C   UNL     1     -12.962   9.198  71.784  1.00  0.00    -0.448 C  
BRANCH  21  22
HETATM   22  C   UNL     1     -11.710   8.582  72.329  1.00  0.00    -0.443 C  
BRANCH  22  23
HETATM   23  C   UNL     1     -11.694   7.061  72.189  1.00  0.00    -0.321 C  
BRANCH  23  24
HETATM   24  C   UNL     1     -12.014   6.677  70.744  1.00  0.00    -0.412 C  
HETATM   25  C   UNL     1     -10.820   6.122  70.011  1.00  0.00    -0.341 C  
HETATM   26  O   UNL     1      -9.703   5.980  70.479  1.00  0.00    -0.169 OA 
HETATM   27  O   UNL     1     -11.123   5.785  68.734  1.00  0.00    -0.243 OA 
ENDBRANCH  23  24
ENDBRANCH  22  23
ENDBRANCH  21  22
ENDBRANCH  19  20
ENDBRANCH  18  19
ENDBRANCH  10  11
ENDBRANCH   6   9
ENDBRANCH   5   6
ENDBRANCH   4   5
ENDBRANCH   3   4
ENDBRANCH   2   3
TORSDOF 11
ENDMDL
MODEL       79
REMARK 921   NORMALIZED FREE ENERGY PREDICTED BY IDOCK:   -5.20 KCAL/MOL
REMARK 922        TOTAL FREE ENERGY PREDICTED BY IDOCK:  -10.35 KCAL/MOL
REMARK 923 INTER-LIGAND FREE ENERGY PREDICTED BY IDOCK:   -8.96 KCAL/MOL
REMARK 924 INTRA-LIGAND FREE ENERGY PREDICTED BY IDOCK:   -1.39 KCAL/MOL
REMARK 927      BINDING AFFINITY PREDICTED BY RF-SCORE:    0.00 PKD
ROOT
HETATM    1  C   UNL     1     -10.547   5.224  70.013  1.00  0.00    -0.300 C  
HETATM    2  C   UNL     1      -9.164   4.599  70.034  1.00  0.00    -0.186 C  
ENDROOT
BRANCH   2   3
HETATM    3  C   UNL     1      -8.636   4.419  71.458  1.00  0.00    -0.128 C  
BRANCH   3   4
HETATM    4  C   UNL     1      -7.676   5.556  71.812  1.00  0.00    -0.107 C  
BRANCH   4   5
HETATM    5  C   UNL     1      -8.123   6.335  73.049  1.00  0.00    -0.107 C  
BRANCH   5   6
HETATM    6  C   UNL     1      -8.267   7.847  72.796  1.00  0.00    -0.144 C  
HETATM    7  O   UNL     1      -7.760   8.513  73.949  1.00  0.00    -0.354 OA 
HETATM    8  H   UNL     1      -7.848   9.445  73.793  1.00  0.00     0.000 HD 
BRANCH   6   9
HETATM    9  C   UNL     1      -9.695   8.268  72.518  1.00  0.00    -0.368 C  
HETATM   10  C   UNL     1     -10.272   8.405  71.310  1.00  0.00    -0.269 C  
BRANCH  10  11
HETATM   11  C   UNL     1     -11.641   9.007  71.067  1.00  0.00    -0.360 C  
HETATM   12  C   UNL     1     -12.541   8.759  72.297  1.00  0.00    -0.394 C  
HETATM   13  O   UNL     1     -13.063   7.438  72.315  1.00  0.00    -0.503 OA 
HETATM   14  C   UNL     1     -13.658   9.775  72.196  1.00  0.00    -0.432 C  
HETATM   15  H   UNL     1     -13.617   7.285  73.072  1.00  0.00     0.000 HD 
HETATM   16  C   UNL     1     -12.943  10.936  71.582  1.00  0.00    -0.464 C  
HETATM   17  O   UNL     1     -13.380  12.079  71.648  1.00  0.00    -0.337 OA 
HETATM   18  C   UNL     1     -11.663  10.540  70.859  1.00  0.00    -0.431 C  
BRANCH  18  19
HETATM   19  C   UNL     1     -11.730  10.895  69.365  1.00  0.00    -0.397 C  
BRANCH  19  20
HETATM   20  C   UNL     1     -10.591  11.754  68.879  1.00  0.00    -0.211 C  
HETATM   21  C   UNL     1     -10.656  12.984  68.347  1.00  0.00    -0.264 C  
BRANCH  21  22
HETATM   22  C   UNL     1     -11.906  13.771  68.096  1.00  0.00    -0.411 C  
BRANCH  22  23
HETATM   23  C   UNL     1     -11.972  14.334  66.677  1.00  0.00    -0.454 C  
BRANCH  23  24
HETATM   24  C   UNL     1     -12.146  13.187  65.680  1.00  0.00    -0.501 C  
HETATM   25  C   UNL     1     -12.389  13.672  64.273  1.00  0.00    -0.335 C  
HETATM   26  O   UNL     1     -12.450  14.839  63.926  1.00  0.00    -0.811 OA 
HETATM   27  O   UNL     1     -12.538  12.644  63.404  1.00  0.00    -0.695 OA 
ENDBRANCH  23  24
ENDBRANCH  22  23
ENDBRANCH  21  22
ENDBRANCH  19  20
ENDBRANCH  18  19
ENDBRANCH  10  11
ENDBRANCH   6   9
ENDBRANCH   5   6
ENDBRANCH   4   5
ENDBRANCH   3   4
ENDBRANCH   2   3
TORSDOF 11
ENDMDL
MODEL       80
REMARK 921   NORMALIZED FREE ENERGY PREDICTED BY IDOCK:   -5.20 KCAL/MOL
REMARK 922        TOTAL FREE ENERGY PREDICTED BY IDOCK:  -10.35 KCAL/MOL
REMARK 923 INTER-LIGAND FREE ENERGY PREDICTED BY IDOCK:   -8.33 KCAL/MOL
REMARK 924 INTRA-LIGAND FREE ENERGY PREDICTED BY IDOCK:   -2.03 KCAL/MOL
REMARK 927      BINDING AFFINITY PREDICTED BY RF-SCORE:    0.00 PKD
ROOT
HETATM    1  C   UNL     1      -9.013  10.162  64.924  1.00  0.00    -0.230 C  
HETATM    2  C   UNL     1     -10.356  10.694  65.388  1.00  0.00    -0.303 C  
ENDROOT
BRANCH   2   3
HETATM    3  C   UNL     1     -10.210  11.744  66.491  1.00  0.00    -0.240 C  
BRANCH   3   4
HETATM    4  C   UNL     1     -11.455  11.752  67.380  1.00  0.00    -0.375 C  
BRANCH   4   5
HETATM    5  C   UNL     1     -11.609  13.059  68.159  1.00  0.00    -0.379 C  
BRANCH   5   6
HETATM    6  C   UNL     1     -12.107  12.851  69.600  1.00  0.00    -0.226 C  
HETATM    7  O   UNL     1     -11.297  13.666  70.443  1.00  0.00    -0.497 OA 
HETATM    8  H   UNL     1     -11.605  13.538  71.332  1.00  0.00     0.000 HD 
BRANCH   6   9
HETATM    9  C   UNL     1     -12.056  11.403  70.043  1.00  0.00    -0.417 C  
HETATM   10  C   UNL     1     -12.544  10.895  71.188  1.00  0.00    -0.532 C  
BRANCH  10  11
HETATM   11  C   UNL     1     -12.309   9.481  71.680  1.00  0.00    -0.480 C  
HETATM   12  C   UNL     1     -13.657   8.732  71.764  1.00  0.00    -0.410 C  
HETATM   13  O   UNL     1     -14.385   9.078  72.935  1.00  0.00    -1.047 OA 
HETATM   14  C   UNL     1     -13.306   7.260  71.767  1.00  0.00    -0.367 C  
HETATM   15  H   UNL     1     -15.214   8.617  72.986  1.00  0.00     0.000 HD 
HETATM   16  C   UNL     1     -12.101   7.245  70.881  1.00  0.00    -0.288 C  
HETATM   17  O   UNL     1     -11.709   6.221  70.333  1.00  0.00    -0.367 OA 
HETATM   18  C   UNL     1     -11.420   8.602  70.768  1.00  0.00    -0.293 C  
BRANCH  18  19
HETATM   19  C   UNL     1      -9.975   8.549  71.288  1.00  0.00    -0.284 C  
BRANCH  19  20
HETATM   20  C   UNL     1      -8.968   9.225  70.392  1.00  0.00    -0.278 C  
HETATM   21  C   UNL     1      -8.888   9.169  69.054  1.00  0.00    -0.139 C  
BRANCH  21  22
HETATM   22  C   UNL     1      -9.789   8.385  68.149  1.00  0.00    -0.196 C  
BRANCH  22  23
HETATM   23  C   UNL     1      -9.262   6.979  67.868  1.00  0.00    -0.125 C  
BRANCH  23  24
HETATM   24  C   UNL     1     -10.369   6.135  67.234  1.00  0.00    -0.272 C  
HETATM   25  C   UNL     1      -9.871   5.288  66.091  1.00  0.00    -0.165 C  
HETATM   26  O   UNL     1      -8.723   5.251  65.683  1.00  0.00    -0.136 OA 
HETATM   27  O   UNL     1     -10.864   4.547  65.543  1.00  0.00    -0.280 OA 
ENDBRANCH  23  24
ENDBRANCH  22  23
ENDBRANCH  21  22
ENDBRANCH  19  20
ENDBRANCH  18  19
ENDBRANCH  10  11
ENDBRANCH   6   9
ENDBRANCH   5   6
ENDBRANCH   4   5
ENDBRANCH   3   4
ENDBRANCH   2   3
TORSDOF 11
ENDMDL
MODEL       81
REMARK 921   NORMALIZED FREE ENERGY PREDICTED BY IDOCK:   -5.19 KCAL/MOL
REMARK 922        TOTAL FREE ENERGY PREDICTED BY IDOCK:  -10.34 KCAL/MOL
REMARK 923 INTER-LIGAND FREE ENERGY PREDICTED BY IDOCK:   -8.29 KCAL/MOL
REMARK 924 INTRA-LIGAND FREE ENERGY PREDICTED BY IDOCK:   -2.04 KCAL/MOL
REMARK 927      BINDING AFFINITY PREDICTED BY RF-SCORE:    0.00 PKD
ROOT
HETATM    1  C   UNL     1     -12.025  12.500  70.100  1.00  0.00    -0.377 C  
HETATM    2  C   UNL     1     -11.263  12.972  68.876  1.00  0.00    -0.326 C  
ENDROOT
BRANCH   2   3
HETATM    3  C   UNL     1     -12.055  12.753  67.586  1.00  0.00    -0.200 C  
BRANCH   3   4
HETATM    4  C   UNL     1     -12.106  14.046  66.771  1.00  0.00    -0.480 C  
BRANCH   4   5
HETATM    5  C   UNL     1     -12.817  13.866  65.429  1.00  0.00    -0.466 C  
BRANCH   5   6
HETATM    6  C   UNL     1     -11.853  13.831  64.230  1.00  0.00    -0.417 C  
HETATM    7  O   UNL     1     -12.632  13.528  63.077  1.00  0.00    -0.886 OA 
HETATM    8  H   UNL     1     -12.037  13.507  62.337  1.00  0.00     0.000 HD 
BRANCH   6   9
HETATM    9  C   UNL     1     -10.731  12.826  64.400  1.00  0.00    -0.398 C  
HETATM   10  C   UNL     1     -10.819  11.492  64.257  1.00  0.00    -0.421 C  
BRANCH  10  11
HETATM   11  C   UNL     1      -9.725  10.507  64.618  1.00  0.00    -0.369 C  
HETATM   12  C   UNL     1      -8.858  10.220  63.372  1.00  0.00    -0.221 C  
HETATM   13  O   UNL     1      -9.482   9.293  62.493  1.00  0.00    -0.568 OA 
HETATM   14  C   UNL     1      -7.555   9.662  63.902  1.00  0.00    -0.127 C  
HETATM   15  H   UNL     1      -8.948   9.116  61.727  1.00  0.00     0.000 HD 
HETATM   16  C   UNL     1      -7.411  10.423  65.182  1.00  0.00    -0.093 C  
HETATM   17  O   UNL     1      -6.333  10.539  65.753  1.00  0.00    -0.113 OA 
HETATM   18  C   UNL     1      -8.727  10.992  65.696  1.00  0.00    -0.162 C  
BRANCH  18  19
HETATM   19  C   UNL     1      -9.083  10.420  67.077  1.00  0.00    -0.153 C  
BRANCH  19  20
HETATM   20  C   UNL     1     -10.212   9.421  67.063  1.00  0.00    -0.322 C  
HETATM   21  C   UNL     1     -10.656   8.666  68.080  1.00  0.00    -0.189 C  
BRANCH  21  22
HETATM   22  C   UNL     1     -10.095   8.640  69.468  1.00  0.00    -0.203 C  
BRANCH  22  23
HETATM   23  C   UNL     1     -11.020   7.942  70.464  1.00  0.00    -0.250 C  
BRANCH  23  24
HETATM   24  C   UNL     1     -11.893   8.982  71.167  1.00  0.00    -0.362 C  
HETATM   25  C   UNL     1     -13.153   8.389  71.744  1.00  0.00    -0.351 C  
HETATM   26  O   UNL     1     -13.480   7.217  71.679  1.00  0.00    -0.379 OA 
HETATM   27  O   UNL     1     -13.912   9.324  72.365  1.00  0.00    -0.460 OA 
ENDBRANCH  23  24
ENDBRANCH  22  23
ENDBRANCH  21  22
ENDBRANCH  19  20
ENDBRANCH  18  19
ENDBRANCH  10  11
ENDBRANCH   6   9
ENDBRANCH   5   6
ENDBRANCH   4   5
ENDBRANCH   3   4
ENDBRANCH   2   3
TORSDOF 11
ENDMDL
MODEL       82
REMARK 921   NORMALIZED FREE ENERGY PREDICTED BY IDOCK:   -5.17 KCAL/MOL
REMARK 922        TOTAL FREE ENERGY PREDICTED BY IDOCK:  -10.31 KCAL/MOL
REMARK 923 INTER-LIGAND FREE ENERGY PREDICTED BY IDOCK:   -7.34 KCAL/MOL
REMARK 924 INTRA-LIGAND FREE ENERGY PREDICTED BY IDOCK:   -2.97 KCAL/MOL
REMARK 927      BINDING AFFINITY PREDICTED BY RF-SCORE:    0.00 PKD
ROOT
HETATM    1  C   UNL     1     -12.327  12.162  63.577  1.00  0.00    -0.682 C  
HETATM    2  C   UNL     1     -11.873  13.532  64.044  1.00  0.00    -0.476 C  
ENDROOT
BRANCH   2   3
HETATM    3  C   UNL     1     -12.632  13.996  65.289  1.00  0.00    -0.495 C  
BRANCH   3   4
HETATM    4  C   UNL     1     -12.387  13.028  66.447  1.00  0.00    -0.227 C  
BRANCH   4   5
HETATM    5  C   UNL     1     -12.090  13.751  67.762  1.00  0.00    -0.325 C  
BRANCH   5   6
HETATM    6  C   UNL     1     -12.074  12.812  68.981  1.00  0.00    -0.144 C  
HETATM    7  O   UNL     1     -11.253  13.428  69.970  1.00  0.00    -0.487 OA 
HETATM    8  H   UNL     1     -11.243  12.849  70.722  1.00  0.00     0.000 HD 
BRANCH   6   9
HETATM    9  C   UNL     1     -11.569  11.422  68.653  1.00  0.00    -0.384 C  
HETATM   10  C   UNL     1     -10.672  10.706  69.354  1.00  0.00    -0.281 C  
BRANCH  10  11
HETATM   11  C   UNL     1     -10.053   9.401  68.894  1.00  0.00    -0.201 C  
HETATM   12  C   UNL     1     -10.516   8.256  69.821  1.00  0.00    -0.220 C  
HETATM   13  O   UNL     1      -9.792   8.234  71.043  1.00  0.00    -0.178 OA 
HETATM   14  C   UNL     1     -10.285   6.981  69.039  1.00  0.00    -0.191 C  
HETATM   15  H   UNL     1     -10.077   7.529  71.612  1.00  0.00     0.000 HD 
HETATM   16  C   UNL     1     -10.566   7.439  67.643  1.00  0.00    -0.239 C  
HETATM   17  O   UNL     1     -10.837   6.654  66.742  1.00  0.00    -0.320 OA 
HETATM   18  C   UNL     1     -10.447   8.947  67.469  1.00  0.00    -0.337 C  
BRANCH  18  19
HETATM   19  C   UNL     1      -9.355   9.310  66.451  1.00  0.00    -0.247 C  
BRANCH  19  20
HETATM   20  C   UNL     1      -9.673  10.515  65.602  1.00  0.00    -0.289 C  
HETATM   21  C   UNL     1      -9.221  11.770  65.752  1.00  0.00    -0.148 C  
BRANCH  21  22
HETATM   22  C   UNL     1      -8.305  12.253  66.834  1.00  0.00    -0.137 C  
BRANCH  22  23
HETATM   23  C   UNL     1      -8.664  13.655  67.326  1.00  0.00    -0.223 C  
BRANCH  23  24
HETATM   24  C   UNL     1      -9.040  14.535  66.133  1.00  0.00    -0.083 C  
HETATM   25  C   UNL     1      -9.458  15.924  66.544  1.00  0.00    -0.273 C  
HETATM   26  O   UNL     1      -9.507  16.340  67.688  1.00  0.00    -0.219 OA 
HETATM   27  O   UNL     1      -9.785  16.689  65.475  1.00  0.00    -0.538 OA 
ENDBRANCH  23  24
ENDBRANCH  22  23
ENDBRANCH  21  22
ENDBRANCH  19  20
ENDBRANCH  18  19
ENDBRANCH  10  11
ENDBRANCH   6   9
ENDBRANCH   5   6
ENDBRANCH   4   5
ENDBRANCH   3   4
ENDBRANCH   2   3
TORSDOF 11
ENDMDL
MODEL       83
REMARK 921   NORMALIZED FREE ENERGY PREDICTED BY IDOCK:   -5.17 KCAL/MOL
REMARK 922        TOTAL FREE ENERGY PREDICTED BY IDOCK:  -10.31 KCAL/MOL
REMARK 923 INTER-LIGAND FREE ENERGY PREDICTED BY IDOCK:   -8.51 KCAL/MOL
REMARK 924 INTRA-LIGAND FREE ENERGY PREDICTED BY IDOCK:   -1.80 KCAL/MOL
REMARK 927      BINDING AFFINITY PREDICTED BY RF-SCORE:    0.00 PKD
ROOT
HETATM    1  C   UNL     1      -9.207   8.670  66.199  1.00  0.00    -0.271 C  
HETATM    2  C   UNL     1      -9.355   9.548  64.970  1.00  0.00    -0.294 C  
ENDROOT
BRANCH   2   3
HETATM    3  C   UNL     1     -10.025  10.884  65.296  1.00  0.00    -0.330 C  
BRANCH   3   4
HETATM    4  C   UNL     1     -10.950  11.303  64.152  1.00  0.00    -0.376 C  
BRANCH   4   5
HETATM    5  C   UNL     1     -10.921  12.810  63.897  1.00  0.00    -0.458 C  
BRANCH   5   6
HETATM    6  C   UNL     1     -12.181  13.536  64.399  1.00  0.00    -0.390 C  
HETATM    7  O   UNL     1     -12.420  14.622  63.509  1.00  0.00    -1.069 OA 
HETATM    8  H   UNL     1     -13.198  15.070  63.819  1.00  0.00     0.000 HD 
BRANCH   6   9
HETATM    9  C   UNL     1     -12.052  14.030  65.826  1.00  0.00    -0.445 C  
HETATM   10  C   UNL     1     -10.913  14.344  66.468  1.00  0.00    -0.316 C  
BRANCH  10  11
HETATM   11  C   UNL     1     -10.808  14.653  67.948  1.00  0.00    -0.261 C  
HETATM   12  C   UNL     1     -10.707  16.181  68.150  1.00  0.00    -0.315 C  
HETATM   13  O   UNL     1      -9.396  16.665  67.898  1.00  0.00    -0.217 OA 
HETATM   14  C   UNL     1     -11.102  16.429  69.590  1.00  0.00    -0.306 C  
HETATM   15  H   UNL     1      -9.334  17.605  68.023  1.00  0.00     0.000 HD 
HETATM   16  C   UNL     1     -12.132  15.364  69.797  1.00  0.00    -0.347 C  
HETATM   17  O   UNL     1     -12.957  15.423  70.702  1.00  0.00    -0.435 OA 
HETATM   18  C   UNL     1     -12.021  14.216  68.803  1.00  0.00    -0.367 C  
BRANCH  18  19
HETATM   19  C   UNL     1     -11.743  12.883  69.515  1.00  0.00    -0.387 C  
BRANCH  19  20
HETATM   20  C   UNL     1     -11.807  11.674  68.617  1.00  0.00    -0.370 C  
HETATM   21  C   UNL     1     -11.373  10.431  68.878  1.00  0.00    -0.278 C  
BRANCH  21  22
HETATM   22  C   UNL     1     -10.697   9.979  70.136  1.00  0.00    -0.361 C  
BRANCH  22  23
HETATM   23  C   UNL     1      -9.250   9.548  69.904  1.00  0.00    -0.242 C  
BRANCH  23  24
HETATM   24  C   UNL     1      -8.889   8.424  70.875  1.00  0.00    -0.185 C  
HETATM   25  C   UNL     1      -7.601   8.684  71.614  1.00  0.00    -0.106 C  
HETATM   26  O   UNL     1      -6.894   9.668  71.481  1.00  0.00    -0.318 OA 
HETATM   27  O   UNL     1      -7.299   7.679  72.470  1.00  0.00    -0.071 OA 
ENDBRANCH  23  24
ENDBRANCH  22  23
ENDBRANCH  21  22
ENDBRANCH  19  20
ENDBRANCH  18  19
ENDBRANCH  10  11
ENDBRANCH   6   9
ENDBRANCH   5   6
ENDBRANCH   4   5
ENDBRANCH   3   4
ENDBRANCH   2   3
TORSDOF 11
ENDMDL
MODEL       84
REMARK 921   NORMALIZED FREE ENERGY PREDICTED BY IDOCK:   -5.16 KCAL/MOL
REMARK 922        TOTAL FREE ENERGY PREDICTED BY IDOCK:  -10.29 KCAL/MOL
REMARK 923 INTER-LIGAND FREE ENERGY PREDICTED BY IDOCK:   -8.40 KCAL/MOL
REMARK 924 INTRA-LIGAND FREE ENERGY PREDICTED BY IDOCK:   -1.89 KCAL/MOL
REMARK 927      BINDING AFFINITY PREDICTED BY RF-SCORE:    0.00 PKD
ROOT
HETATM    1  C   UNL     1      -5.852   9.314  67.631  1.00  0.00    -0.045 C  
HETATM    2  C   UNL     1      -6.811   8.203  68.020  1.00  0.00    -0.073 C  
ENDROOT
BRANCH   2   3
HETATM    3  C   UNL     1      -7.266   8.321  69.475  1.00  0.00    -0.061 C  
BRANCH   3   4
HETATM    4  C   UNL     1      -8.794   8.365  69.548  1.00  0.00    -0.145 C  
BRANCH   4   5
HETATM    5  C   UNL     1      -9.313   9.675  70.142  1.00  0.00    -0.294 C  
BRANCH   5   6
HETATM    6  C   UNL     1     -10.694  10.083  69.598  1.00  0.00    -0.255 C  
HETATM    7  O   UNL     1     -11.309   8.901  69.093  1.00  0.00    -0.417 OA 
HETATM    8  H   UNL     1     -12.161   9.153  68.757  1.00  0.00     0.000 HD 
BRANCH   6   9
HETATM    9  C   UNL     1     -10.616  11.149  68.524  1.00  0.00    -0.219 C  
HETATM   10  C   UNL     1     -11.117  11.073  67.278  1.00  0.00    -0.359 C  
BRANCH  10  11
HETATM   11  C   UNL     1     -10.857  12.081  66.176  1.00  0.00    -0.325 C  
HETATM   12  C   UNL     1     -10.093  11.397  65.021  1.00  0.00    -0.274 C  
HETATM   13  O   UNL     1      -8.707  11.265  65.305  1.00  0.00    -0.368 OA 
HETATM   14  C   UNL     1     -10.310  12.279  63.811  1.00  0.00    -0.464 C  
HETATM   15  H   UNL     1      -8.237  10.844  64.594  1.00  0.00     0.000 HD 
HETATM   16  C   UNL     1     -11.698  12.779  64.059  1.00  0.00    -0.426 C  
HETATM   17  O   UNL     1     -12.395  13.239  63.161  1.00  0.00    -0.682 OA 
HETATM   18  C   UNL     1     -12.121  12.684  65.518  1.00  0.00    -0.515 C  
BRANCH  18  19
HETATM   19  C   UNL     1     -12.441  14.069  66.101  1.00  0.00    -0.467 C  
BRANCH  19  20
HETATM   20  C   UNL     1     -11.229  14.859  66.527  1.00  0.00    -0.335 C  
HETATM   21  C   UNL     1     -10.984  15.407  67.727  1.00  0.00    -0.311 C  
BRANCH  21  22
HETATM   22  C   UNL     1     -11.894  15.368  68.916  1.00  0.00    -0.350 C  
BRANCH  22  23
HETATM   23  C   UNL     1     -11.350  14.495  70.046  1.00  0.00    -0.274 C  
BRANCH  23  24
HETATM   24  C   UNL     1     -12.493  13.693  70.668  1.00  0.00    -0.417 C  
HETATM   25  C   UNL     1     -13.043  14.336  71.916  1.00  0.00    -0.365 C  
HETATM   26  O   UNL     1     -12.648  15.378  72.409  1.00  0.00    -0.325 OA 
HETATM   27  O   UNL     1     -14.055  13.614  72.451  1.00  0.00    -0.637 OA 
ENDBRANCH  23  24
ENDBRANCH  22  23
ENDBRANCH  21  22
ENDBRANCH  19  20
ENDBRANCH  18  19
ENDBRANCH  10  11
ENDBRANCH   6   9
ENDBRANCH   5   6
ENDBRANCH   4   5
ENDBRANCH   3   4
ENDBRANCH   2   3
TORSDOF 11
ENDMDL
MODEL       85
REMARK 921   NORMALIZED FREE ENERGY PREDICTED BY IDOCK:   -5.14 KCAL/MOL
REMARK 922        TOTAL FREE ENERGY PREDICTED BY IDOCK:  -10.26 KCAL/MOL
REMARK 923 INTER-LIGAND FREE ENERGY PREDICTED BY IDOCK:   -8.54 KCAL/MOL
REMARK 924 INTRA-LIGAND FREE ENERGY PREDICTED BY IDOCK:   -1.72 KCAL/MOL
REMARK 927      BINDING AFFINITY PREDICTED BY RF-SCORE:    0.00 PKD
ROOT
HETATM    1  C   UNL     1     -13.556  14.998  72.609  1.00  0.00    -0.566 C  
HETATM    2  C   UNL     1     -13.733  13.562  72.149  1.00  0.00    -0.654 C  
ENDROOT
BRANCH   2   3
HETATM    3  C   UNL     1     -12.554  13.081  71.302  1.00  0.00    -0.373 C  
BRANCH   3   4
HETATM    4  C   UNL     1     -12.538  11.552  71.240  1.00  0.00    -0.452 C  
BRANCH   4   5
HETATM    5  C   UNL     1     -13.557  10.918  72.188  1.00  0.00    -0.092 C  
BRANCH   5   6
HETATM    6  C   UNL     1     -13.555   9.379  72.140  1.00  0.00    -0.457 C  
HETATM    7  O   UNL     1     -13.939   8.921  73.433  1.00  0.00    -1.236 OA 
HETATM    8  H   UNL     1     -13.938   7.972  73.403  1.00  0.00     0.000 HD 
BRANCH   6   9
HETATM    9  C   UNL     1     -12.212   8.800  71.742  1.00  0.00    -0.415 C  
HETATM   10  C   UNL     1     -11.365   8.118  72.533  1.00  0.00    -0.469 C  
BRANCH  10  11
HETATM   11  C   UNL     1      -9.954   7.719  72.152  1.00  0.00    -0.249 C  
HETATM   12  C   UNL     1      -9.264   7.044  73.359  1.00  0.00    -0.153 C  
HETATM   13  O   UNL     1      -8.801   7.996  74.307  1.00  0.00    -0.413 OA 
HETATM   14  C   UNL     1      -8.109   6.257  72.780  1.00  0.00    -0.105 C  
HETATM   15  H   UNL     1      -8.377   7.580  75.048  1.00  0.00     0.000 HD 
HETATM   16  C   UNL     1      -8.677   5.828  71.465  1.00  0.00    -0.133 C  
HETATM   17  O   UNL     1      -8.214   4.886  70.831  1.00  0.00    -0.091 OA 
HETATM   18  C   UNL     1      -9.843   6.690  71.002  1.00  0.00    -0.196 C  
BRANCH  18  19
HETATM   19  C   UNL     1      -9.533   7.384  69.667  1.00  0.00    -0.156 C  
BRANCH  19  20
HETATM   20  C   UNL     1      -9.135   8.832  69.797  1.00  0.00    -0.151 C  
HETATM   21  C   UNL     1      -9.545   9.869  69.050  1.00  0.00    -0.188 C  
BRANCH  21  22
HETATM   22  C   UNL     1     -10.486   9.799  67.887  1.00  0.00    -0.288 C  
BRANCH  22  23
HETATM   23  C   UNL     1     -10.058  10.701  66.729  1.00  0.00    -0.272 C  
BRANCH  23  24
HETATM   24  C   UNL     1     -10.191  12.166  67.147  1.00  0.00    -0.226 C  
HETATM   25  C   UNL     1     -11.506  12.773  66.727  1.00  0.00    -0.343 C  
HETATM   26  O   UNL     1     -12.391  12.197  66.119  1.00  0.00    -0.536 OA 
HETATM   27  O   UNL     1     -11.606  14.069  67.107  1.00  0.00    -0.332 OA 
ENDBRANCH  23  24
ENDBRANCH  22  23
ENDBRANCH  21  22
ENDBRANCH  19  20
ENDBRANCH  18  19
ENDBRANCH  10  11
ENDBRANCH   6   9
ENDBRANCH   5   6
ENDBRANCH   4   5
ENDBRANCH   3   4
ENDBRANCH   2   3
TORSDOF 11
ENDMDL
MODEL       86
REMARK 921   NORMALIZED FREE ENERGY PREDICTED BY IDOCK:   -5.12 KCAL/MOL
REMARK 922        TOTAL FREE ENERGY PREDICTED BY IDOCK:  -10.23 KCAL/MOL
REMARK 923 INTER-LIGAND FREE ENERGY PREDICTED BY IDOCK:   -8.01 KCAL/MOL
REMARK 924 INTRA-LIGAND FREE ENERGY PREDICTED BY IDOCK:   -2.22 KCAL/MOL
REMARK 927      BINDING AFFINITY PREDICTED BY RF-SCORE:    0.00 PKD
ROOT
HETATM    1  C   UNL     1     -11.663   6.150  72.471  1.00  0.00    -0.259 C  
HETATM    2  C   UNL     1     -12.034   6.818  71.160  1.00  0.00    -0.421 C  
ENDROOT
BRANCH   2   3
HETATM    3  C   UNL     1     -10.933   7.755  70.660  1.00  0.00    -0.255 C  
BRANCH   3   4
HETATM    4  C   UNL     1     -11.211   9.187  71.120  1.00  0.00    -0.395 C  
BRANCH   4   5
HETATM    5  C   UNL     1     -10.888  10.222  70.042  1.00  0.00    -0.364 C  
BRANCH   5   6
HETATM    6  C   UNL     1     -12.045  11.200  69.772  1.00  0.00    -0.344 C  
HETATM    7  O   UNL     1     -13.241  10.426  69.722  1.00  0.00    -0.541 OA 
HETATM    8  H   UNL     1     -13.955  11.029  69.555  1.00  0.00     0.000 HD 
BRANCH   6   9
HETATM    9  C   UNL     1     -11.865  11.993  68.494  1.00  0.00    -0.369 C  
HETATM   10  C   UNL     1     -11.409  11.530  67.317  1.00  0.00    -0.359 C  
BRANCH  10  11
HETATM   11  C   UNL     1     -11.066  12.392  66.119  1.00  0.00    -0.340 C  
HETATM   12  C   UNL     1     -11.265  11.577  64.822  1.00  0.00    -0.188 C  
HETATM   13  O   UNL     1     -10.176  10.700  64.573  1.00  0.00    -0.336 OA 
HETATM   14  C   UNL     1     -11.393  12.600  63.714  1.00  0.00    -0.529 C  
HETATM   15  H   UNL     1     -10.298  10.199  63.775  1.00  0.00     0.000 HD 
HETATM   16  C   UNL     1     -12.096  13.713  64.423  1.00  0.00    -0.427 C  
HETATM   17  O   UNL     1     -12.704  14.589  63.819  1.00  0.00    -0.780 OA 
HETATM   18  C   UNL     1     -11.945  13.653  65.937  1.00  0.00    -0.438 C  
BRANCH  18  19
HETATM   19  C   UNL     1     -11.237  14.904  66.481  1.00  0.00    -0.335 C  
BRANCH  19  20
HETATM   20  C   UNL     1      -9.783  15.010  66.097  1.00  0.00    -0.334 C  
HETATM   21  C   UNL     1      -8.709  14.749  66.859  1.00  0.00    -0.264 C  
BRANCH  21  22
HETATM   22  C   UNL     1      -8.730  14.308  68.290  1.00  0.00    -0.179 C  
BRANCH  22  23
HETATM   23  C   UNL     1      -8.267  12.863  68.468  1.00  0.00    -0.065 C  
BRANCH  23  24
HETATM   24  C   UNL     1      -7.477  12.424  67.234  1.00  0.00    -0.135 C  
HETATM   25  C   UNL     1      -7.523  10.933  67.015  1.00  0.00    -0.122 C  
HETATM   26  O   UNL     1      -8.111  10.131  67.719  1.00  0.00    -0.108 OA 
HETATM   27  O   UNL     1      -6.820  10.564  65.918  1.00  0.00    -0.124 OA 
ENDBRANCH  23  24
ENDBRANCH  22  23
ENDBRANCH  21  22
ENDBRANCH  19  20
ENDBRANCH  18  19
ENDBRANCH  10  11
ENDBRANCH   6   9
ENDBRANCH   5   6
ENDBRANCH   4   5
ENDBRANCH   3   4
ENDBRANCH   2   3
TORSDOF 11
ENDMDL
MODEL       87
REMARK 921   NORMALIZED FREE ENERGY PREDICTED BY IDOCK:   -5.12 KCAL/MOL
REMARK 922        TOTAL FREE ENERGY PREDICTED BY IDOCK:  -10.22 KCAL/MOL
REMARK 923 INTER-LIGAND FREE ENERGY PREDICTED BY IDOCK:   -7.90 KCAL/MOL
REMARK 924 INTRA-LIGAND FREE ENERGY PREDICTED BY IDOCK:   -2.32 KCAL/MOL
REMARK 927      BINDING AFFINITY PREDICTED BY RF-SCORE:    0.00 PKD
ROOT
HETATM    1  C   UNL     1      -8.683   9.204  63.936  1.00  0.00    -0.154 C  
HETATM    2  C   UNL     1      -8.906   8.959  65.417  1.00  0.00    -0.234 C  
ENDROOT
BRANCH   2   3
HETATM    3  C   UNL     1      -9.952   9.908  66.005  1.00  0.00    -0.338 C  
BRANCH   3   4
HETATM    4  C   UNL     1     -10.469  10.859  64.924  1.00  0.00    -0.352 C  
BRANCH   4   5
HETATM    5  C   UNL     1     -10.951  12.192  65.497  1.00  0.00    -0.343 C  
BRANCH   5   6
HETATM    6  C   UNL     1     -10.824  13.361  64.505  1.00  0.00    -0.406 C  
HETATM    7  O   UNL     1      -9.952  12.931  63.463  1.00  0.00    -0.681 OA 
HETATM    8  H   UNL     1      -9.874  13.653  62.851  1.00  0.00     0.000 HD 
BRANCH   6   9
HETATM    9  C   UNL     1     -10.306  14.631  65.149  1.00  0.00    -0.431 C  
HETATM   10  C   UNL     1      -9.457  14.717  66.188  1.00  0.00    -0.324 C  
BRANCH  10  11
HETATM   11  C   UNL     1      -9.110  15.998  66.922  1.00  0.00    -0.251 C  
HETATM   12  C   UNL     1      -7.780  16.561  66.375  1.00  0.00    -0.259 C  
HETATM   13  O   UNL     1      -6.654  15.881  66.913  1.00  0.00    -0.282 OA 
HETATM   14  C   UNL     1      -7.763  18.022  66.771  1.00  0.00    -0.252 C  
HETATM   15  H   UNL     1      -5.835  16.229  66.577  1.00  0.00     0.000 HD 
HETATM   16  C   UNL     1      -9.215  18.366  66.680  1.00  0.00    -0.304 C  
HETATM   17  O   UNL     1      -9.605  19.523  66.577  1.00  0.00    -0.333 OA 
HETATM   18  C   UNL     1     -10.129  17.150  66.760  1.00  0.00    -0.303 C  
BRANCH  18  19
HETATM   19  C   UNL     1     -11.068  17.233  67.973  1.00  0.00    -0.065 C  
BRANCH  19  20
HETATM   20  C   UNL     1     -10.474  16.706  69.255  1.00  0.00    -0.333 C  
HETATM   21  C   UNL     1     -10.961  15.743  70.052  1.00  0.00    -0.344 C  
BRANCH  21  22
HETATM   22  C   UNL     1     -12.238  14.988  69.845  1.00  0.00    -0.351 C  
BRANCH  22  23
HETATM   23  C   UNL     1     -12.110  13.898  68.782  1.00  0.00    -0.344 C  
BRANCH  23  24
HETATM   24  C   UNL     1     -10.940  12.977  69.132  1.00  0.00    -0.190 C  
HETATM   25  C   UNL     1     -11.295  11.517  69.014  1.00  0.00    -0.276 C  
HETATM   26  O   UNL     1     -12.381  11.075  68.683  1.00  0.00    -0.539 OA 
HETATM   27  O   UNL     1     -10.247  10.717  69.325  1.00  0.00    -0.212 OA 
ENDBRANCH  23  24
ENDBRANCH  22  23
ENDBRANCH  21  22
ENDBRANCH  19  20
ENDBRANCH  18  19
ENDBRANCH  10  11
ENDBRANCH   6   9
ENDBRANCH   5   6
ENDBRANCH   4   5
ENDBRANCH   3   4
ENDBRANCH   2   3
TORSDOF 11
ENDMDL
MODEL       88
REMARK 921   NORMALIZED FREE ENERGY PREDICTED BY IDOCK:   -5.11 KCAL/MOL
REMARK 922        TOTAL FREE ENERGY PREDICTED BY IDOCK:  -10.21 KCAL/MOL
REMARK 923 INTER-LIGAND FREE ENERGY PREDICTED BY IDOCK:   -8.92 KCAL/MOL
REMARK 924 INTRA-LIGAND FREE ENERGY PREDICTED BY IDOCK:   -1.29 KCAL/MOL
REMARK 927      BINDING AFFINITY PREDICTED BY RF-SCORE:    0.00 PKD
ROOT
HETATM    1  C   UNL     1     -13.056  11.798  71.601  1.00  0.00    -0.443 C  
HETATM    2  C   UNL     1     -12.100  10.943  70.790  1.00  0.00    -0.469 C  
ENDROOT
BRANCH   2   3
HETATM    3  C   UNL     1     -11.937   9.543  71.384  1.00  0.00    -0.464 C  
BRANCH   3   4
HETATM    4  C   UNL     1     -10.456   9.163  71.440  1.00  0.00    -0.414 C  
BRANCH   4   5
HETATM    5  C   UNL     1      -9.728   9.447  70.126  1.00  0.00    -0.274 C  
BRANCH   5   6
HETATM    6  C   UNL     1     -10.394   8.783  68.907  1.00  0.00    -0.212 C  
HETATM    7  O   UNL     1      -9.567   7.687  68.526  1.00  0.00    -0.146 OA 
HETATM    8  H   UNL     1      -9.978   7.277  67.774  1.00  0.00     0.000 HD 
BRANCH   6   9
HETATM    9  C   UNL     1     -10.591   9.736  67.746  1.00  0.00    -0.320 C  
HETATM   10  C   UNL     1      -9.990  10.927  67.572  1.00  0.00    -0.201 C  
BRANCH  10  11
HETATM   11  C   UNL     1     -10.351  11.933  66.498  1.00  0.00    -0.249 C  
HETATM   12  C   UNL     1     -10.287  11.254  65.112  1.00  0.00    -0.295 C  
HETATM   13  O   UNL     1      -8.953  11.140  64.637  1.00  0.00    -0.344 OA 
HETATM   14  C   UNL     1     -11.111  12.127  64.192  1.00  0.00    -0.424 C  
HETATM   15  H   UNL     1      -8.914  10.723  63.784  1.00  0.00     0.000 HD 
HETATM   16  C   UNL     1     -12.176  12.611  65.124  1.00  0.00    -0.481 C  
HETATM   17  O   UNL     1     -13.243  13.058  64.718  1.00  0.00    -0.709 OA 
HETATM   18  C   UNL     1     -11.781  12.516  66.591  1.00  0.00    -0.453 C  
BRANCH  18  19
HETATM   19  C   UNL     1     -11.771  13.900  67.260  1.00  0.00    -0.418 C  
BRANCH  19  20
HETATM   20  C   UNL     1     -10.542  14.182  68.084  1.00  0.00    -0.249 C  
HETATM   21  C   UNL     1      -9.771  15.281  68.063  1.00  0.00    -0.211 C  
BRANCH  21  22
HETATM   22  C   UNL     1      -9.960  16.474  67.178  1.00  0.00    -0.266 C  
BRANCH  22  23
HETATM   23  C   UNL     1     -10.676  17.624  67.885  1.00  0.00    -0.341 C  
BRANCH  23  24
HETATM   24  C   UNL     1      -9.683  18.756  68.154  1.00  0.00    -0.384 C  
HETATM   25  C   UNL     1      -9.694  19.807  67.073  1.00  0.00    -0.381 C  
HETATM   26  O   UNL     1     -10.398  19.794  66.078  1.00  0.00    -0.471 OA 
HETATM   27  O   UNL     1      -8.811  20.802  67.329  1.00  0.00    -0.304 OA 
ENDBRANCH  23  24
ENDBRANCH  22  23
ENDBRANCH  21  22
ENDBRANCH  19  20
ENDBRANCH  18  19
ENDBRANCH  10  11
ENDBRANCH   6   9
ENDBRANCH   5   6
ENDBRANCH   4   5
ENDBRANCH   3   4
ENDBRANCH   2   3
TORSDOF 11
ENDMDL
MODEL       89
REMARK 921   NORMALIZED FREE ENERGY PREDICTED BY IDOCK:   -5.10 KCAL/MOL
REMARK 922        TOTAL FREE ENERGY PREDICTED BY IDOCK:  -10.19 KCAL/MOL
REMARK 923 INTER-LIGAND FREE ENERGY PREDICTED BY IDOCK:   -9.09 KCAL/MOL
REMARK 924 INTRA-LIGAND FREE ENERGY PREDICTED BY IDOCK:   -1.10 KCAL/MOL
REMARK 927      BINDING AFFINITY PREDICTED BY RF-SCORE:    0.00 PKD
ROOT
HETATM    1  C   UNL     1      -9.986   4.917  65.975  1.00  0.00    -0.243 C  
HETATM    2  C   UNL     1     -10.615   5.676  67.129  1.00  0.00    -0.344 C  
ENDROOT
BRANCH   2   3
HETATM    3  C   UNL     1     -10.160   5.139  68.487  1.00  0.00    -0.214 C  
BRANCH   3   4
HETATM    4  C   UNL     1     -10.948   5.812  69.611  1.00  0.00    -0.385 C  
BRANCH   4   5
HETATM    5  C   UNL     1     -10.274   5.652  70.975  1.00  0.00    -0.281 C  
BRANCH   5   6
HETATM    6  C   UNL     1     -10.949   6.477  72.086  1.00  0.00    -0.249 C  
HETATM    7  O   UNL     1     -11.731   5.573  72.860  1.00  0.00    -0.480 OA 
HETATM    8  H   UNL     1     -12.147   6.081  73.546  1.00  0.00     0.000 HD 
BRANCH   6   9
HETATM    9  C   UNL     1     -11.806   7.605  71.550  1.00  0.00    -0.323 C  
HETATM   10  C   UNL     1     -11.419   8.875  71.330  1.00  0.00    -0.381 C  
BRANCH  10  11
HETATM   11  C   UNL     1     -12.350  10.016  70.973  1.00  0.00    -0.458 C  
HETATM   12  C   UNL     1     -12.991  10.582  72.259  1.00  0.00    -0.089 C  
HETATM   13  O   UNL     1     -14.065   9.774  72.717  1.00  0.00    -0.691 OA 
HETATM   14  C   UNL     1     -13.480  11.967  71.895  1.00  0.00    -0.305 C  
HETATM   15  H   UNL     1     -14.459  10.122  73.509  1.00  0.00     0.000 HD 
HETATM   16  C   UNL     1     -12.436  12.397  70.913  1.00  0.00    -0.274 C  
HETATM   17  O   UNL     1     -12.249  13.576  70.635  1.00  0.00    -0.351 OA 
HETATM   18  C   UNL     1     -11.677  11.232  70.293  1.00  0.00    -0.415 C  
BRANCH  18  19
HETATM   19  C   UNL     1     -11.865  11.188  68.768  1.00  0.00    -0.388 C  
BRANCH  19  20
HETATM   20  C   UNL     1     -10.763  11.856  67.987  1.00  0.00    -0.242 C  
HETATM   21  C   UNL     1     -10.845  12.961  67.230  1.00  0.00    -0.277 C  
BRANCH  21  22
HETATM   22  C   UNL     1     -12.082  13.767  66.977  1.00  0.00    -0.436 C  
BRANCH  22  23
HETATM   23  C   UNL     1     -12.329  14.013  65.490  1.00  0.00    -0.503 C  
BRANCH  23  24
HETATM   24  C   UNL     1     -11.337  13.194  64.663  1.00  0.00    -0.363 C  
HETATM   25  C   UNL     1     -12.011  12.143  63.820  1.00  0.00    -0.513 C  
HETATM   26  O   UNL     1     -13.210  11.932  63.773  1.00  0.00    -0.655 OA 
HETATM   27  O   UNL     1     -11.117  11.429  63.094  1.00  0.00    -0.235 OA 
ENDBRANCH  23  24
ENDBRANCH  22  23
ENDBRANCH  21  22
ENDBRANCH  19  20
ENDBRANCH  18  19
ENDBRANCH  10  11
ENDBRANCH   6   9
ENDBRANCH   5   6
ENDBRANCH   4   5
ENDBRANCH   3   4
ENDBRANCH   2   3
TORSDOF 11
ENDMDL
MODEL       90
REMARK 921   NORMALIZED FREE ENERGY PREDICTED BY IDOCK:   -5.10 KCAL/MOL
REMARK 922        TOTAL FREE ENERGY PREDICTED BY IDOCK:  -10.19 KCAL/MOL
REMARK 923 INTER-LIGAND FREE ENERGY PREDICTED BY IDOCK:   -8.81 KCAL/MOL
REMARK 924 INTRA-LIGAND FREE ENERGY PREDICTED BY IDOCK:   -1.39 KCAL/MOL
REMARK 927      BINDING AFFINITY PREDICTED BY RF-SCORE:    0.00 PKD
ROOT
HETATM    1  C   UNL     1     -11.349  14.305  64.628  1.00  0.00    -0.375 C  
HETATM    2  C   UNL     1     -10.739  13.113  65.342  1.00  0.00    -0.308 C  
ENDROOT
BRANCH   2   3
HETATM    3  C   UNL     1     -11.750  12.405  66.245  1.00  0.00    -0.457 C  
BRANCH   3   4
HETATM    4  C   UNL     1     -11.136  12.145  67.622  1.00  0.00    -0.320 C  
BRANCH   4   5
HETATM    5  C   UNL     1     -11.292  13.337  68.567  1.00  0.00    -0.319 C  
BRANCH   5   6
HETATM    6  C   UNL     1     -12.086  13.002  69.842  1.00  0.00    -0.277 C  
HETATM    7  O   UNL     1     -11.554  13.810  70.889  1.00  0.00    -0.499 OA 
HETATM    8  H   UNL     1     -12.044  13.603  71.676  1.00  0.00     0.000 HD 
BRANCH   6   9
HETATM    9  C   UNL     1     -12.022  11.534  70.212  1.00  0.00    -0.455 C  
HETATM   10  C   UNL     1     -12.524  10.962  71.320  1.00  0.00    -0.493 C  
BRANCH  10  11
HETATM   11  C   UNL     1     -12.277   9.528  71.744  1.00  0.00    -0.465 C  
HETATM   12  C   UNL     1     -13.626   8.786  71.868  1.00  0.00    -0.424 C  
HETATM   13  O   UNL     1     -14.292   9.091  73.085  1.00  0.00    -1.136 OA 
HETATM   14  C   UNL     1     -13.290   7.313  71.796  1.00  0.00    -0.367 C  
HETATM   15  H   UNL     1     -15.122   8.635  73.161  1.00  0.00     0.000 HD 
HETATM   16  C   UNL     1     -12.131   7.323  70.851  1.00  0.00    -0.288 C  
HETATM   17  O   UNL     1     -11.775   6.319  70.244  1.00  0.00    -0.384 OA 
HETATM   18  C   UNL     1     -11.444   8.679  70.755  1.00  0.00    -0.293 C  
BRANCH  18  19
HETATM   19  C   UNL     1      -9.975   8.596  71.200  1.00  0.00    -0.289 C  
BRANCH  19  20
HETATM   20  C   UNL     1      -9.785   8.328  72.671  1.00  0.00    -0.357 C  
HETATM   21  C   UNL     1      -9.090   7.333  73.244  1.00  0.00    -0.201 C  
BRANCH  21  22
HETATM   22  C   UNL     1      -8.361   6.240  72.525  1.00  0.00    -0.113 C  
BRANCH  22  23
HETATM   23  C   UNL     1      -9.304   5.290  71.789  1.00  0.00    -0.175 C  
BRANCH  23  24
HETATM   24  C   UNL     1      -9.357   3.950  72.524  1.00  0.00    -0.159 C  
HETATM   25  C   UNL     1     -10.582   3.810  73.391  1.00  0.00    -0.193 C  
HETATM   26  O   UNL     1     -11.457   4.648  73.522  1.00  0.00    -0.314 OA 
HETATM   27  O   UNL     1     -10.613   2.617  74.032  1.00  0.00    -0.144 OA 
ENDBRANCH  23  24
ENDBRANCH  22  23
ENDBRANCH  21  22
ENDBRANCH  19  20
ENDBRANCH  18  19
ENDBRANCH  10  11
ENDBRANCH   6   9
ENDBRANCH   5   6
ENDBRANCH   4   5
ENDBRANCH   3   4
ENDBRANCH   2   3
TORSDOF 11
ENDMDL
MODEL       91
REMARK 921   NORMALIZED FREE ENERGY PREDICTED BY IDOCK:   -5.10 KCAL/MOL
REMARK 922        TOTAL FREE ENERGY PREDICTED BY IDOCK:  -10.19 KCAL/MOL
REMARK 923 INTER-LIGAND FREE ENERGY PREDICTED BY IDOCK:   -8.51 KCAL/MOL
REMARK 924 INTRA-LIGAND FREE ENERGY PREDICTED BY IDOCK:   -1.69 KCAL/MOL
REMARK 927      BINDING AFFINITY PREDICTED BY RF-SCORE:    0.00 PKD
ROOT
HETATM    1  C   UNL     1     -12.707   8.962  72.289  1.00  0.00    -0.464 C  
HETATM    2  C   UNL     1     -13.317  10.004  71.371  1.00  0.00    -0.432 C  
ENDROOT
BRANCH   2   3
HETATM    3  C   UNL     1     -12.971  11.429  71.809  1.00  0.00    -0.519 C  
BRANCH   3   4
HETATM    4  C   UNL     1     -12.223  12.157  70.690  1.00  0.00    -0.392 C  
BRANCH   4   5
HETATM    5  C   UNL     1     -12.304  13.678  70.826  1.00  0.00    -0.446 C  
BRANCH   5   6
HETATM    6  C   UNL     1     -11.577  14.428  69.695  1.00  0.00    -0.292 C  
HETATM    7  O   UNL     1     -12.410  15.521  69.318  1.00  0.00    -0.590 OA 
HETATM    8  H   UNL     1     -11.962  15.984  68.621  1.00  0.00     0.000 HD 
BRANCH   6   9
HETATM    9  C   UNL     1     -11.272  13.549  68.500  1.00  0.00    -0.310 C  
HETATM   10  C   UNL     1     -11.931  13.528  67.328  1.00  0.00    -0.408 C  
BRANCH  10  11
HETATM   11  C   UNL     1     -11.716  12.506  66.230  1.00  0.00    -0.462 C  
HETATM   12  C   UNL     1     -11.478  13.233  64.888  1.00  0.00    -0.318 C  
HETATM   13  O   UNL     1     -12.692  13.686  64.306  1.00  0.00    -0.647 OA 
HETATM   14  C   UNL     1     -10.799  12.221  63.991  1.00  0.00    -0.439 C  
HETATM   15  H   UNL     1     -12.545  14.133  63.481  1.00  0.00     0.000 HD 
HETATM   16  C   UNL     1      -9.978  11.457  64.981  1.00  0.00    -0.266 C  
HETATM   17  O   UNL     1      -9.014  10.779  64.643  1.00  0.00    -0.195 OA 
HETATM   18  C   UNL     1     -10.483  11.588  66.411  1.00  0.00    -0.292 C  
BRANCH  18  19
HETATM   19  C   UNL     1     -10.890  10.224  66.990  1.00  0.00    -0.248 C  
BRANCH  19  20
HETATM   20  C   UNL     1     -10.473  10.008  68.422  1.00  0.00    -0.235 C  
HETATM   21  C   UNL     1     -10.171   8.848  69.026  1.00  0.00    -0.217 C  
BRANCH  21  22
HETATM   22  C   UNL     1     -10.210   7.490  68.395  1.00  0.00    -0.211 C  
BRANCH  22  23
HETATM   23  C   UNL     1      -9.862   6.374  69.379  1.00  0.00    -0.170 C  
BRANCH  23  24
HETATM   24  C   UNL     1     -10.647   6.573  70.676  1.00  0.00    -0.280 C  
HETATM   25  C   UNL     1     -10.505   5.411  71.626  1.00  0.00    -0.227 C  
HETATM   26  O   UNL     1      -9.850   4.404  71.422  1.00  0.00    -0.174 OA 
HETATM   27  O   UNL     1     -11.205   5.606  72.769  1.00  0.00    -0.270 OA 
ENDBRANCH  23  24
ENDBRANCH  22  23
ENDBRANCH  21  22
ENDBRANCH  19  20
ENDBRANCH  18  19
ENDBRANCH  10  11
ENDBRANCH   6   9
ENDBRANCH   5   6
ENDBRANCH   4   5
ENDBRANCH   3   4
ENDBRANCH   2   3
TORSDOF 11
ENDMDL
MODEL       92
REMARK 921   NORMALIZED FREE ENERGY PREDICTED BY IDOCK:   -5.09 KCAL/MOL
REMARK 922        TOTAL FREE ENERGY PREDICTED BY IDOCK:  -10.18 KCAL/MOL
REMARK 923 INTER-LIGAND FREE ENERGY PREDICTED BY IDOCK:   -8.45 KCAL/MOL
REMARK 924 INTRA-LIGAND FREE ENERGY PREDICTED BY IDOCK:   -1.73 KCAL/MOL
REMARK 927      BINDING AFFINITY PREDICTED BY RF-SCORE:    0.00 PKD
ROOT
HETATM    1  C   UNL     1      -7.887  14.176  67.448  1.00  0.00    -0.195 C  
HETATM    2  C   UNL     1      -7.345  15.474  68.019  1.00  0.00    -0.139 C  
ENDROOT
BRANCH   2   3
HETATM    3  C   UNL     1      -7.977  16.700  67.359  1.00  0.00    -0.186 C  
BRANCH   3   4
HETATM    4  C   UNL     1      -9.496  16.531  67.276  1.00  0.00    -0.237 C  
BRANCH   4   5
HETATM    5  C   UNL     1     -10.213  17.077  68.511  1.00  0.00    -0.324 C  
BRANCH   5   6
HETATM    6  C   UNL     1     -11.197  16.071  69.136  1.00  0.00    -0.342 C  
HETATM    7  O   UNL     1     -10.513  15.434  70.212  1.00  0.00    -0.374 OA 
HETATM    8  H   UNL     1     -11.120  14.814  70.598  1.00  0.00     0.000 HD 
BRANCH   6   9
HETATM    9  C   UNL     1     -11.708  15.047  68.144  1.00  0.00    -0.335 C  
HETATM   10  C   UNL     1     -11.526  13.716  68.197  1.00  0.00    -0.348 C  
BRANCH  10  11
HETATM   11  C   UNL     1     -11.890  12.745  67.091  1.00  0.00    -0.415 C  
HETATM   12  C   UNL     1     -12.149  13.526  65.784  1.00  0.00    -0.433 C  
HETATM   13  O   UNL     1     -13.440  14.120  65.766  1.00  0.00    -0.670 OA 
HETATM   14  C   UNL     1     -12.011  12.512  64.669  1.00  0.00    -0.468 C  
HETATM   15  H   UNL     1     -13.599  14.600  64.962  1.00  0.00     0.000 HD 
HETATM   16  C   UNL     1     -10.941  11.621  65.216  1.00  0.00    -0.268 C  
HETATM   17  O   UNL     1     -10.279  10.881  64.497  1.00  0.00    -0.311 OA 
HETATM   18  C   UNL     1     -10.797  11.712  66.729  1.00  0.00    -0.322 C  
BRANCH  18  19
HETATM   19  C   UNL     1     -11.071  10.358  67.402  1.00  0.00    -0.297 C  
BRANCH  19  20
HETATM   20  C   UNL     1     -10.393  10.178  68.735  1.00  0.00    -0.211 C  
HETATM   21  C   UNL     1     -10.920  10.352  69.957  1.00  0.00    -0.370 C  
BRANCH  21  22
HETATM   22  C   UNL     1     -12.318  10.796  70.259  1.00  0.00    -0.423 C  
BRANCH  22  23
HETATM   23  C   UNL     1     -13.081   9.792  71.121  1.00  0.00    -0.424 C  
BRANCH  23  24
HETATM   24  C   UNL     1     -12.127   9.160  72.135  1.00  0.00    -0.389 C  
HETATM   25  C   UNL     1     -12.000   7.668  71.963  1.00  0.00    -0.302 C  
HETATM   26  O   UNL     1     -12.578   6.999  71.124  1.00  0.00    -0.377 OA 
HETATM   27  O   UNL     1     -11.150   7.126  72.868  1.00  0.00    -0.292 OA 
ENDBRANCH  23  24
ENDBRANCH  22  23
ENDBRANCH  21  22
ENDBRANCH  19  20
ENDBRANCH  18  19
ENDBRANCH  10  11
ENDBRANCH   6   9
ENDBRANCH   5   6
ENDBRANCH   4   5
ENDBRANCH   3   4
ENDBRANCH   2   3
TORSDOF 11
ENDMDL
MODEL       93
REMARK 921   NORMALIZED FREE ENERGY PREDICTED BY IDOCK:   -5.07 KCAL/MOL
REMARK 922        TOTAL FREE ENERGY PREDICTED BY IDOCK:  -10.15 KCAL/MOL
REMARK 923 INTER-LIGAND FREE ENERGY PREDICTED BY IDOCK:   -8.40 KCAL/MOL
REMARK 924 INTRA-LIGAND FREE ENERGY PREDICTED BY IDOCK:   -1.75 KCAL/MOL
REMARK 927      BINDING AFFINITY PREDICTED BY RF-SCORE:    0.00 PKD
ROOT
HETATM    1  C   UNL     1     -12.483  13.127  64.948  1.00  0.00    -0.490 C  
HETATM    2  C   UNL     1     -12.148  12.654  63.546  1.00  0.00    -0.648 C  
ENDROOT
BRANCH   2   3
HETATM    3  C   UNL     1     -10.913  11.752  63.523  1.00  0.00    -0.499 C  
BRANCH   3   4
HETATM    4  C   UNL     1     -10.388  11.541  64.944  1.00  0.00    -0.340 C  
BRANCH   4   5
HETATM    5  C   UNL     1      -9.939  10.101  65.195  1.00  0.00    -0.379 C  
BRANCH   5   6
HETATM    6  C   UNL     1     -10.174   9.635  66.642  1.00  0.00    -0.232 C  
HETATM    7  O   UNL     1      -9.236  10.328  67.461  1.00  0.00    -0.140 OA 
HETATM    8  H   UNL     1      -9.382  10.040  68.355  1.00  0.00     0.000 HD 
BRANCH   6   9
HETATM    9  C   UNL     1     -10.031   8.136  66.813  1.00  0.00    -0.349 C  
HETATM   10  C   UNL     1     -11.004   7.268  67.144  1.00  0.00    -0.285 C  
BRANCH  10  11
HETATM   11  C   UNL     1     -10.784   5.809  67.489  1.00  0.00    -0.320 C  
HETATM   12  C   UNL     1     -10.328   5.043  66.227  1.00  0.00    -0.291 C  
HETATM   13  O   UNL     1     -11.418   4.736  65.369  1.00  0.00    -0.990 OA 
HETATM   14  C   UNL     1      -9.671   3.778  66.733  1.00  0.00    -0.149 C  
HETATM   15  H   UNL     1     -11.137   4.265  64.593  1.00  0.00     0.000 HD 
HETATM   16  C   UNL     1      -9.047   4.261  68.004  1.00  0.00    -0.131 C  
HETATM   17  O   UNL     1      -8.131   3.657  68.551  1.00  0.00    -0.069 OA 
HETATM   18  C   UNL     1      -9.684   5.535  68.542  1.00  0.00    -0.175 C  
BRANCH  18  19
HETATM   19  C   UNL     1     -10.294   5.313  69.934  1.00  0.00    -0.374 C  
BRANCH  19  20
HETATM   20  C   UNL     1      -9.727   6.202  71.010  1.00  0.00    -0.202 C  
HETATM   21  C   UNL     1     -10.354   7.173  71.692  1.00  0.00    -0.215 C  
BRANCH  21  22
HETATM   22  C   UNL     1     -11.777   7.603  71.505  1.00  0.00    -0.310 C  
BRANCH  22  23
HETATM   23  C   UNL     1     -12.027   9.032  71.985  1.00  0.00    -0.433 C  
BRANCH  23  24
HETATM   24  C   UNL     1     -12.733   9.825  70.884  1.00  0.00    -0.329 C  
HETATM   25  C   UNL     1     -11.767  10.509  69.950  1.00  0.00    -0.294 C  
HETATM   26  O   UNL     1     -10.552  10.463  70.029  1.00  0.00    -0.271 OA 
HETATM   27  O   UNL     1     -12.409  11.204  68.981  1.00  0.00    -0.479 OA 
ENDBRANCH  23  24
ENDBRANCH  22  23
ENDBRANCH  21  22
ENDBRANCH  19  20
ENDBRANCH  18  19
ENDBRANCH  10  11
ENDBRANCH   6   9
ENDBRANCH   5   6
ENDBRANCH   4   5
ENDBRANCH   3   4
ENDBRANCH   2   3
TORSDOF 11
ENDMDL
MODEL       94
REMARK 921   NORMALIZED FREE ENERGY PREDICTED BY IDOCK:   -5.07 KCAL/MOL
REMARK 922        TOTAL FREE ENERGY PREDICTED BY IDOCK:  -10.14 KCAL/MOL
REMARK 923 INTER-LIGAND FREE ENERGY PREDICTED BY IDOCK:   -7.76 KCAL/MOL
REMARK 924 INTRA-LIGAND FREE ENERGY PREDICTED BY IDOCK:   -2.39 KCAL/MOL
REMARK 927      BINDING AFFINITY PREDICTED BY RF-SCORE:    0.00 PKD
ROOT
HETATM    1  C   UNL     1      -8.413   8.766  65.017  1.00  0.00    -0.193 C  
HETATM    2  C   UNL     1      -9.481   9.730  65.499  1.00  0.00    -0.324 C  
ENDROOT
BRANCH   2   3
HETATM    3  C   UNL     1      -9.559  10.985  64.628  1.00  0.00    -0.297 C  
BRANCH   3   4
HETATM    4  C   UNL     1     -10.964  11.136  64.043  1.00  0.00    -0.269 C  
BRANCH   4   5
HETATM    5  C   UNL     1     -11.211  12.529  63.463  1.00  0.00    -0.525 C  
BRANCH   5   6
HETATM    6  C   UNL     1     -12.352  13.286  64.165  1.00  0.00    -0.341 C  
HETATM    7  O   UNL     1     -12.404  14.588  63.589  1.00  0.00    -1.064 OA 
HETATM    8  H   UNL     1     -13.109  15.056  64.022  1.00  0.00     0.000 HD 
BRANCH   6   9
HETATM    9  C   UNL     1     -12.172  13.370  65.667  1.00  0.00    -0.510 C  
HETATM   10  C   UNL     1     -11.323  14.174  66.331  1.00  0.00    -0.342 C  
BRANCH  10  11
HETATM   11  C   UNL     1     -11.038  14.096  67.818  1.00  0.00    -0.292 C  
HETATM   12  C   UNL     1     -11.701  15.293  68.534  1.00  0.00    -0.332 C  
HETATM   13  O   UNL     1     -10.940  16.484  68.393  1.00  0.00    -0.331 OA 
HETATM   14  C   UNL     1     -11.803  14.891  69.990  1.00  0.00    -0.353 C  
HETATM   15  H   UNL     1     -11.348  17.220  68.835  1.00  0.00     0.000 HD 
HETATM   16  C   UNL     1     -12.042  13.419  69.871  1.00  0.00    -0.322 C  
HETATM   17  O   UNL     1     -12.528  12.762  70.784  1.00  0.00    -0.344 OA 
HETATM   18  C   UNL     1     -11.596  12.843  68.534  1.00  0.00    -0.358 C  
BRANCH  18  19
HETATM   19  C   UNL     1     -10.502  11.779  68.720  1.00  0.00    -0.221 C  
BRANCH  19  20
HETATM   20  C   UNL     1      -9.165  12.154  68.133  1.00  0.00    -0.197 C  
HETATM   21  C   UNL     1      -7.962  11.642  68.433  1.00  0.00    -0.140 C  
BRANCH  21  22
HETATM   22  C   UNL     1      -7.685  10.582  69.455  1.00  0.00    -0.141 C  
BRANCH  22  23
HETATM   23  C   UNL     1      -8.021   9.179  68.953  1.00  0.00    -0.099 C  
BRANCH  23  24
HETATM   24  C   UNL     1      -8.835   8.438  70.015  1.00  0.00    -0.137 C  
HETATM   25  C   UNL     1     -10.192   8.011  69.514  1.00  0.00    -0.209 C  
HETATM   26  O   UNL     1     -10.632   8.215  68.396  1.00  0.00    -0.185 OA 
HETATM   27  O   UNL     1     -10.897   7.355  70.467  1.00  0.00    -0.233 OA 
ENDBRANCH  23  24
ENDBRANCH  22  23
ENDBRANCH  21  22
ENDBRANCH  19  20
ENDBRANCH  18  19
ENDBRANCH  10  11
ENDBRANCH   6   9
ENDBRANCH   5   6
ENDBRANCH   4   5
ENDBRANCH   3   4
ENDBRANCH   2   3
TORSDOF 11
ENDMDL
MODEL       95
REMARK 921   NORMALIZED FREE ENERGY PREDICTED BY IDOCK:   -5.05 KCAL/MOL
REMARK 922        TOTAL FREE ENERGY PREDICTED BY IDOCK:  -10.12 KCAL/MOL
REMARK 923 INTER-LIGAND FREE ENERGY PREDICTED BY IDOCK:   -7.81 KCAL/MOL
REMARK 924 INTRA-LIGAND FREE ENERGY PREDICTED BY IDOCK:   -2.30 KCAL/MOL
REMARK 927      BINDING AFFINITY PREDICTED BY RF-SCORE:    0.00 PKD
ROOT
HETATM    1  C   UNL     1      -8.817   9.680  63.906  1.00  0.00    -0.255 C  
HETATM    2  C   UNL     1      -9.925  10.560  64.455  1.00  0.00    -0.413 C  
ENDROOT
BRANCH   2   3
HETATM    3  C   UNL     1     -10.380  11.611  63.442  1.00  0.00    -0.482 C  
BRANCH   3   4
HETATM    4  C   UNL     1     -11.845  11.979  63.685  1.00  0.00    -0.602 C  
BRANCH   4   5
HETATM    5  C   UNL     1     -12.212  13.342  63.098  1.00  0.00    -0.221 C  
BRANCH   5   6
HETATM    6  C   UNL     1     -12.616  14.374  64.165  1.00  0.00    -0.037 C  
HETATM    7  O   UNL     1     -11.960  15.595  63.834  1.00  0.00    -0.990 OA 
HETATM    8  H   UNL     1     -12.209  16.232  64.493  1.00  0.00     0.000 HD 
BRANCH   6   9
HETATM    9  C   UNL     1     -12.265  13.940  65.573  1.00  0.00    -0.467 C  
HETATM   10  C   UNL     1     -11.296  14.451  66.354  1.00  0.00    -0.351 C  
BRANCH  10  11
HETATM   11  C   UNL     1     -10.852  13.867  67.680  1.00  0.00    -0.264 C  
HETATM   12  C   UNL     1     -12.060  13.789  68.640  1.00  0.00    -0.298 C  
HETATM   13  O   UNL     1     -12.354  15.049  69.228  1.00  0.00    -0.544 OA 
HETATM   14  C   UNL     1     -11.675  12.780  69.700  1.00  0.00    -0.372 C  
HETATM   15  H   UNL     1     -13.097  15.001  69.818  1.00  0.00     0.000 HD 
HETATM   16  C   UNL     1     -10.848  11.821  68.903  1.00  0.00    -0.223 C  
HETATM   17  O   UNL     1     -10.629  10.677  69.285  1.00  0.00    -0.208 OA 
HETATM   18  C   UNL     1     -10.299  12.423  67.617  1.00  0.00    -0.223 C  
BRANCH  18  19
HETATM   19  C   UNL     1      -8.762  12.420  67.607  1.00  0.00    -0.178 C  
BRANCH  19  20
HETATM   20  C   UNL     1      -8.132  13.143  68.770  1.00  0.00     0.073 C  
HETATM   21  C   UNL     1      -7.497  14.325  68.758  1.00  0.00    -0.129 C  
BRANCH  21  22
HETATM   22  C   UNL     1      -7.255  15.183  67.555  1.00  0.00    -0.227 C  
BRANCH  22  23
HETATM   23  C   UNL     1      -8.182  16.396  67.501  1.00  0.00    -0.167 C  
BRANCH  23  24
HETATM   24  C   UNL     1      -7.989  17.130  66.173  1.00  0.00    -0.297 C  
HETATM   25  C   UNL     1      -7.018  18.278  66.279  1.00  0.00    -0.249 C  
HETATM   26  O   UNL     1      -6.433  18.620  67.292  1.00  0.00    -0.192 OA 
HETATM   27  O   UNL     1      -6.857  18.914  65.094  1.00  0.00    -0.496 OA 
ENDBRANCH  23  24
ENDBRANCH  22  23
ENDBRANCH  21  22
ENDBRANCH  19  20
ENDBRANCH  18  19
ENDBRANCH  10  11
ENDBRANCH   6   9
ENDBRANCH   5   6
ENDBRANCH   4   5
ENDBRANCH   3   4
ENDBRANCH   2   3
TORSDOF 11
ENDMDL
MODEL       96
REMARK 921   NORMALIZED FREE ENERGY PREDICTED BY IDOCK:   -5.05 KCAL/MOL
REMARK 922        TOTAL FREE ENERGY PREDICTED BY IDOCK:  -10.11 KCAL/MOL
REMARK 923 INTER-LIGAND FREE ENERGY PREDICTED BY IDOCK:   -7.82 KCAL/MOL
REMARK 924 INTRA-LIGAND FREE ENERGY PREDICTED BY IDOCK:   -2.30 KCAL/MOL
REMARK 927      BINDING AFFINITY PREDICTED BY RF-SCORE:    0.00 PKD
ROOT
HETATM    1  C   UNL     1     -10.485  19.581  66.173  1.00  0.00    -0.613 C  
HETATM    2  C   UNL     1     -10.408  18.076  66.350  1.00  0.00    -0.382 C  
ENDROOT
BRANCH   2   3
HETATM    3  C   UNL     1     -10.579  17.660  67.812  1.00  0.00    -0.380 C  
BRANCH   3   4
HETATM    4  C   UNL     1      -9.211  17.452  68.464  1.00  0.00    -0.277 C  
BRANCH   4   5
HETATM    5  C   UNL     1      -8.184  16.862  67.496  1.00  0.00    -0.191 C  
BRANCH   5   6
HETATM    6  C   UNL     1      -7.809  15.406  67.822  1.00  0.00    -0.143 C  
HETATM    7  O   UNL     1      -6.592  15.125  67.136  1.00  0.00    -0.285 OA 
HETATM    8  H   UNL     1      -6.360  14.227  67.337  1.00  0.00     0.000 HD 
BRANCH   6   9
HETATM    9  C   UNL     1      -8.886  14.414  67.433  1.00  0.00    -0.211 C  
HETATM   10  C   UNL     1      -9.461  14.285  66.224  1.00  0.00    -0.277 C  
BRANCH  10  11
HETATM   11  C   UNL     1     -10.663  13.412  65.924  1.00  0.00    -0.285 C  
HETATM   12  C   UNL     1     -11.959  14.225  66.137  1.00  0.00    -0.407 C  
HETATM   13  O   UNL     1     -12.304  14.327  67.511  1.00  0.00    -0.600 OA 
HETATM   14  C   UNL     1     -13.033  13.489  65.367  1.00  0.00    -0.292 C  
HETATM   15  H   UNL     1     -13.101  14.827  67.641  1.00  0.00     0.000 HD 
HETATM   16  C   UNL     1     -12.252  12.961  64.206  1.00  0.00    -0.410 C  
HETATM   17  O   UNL     1     -12.792  12.607  63.164  1.00  0.00    -0.576 OA 
HETATM   18  C   UNL     1     -10.754  12.887  64.472  1.00  0.00    -0.392 C  
BRANCH  18  19
HETATM   19  C   UNL     1     -10.238  11.443  64.372  1.00  0.00    -0.361 C  
BRANCH  19  20
HETATM   20  C   UNL     1      -8.882  11.224  64.994  1.00  0.00     0.059 C  
HETATM   21  C   UNL     1      -8.446  10.142  65.657  1.00  0.00    -0.159 C  
BRANCH  21  22
HETATM   22  C   UNL     1      -9.240   8.907  65.947  1.00  0.00    -0.290 C  
BRANCH  22  23
HETATM   23  C   UNL     1      -9.648   8.801  67.416  1.00  0.00    -0.206 C  
BRANCH  23  24
HETATM   24  C   UNL     1     -11.007   9.473  67.619  1.00  0.00    -0.150 C  
HETATM   25  C   UNL     1     -10.912  10.744  68.423  1.00  0.00    -0.248 C  
HETATM   26  O   UNL     1      -9.888  11.219  68.881  1.00  0.00    -0.198 OA 
HETATM   27  O   UNL     1     -12.124  11.326  68.590  1.00  0.00    -0.543 OA 
ENDBRANCH  23  24
ENDBRANCH  22  23
ENDBRANCH  21  22
ENDBRANCH  19  20
ENDBRANCH  18  19
ENDBRANCH  10  11
ENDBRANCH   6   9
ENDBRANCH   5   6
ENDBRANCH   4   5
ENDBRANCH   3   4
ENDBRANCH   2   3
TORSDOF 11
ENDMDL
MODEL       97
REMARK 921   NORMALIZED FREE ENERGY PREDICTED BY IDOCK:   -5.05 KCAL/MOL
REMARK 922        TOTAL FREE ENERGY PREDICTED BY IDOCK:  -10.11 KCAL/MOL
REMARK 923 INTER-LIGAND FREE ENERGY PREDICTED BY IDOCK:   -8.24 KCAL/MOL
REMARK 924 INTRA-LIGAND FREE ENERGY PREDICTED BY IDOCK:   -1.87 KCAL/MOL
REMARK 927      BINDING AFFINITY PREDICTED BY RF-SCORE:    0.00 PKD
ROOT
HETATM    1  C   UNL     1     -10.397  17.652  68.189  1.00  0.00    -0.386 C  
HETATM    2  C   UNL     1     -10.327  16.548  69.228  1.00  0.00    -0.318 C  
ENDROOT
BRANCH   2   3
HETATM    3  C   UNL     1      -9.464  15.374  68.762  1.00  0.00    -0.211 C  
BRANCH   3   4
HETATM    4  C   UNL     1     -10.297  14.411  67.914  1.00  0.00    -0.232 C  
BRANCH   4   5
HETATM    5  C   UNL     1     -11.718  14.238  68.451  1.00  0.00    -0.373 C  
BRANCH   5   6
HETATM    6  C   UNL     1     -11.905  12.951  69.273  1.00  0.00    -0.309 C  
HETATM    7  O   UNL     1     -11.675  13.291  70.638  1.00  0.00    -0.520 OA 
HETATM    8  H   UNL     1     -11.790  12.497  71.145  1.00  0.00     0.000 HD 
BRANCH   6   9
HETATM    9  C   UNL     1     -10.985  11.829  68.837  1.00  0.00    -0.288 C  
HETATM   10  C   UNL     1     -10.918  10.593  69.362  1.00  0.00    -0.304 C  
BRANCH  10  11
HETATM   11  C   UNL     1      -9.859   9.563  69.026  1.00  0.00    -0.178 C  
HETATM   12  C   UNL     1      -9.261   8.992  70.330  1.00  0.00    -0.209 C  
HETATM   13  O   UNL     1      -8.305   9.870  70.906  1.00  0.00    -0.361 OA 
HETATM   14  C   UNL     1      -8.617   7.679  69.942  1.00  0.00    -0.138 C  
HETATM   15  H   UNL     1      -7.937   9.518  71.709  1.00  0.00     0.000 HD 
HETATM   16  C   UNL     1      -9.541   7.207  68.865  1.00  0.00    -0.142 C  
HETATM   17  O   UNL     1      -9.594   6.032  68.520  1.00  0.00    -0.119 OA 
HETATM   18  C   UNL     1     -10.362   8.328  68.242  1.00  0.00    -0.242 C  
BRANCH  18  19
HETATM   19  C   UNL     1     -10.069   8.469  66.740  1.00  0.00    -0.369 C  
BRANCH  19  20
HETATM   20  C   UNL     1      -9.119   9.587  66.395  1.00  0.00    -0.195 C  
HETATM   21  C   UNL     1      -9.258  10.521  65.441  1.00  0.00    -0.229 C  
BRANCH  21  22
HETATM   22  C   UNL     1     -10.401  10.636  64.480  1.00  0.00    -0.352 C  
BRANCH  22  23
HETATM   23  C   UNL     1     -10.384  11.950  63.701  1.00  0.00    -0.477 C  
BRANCH  23  24
HETATM   24  C   UNL     1     -11.004  13.058  64.553  1.00  0.00    -0.381 C  
HETATM   25  C   UNL     1     -12.511  13.041  64.524  1.00  0.00    -0.363 C  
HETATM   26  O   UNL     1     -13.199  12.251  63.901  1.00  0.00    -0.766 OA 
HETATM   27  O   UNL     1     -13.041  14.028  65.285  1.00  0.00    -0.782 OA 
ENDBRANCH  23  24
ENDBRANCH  22  23
ENDBRANCH  21  22
ENDBRANCH  19  20
ENDBRANCH  18  19
ENDBRANCH  10  11
ENDBRANCH   6   9
ENDBRANCH   5   6
ENDBRANCH   4   5
ENDBRANCH   3   4
ENDBRANCH   2   3
TORSDOF 11
ENDMDL
MODEL       98
REMARK 921   NORMALIZED FREE ENERGY PREDICTED BY IDOCK:   -5.05 KCAL/MOL
REMARK 922        TOTAL FREE ENERGY PREDICTED BY IDOCK:  -10.11 KCAL/MOL
REMARK 923 INTER-LIGAND FREE ENERGY PREDICTED BY IDOCK:   -7.31 KCAL/MOL
REMARK 924 INTRA-LIGAND FREE ENERGY PREDICTED BY IDOCK:   -2.80 KCAL/MOL
REMARK 927      BINDING AFFINITY PREDICTED BY RF-SCORE:    0.00 PKD
ROOT
HETATM    1  C   UNL     1     -10.963  11.452  68.155  1.00  0.00    -0.284 C  
HETATM    2  C   UNL     1     -11.784  12.676  67.796  1.00  0.00    -0.412 C  
ENDROOT
BRANCH   2   3
HETATM    3  C   UNL     1     -12.032  12.781  66.290  1.00  0.00    -0.460 C  
BRANCH   3   4
HETATM    4  C   UNL     1     -10.703  12.743  65.533  1.00  0.00    -0.303 C  
BRANCH   4   5
HETATM    5  C   UNL     1     -10.517  13.952  64.616  1.00  0.00    -0.419 C  
BRANCH   5   6
HETATM    6  C   UNL     1     -11.548  15.067  64.863  1.00  0.00    -0.374 C  
HETATM    7  O   UNL     1     -12.012  15.496  63.586  1.00  0.00    -0.875 OA 
HETATM    8  H   UNL     1     -12.649  16.184  63.738  1.00  0.00     0.000 HD 
BRANCH   6   9
HETATM    9  C   UNL     1     -10.985  16.233  65.649  1.00  0.00    -0.109 C  
HETATM   10  C   UNL     1      -9.697  16.432  65.979  1.00  0.00    -0.356 C  
BRANCH  10  11
HETATM   11  C   UNL     1      -9.200  17.509  66.923  1.00  0.00    -0.273 C  
HETATM   12  C   UNL     1      -8.791  18.758  66.113  1.00  0.00    -0.132 C  
HETATM   13  O   UNL     1      -7.510  18.609  65.517  1.00  0.00    -0.505 OA 
HETATM   14  C   UNL     1      -8.792  19.904  67.101  1.00  0.00    -0.407 C  
HETATM   15  H   UNL     1      -7.258  19.379  65.018  1.00  0.00     0.000 HD 
HETATM   16  C   UNL     1      -9.915  19.507  68.007  1.00  0.00    -0.406 C  
HETATM   17  O   UNL     1     -10.484  20.315  68.731  1.00  0.00    -0.304 OA 
HETATM   18  C   UNL     1     -10.238  18.020  67.950  1.00  0.00    -0.386 C  
BRANCH  18  19
HETATM   19  C   UNL     1     -10.039  17.350  69.318  1.00  0.00    -0.162 C  
BRANCH  19  20
HETATM   20  C   UNL     1     -10.252  15.858  69.316  1.00  0.00    -0.250 C  
HETATM   21  C   UNL     1      -9.322  14.894  69.399  1.00  0.00    -0.054 C  
BRANCH  21  22
HETATM   22  C   UNL     1      -7.842  15.102  69.489  1.00  0.00    -0.186 C  
BRANCH  22  23
HETATM   23  C   UNL     1      -7.114  14.712  68.204  1.00  0.00    -0.127 C  
BRANCH  23  24
HETATM   24  C   UNL     1      -7.862  13.567  67.520  1.00  0.00    -0.184 C  
HETATM   25  C   UNL     1      -6.960  12.410  67.170  1.00  0.00    -0.077 C  
HETATM   26  O   UNL     1      -5.762  12.354  67.388  1.00  0.00    -0.123 OA 
HETATM   27  O   UNL     1      -7.640  11.405  66.568  1.00  0.00    -0.142 OA 
ENDBRANCH  23  24
ENDBRANCH  22  23
ENDBRANCH  21  22
ENDBRANCH  19  20
ENDBRANCH  18  19
ENDBRANCH  10  11
ENDBRANCH   6   9
ENDBRANCH   5   6
ENDBRANCH   4   5
ENDBRANCH   3   4
ENDBRANCH   2   3
TORSDOF 11
ENDMDL
MODEL       99
REMARK 921   NORMALIZED FREE ENERGY PREDICTED BY IDOCK:   -5.04 KCAL/MOL
REMARK 922        TOTAL FREE ENERGY PREDICTED BY IDOCK:  -10.10 KCAL/MOL
REMARK 923 INTER-LIGAND FREE ENERGY PREDICTED BY IDOCK:   -7.94 KCAL/MOL
REMARK 924 INTRA-LIGAND FREE ENERGY PREDICTED BY IDOCK:   -2.16 KCAL/MOL
REMARK 927      BINDING AFFINITY PREDICTED BY RF-SCORE:    0.00 PKD
ROOT
HETATM    1  C   UNL     1     -10.633   6.420  69.208  1.00  0.00    -0.311 C  
HETATM    2  C   UNL     1     -10.507   5.865  70.615  1.00  0.00    -0.316 C  
ENDROOT
BRANCH   2   3
HETATM    3  C   UNL     1     -10.836   6.913  71.679  1.00  0.00    -0.252 C  
BRANCH   3   4
HETATM    4  C   UNL     1     -10.942   8.299  71.039  1.00  0.00    -0.280 C  
BRANCH   4   5
HETATM    5  C   UNL     1     -11.945   9.201  71.759  1.00  0.00    -0.449 C  
BRANCH   5   6
HETATM    6  C   UNL     1     -12.373  10.422  70.924  1.00  0.00    -0.381 C  
HETATM    7  O   UNL     1     -13.563  10.056  70.232  1.00  0.00    -0.478 OA 
HETATM    8  H   UNL     1     -13.827  10.809  69.717  1.00  0.00     0.000 HD 
BRANCH   6   9
HETATM    9  C   UNL     1     -11.305  10.878  69.952  1.00  0.00    -0.381 C  
HETATM   10  C   UNL     1     -11.486  11.236  68.668  1.00  0.00    -0.362 C  
BRANCH  10  11
HETATM   11  C   UNL     1     -10.372  11.506  67.677  1.00  0.00    -0.209 C  
HETATM   12  C   UNL     1      -9.182  12.168  68.405  1.00  0.00    -0.154 C  
HETATM   13  O   UNL     1      -9.398  13.555  68.626  1.00  0.00    -0.348 OA 
HETATM   14  C   UNL     1      -7.982  11.949  67.509  1.00  0.00    -0.155 C  
HETATM   15  H   UNL     1      -8.665  13.961  69.074  1.00  0.00     0.000 HD 
HETATM   16  C   UNL     1      -8.297  10.610  66.922  1.00  0.00    -0.125 C  
HETATM   17  O   UNL     1      -7.434   9.901  66.417  1.00  0.00    -0.097 OA 
HETATM   18  C   UNL     1      -9.775  10.253  66.993  1.00  0.00    -0.217 C  
BRANCH  18  19
HETATM   19  C   UNL     1     -10.372  10.051  65.592  1.00  0.00    -0.171 C  
BRANCH  19  20
HETATM   20  C   UNL     1      -9.894  11.044  64.564  1.00  0.00    -0.343 C  
HETATM   21  C   UNL     1     -10.633  11.903  63.844  1.00  0.00    -0.444 C  
BRANCH  21  22
HETATM   22  C   UNL     1     -12.123  12.040  63.893  1.00  0.00    -0.557 C  
BRANCH  22  23
HETATM   23  C   UNL     1     -12.588  13.017  64.972  1.00  0.00    -0.515 C  
BRANCH  23  24
HETATM   24  C   UNL     1     -11.643  14.218  65.016  1.00  0.00    -0.367 C  
HETATM   25  C   UNL     1     -11.532  14.820  66.394  1.00  0.00    -0.319 C  
HETATM   26  O   UNL     1     -12.115  14.427  67.389  1.00  0.00    -0.397 OA 
HETATM   27  O   UNL     1     -10.689  15.881  66.414  1.00  0.00    -0.308 OA 
ENDBRANCH  23  24
ENDBRANCH  22  23
ENDBRANCH  21  22
ENDBRANCH  19  20
ENDBRANCH  18  19
ENDBRANCH  10  11
ENDBRANCH   6   9
ENDBRANCH   5   6
ENDBRANCH   4   5
ENDBRANCH   3   4
ENDBRANCH   2   3
TORSDOF 11
ENDMDL
MODEL      100
REMARK 921   NORMALIZED FREE ENERGY PREDICTED BY IDOCK:   -5.01 KCAL/MOL
REMARK 922        TOTAL FREE ENERGY PREDICTED BY IDOCK:  -10.05 KCAL/MOL
REMARK 923 INTER-LIGAND FREE ENERGY PREDICTED BY IDOCK:   -8.29 KCAL/MOL
REMARK 924 INTRA-LIGAND FREE ENERGY PREDICTED BY IDOCK:   -1.76 KCAL/MOL
REMARK 927      BINDING AFFINITY PREDICTED BY RF-SCORE:    0.00 PKD
ROOT
HETATM    1  C   UNL     1     -11.155  14.585  65.865  1.00  0.00    -0.327 C  
HETATM    2  C   UNL     1     -12.403  13.726  65.952  1.00  0.00    -0.516 C  
ENDROOT
BRANCH   2   3
HETATM    3  C   UNL     1     -12.252  12.414  65.179  1.00  0.00    -0.449 C  
BRANCH   3   4
HETATM    4  C   UNL     1     -10.897  11.775  65.484  1.00  0.00    -0.348 C  
BRANCH   4   5
HETATM    5  C   UNL     1     -10.859  11.111  66.861  1.00  0.00    -0.333 C  
BRANCH   5   6
HETATM    6  C   UNL     1      -9.538  10.373  67.143  1.00  0.00    -0.164 C  
HETATM    7  O   UNL     1      -8.798  10.362  65.926  1.00  0.00    -0.153 OA 
HETATM    8  H   UNL     1      -7.983   9.907  66.100  1.00  0.00     0.000 HD 
BRANCH   6   9
HETATM    9  C   UNL     1      -9.744   8.964  67.659  1.00  0.00    -0.202 C  
HETATM   10  C   UNL     1     -10.722   8.112  67.302  1.00  0.00    -0.263 C  
BRANCH  10  11
HETATM   11  C   UNL     1     -11.005   6.784  67.976  1.00  0.00    -0.289 C  
HETATM   12  C   UNL     1     -10.216   5.665  67.263  1.00  0.00    -0.206 C  
HETATM   13  O   UNL     1     -10.848   5.253  66.059  1.00  0.00    -0.634 OA 
HETATM   14  C   UNL     1     -10.149   4.521  68.251  1.00  0.00    -0.030 C  
HETATM   15  H   UNL     1     -10.362   4.564  65.620  1.00  0.00     0.000 HD 
HETATM   16  C   UNL     1     -10.066   5.260  69.549  1.00  0.00    -0.252 C  
HETATM   17  O   UNL     1      -9.647   4.733  70.573  1.00  0.00    -0.156 OA 
HETATM   18  C   UNL     1     -10.579   6.691  69.460  1.00  0.00    -0.281 C  
BRANCH  18  19
HETATM   19  C   UNL     1     -11.777   6.916  70.396  1.00  0.00    -0.377 C  
BRANCH  19  20
HETATM   20  C   UNL     1     -11.446   7.666  71.660  1.00  0.00    -0.295 C  
HETATM   21  C   UNL     1     -11.095   8.955  71.785  1.00  0.00    -0.433 C  
BRANCH  21  22
HETATM   22  C   UNL     1     -10.931   9.936  70.665  1.00  0.00    -0.405 C  
BRANCH  22  23
HETATM   23  C   UNL     1     -12.252  10.585  70.254  1.00  0.00    -0.393 C  
BRANCH  23  24
HETATM   24  C   UNL     1     -12.978  11.101  71.498  1.00  0.00    -0.542 C  
HETATM   25  C   UNL     1     -13.034  12.606  71.556  1.00  0.00    -0.282 C  
HETATM   26  O   UNL     1     -12.564  13.366  70.726  1.00  0.00    -0.336 OA 
HETATM   27  O   UNL     1     -13.681  13.044  72.662  1.00  0.00    -0.621 OA 
ENDBRANCH  23  24
ENDBRANCH  22  23
ENDBRANCH  21  22
ENDBRANCH  19  20
ENDBRANCH  18  19
ENDBRANCH  10  11
ENDBRANCH   6   9
ENDBRANCH   5   6
ENDBRANCH   4   5
ENDBRANCH   3   4
ENDBRANCH   2   3
TORSDOF 11
ENDMDL
MODEL      101
REMARK 921   NORMALIZED FREE ENERGY PREDICTED BY IDOCK:   -5.00 KCAL/MOL
REMARK 922        TOTAL FREE ENERGY PREDICTED BY IDOCK:  -10.03 KCAL/MOL
REMARK 923 INTER-LIGAND FREE ENERGY PREDICTED BY IDOCK:   -7.93 KCAL/MOL
REMARK 924 INTRA-LIGAND FREE ENERGY PREDICTED BY IDOCK:   -2.10 KCAL/MOL
REMARK 927      BINDING AFFINITY PREDICTED BY RF-SCORE:    0.00 PKD
ROOT
HETATM    1  C   UNL     1      -9.901  10.535  64.092  1.00  0.00    -0.401 C  
HETATM    2  C   UNL     1     -10.562  11.899  64.150  1.00  0.00    -0.397 C  
ENDROOT
BRANCH   2   3
HETATM    3  C   UNL     1     -11.172  12.185  65.523  1.00  0.00    -0.381 C  
BRANCH   3   4
HETATM    4  C   UNL     1     -10.074  12.561  66.520  1.00  0.00    -0.250 C  
BRANCH   4   5
HETATM    5  C   UNL     1     -10.168  11.766  67.823  1.00  0.00    -0.205 C  
BRANCH   5   6
HETATM    6  C   UNL     1     -11.191  10.618  67.761  1.00  0.00    -0.313 C  
HETATM    7  O   UNL     1     -12.225  10.930  68.691  1.00  0.00    -0.785 OA 
HETATM    8  H   UNL     1     -12.856  10.221  68.652  1.00  0.00     0.000 HD 
BRANCH   6   9
HETATM    9  C   UNL     1     -10.582   9.265  68.069  1.00  0.00    -0.262 C  
HETATM   10  C   UNL     1     -10.532   8.201  67.248  1.00  0.00    -0.379 C  
BRANCH  10  11
HETATM   11  C   UNL     1     -10.085   6.811  67.656  1.00  0.00    -0.201 C  
HETATM   12  C   UNL     1      -9.993   5.910  66.405  1.00  0.00    -0.116 C  
HETATM   13  O   UNL     1     -11.270   5.441  65.993  1.00  0.00    -0.783 OA 
HETATM   14  C   UNL     1      -9.099   4.755  66.799  1.00  0.00    -0.117 C  
HETATM   15  H   UNL     1     -11.213   4.886  65.223  1.00  0.00     0.000 HD 
HETATM   16  C   UNL     1      -8.145   5.429  67.733  1.00  0.00    -0.100 C  
HETATM   17  O   UNL     1      -7.052   4.947  68.008  1.00  0.00    -0.060 OA 
HETATM   18  C   UNL     1      -8.685   6.730  68.310  1.00  0.00    -0.123 C  
BRANCH  18  19
HETATM   19  C   UNL     1      -8.793   6.663  69.841  1.00  0.00    -0.144 C  
BRANCH  19  20
HETATM   20  C   UNL     1      -7.949   7.678  70.568  1.00  0.00    -0.100 C  
HETATM   21  C   UNL     1      -8.279   8.399  71.651  1.00  0.00    -0.195 C  
BRANCH  21  22
HETATM   22  C   UNL     1      -9.595   8.364  72.366  1.00  0.00    -0.373 C  
BRANCH  22  23
HETATM   23  C   UNL     1     -10.693   9.116  71.615  1.00  0.00    -0.441 C  
BRANCH  23  24
HETATM   24  C   UNL     1     -12.062   8.643  72.104  1.00  0.00    -0.451 C  
HETATM   25  C   UNL     1     -13.101   9.735  72.069  1.00  0.00    -0.452 C  
HETATM   26  O   UNL     1     -12.912  10.882  71.702  1.00  0.00    -0.433 OA 
HETATM   27  O   UNL     1     -14.307   9.298  72.502  1.00  0.00    -0.469 OA 
ENDBRANCH  23  24
ENDBRANCH  22  23
ENDBRANCH  21  22
ENDBRANCH  19  20
ENDBRANCH  18  19
ENDBRANCH  10  11
ENDBRANCH   6   9
ENDBRANCH   5   6
ENDBRANCH   4   5
ENDBRANCH   3   4
ENDBRANCH   2   3
TORSDOF 11
ENDMDL
MODEL      102
REMARK 921   NORMALIZED FREE ENERGY PREDICTED BY IDOCK:   -4.99 KCAL/MOL
REMARK 922        TOTAL FREE ENERGY PREDICTED BY IDOCK:  -10.02 KCAL/MOL
REMARK 923 INTER-LIGAND FREE ENERGY PREDICTED BY IDOCK:   -8.94 KCAL/MOL
REMARK 924 INTRA-LIGAND FREE ENERGY PREDICTED BY IDOCK:   -1.07 KCAL/MOL
REMARK 927      BINDING AFFINITY PREDICTED BY RF-SCORE:    0.00 PKD
ROOT
HETATM    1  C   UNL     1      -8.126  19.631  66.148  1.00  0.00    -0.356 C  
HETATM    2  C   UNL     1      -8.784  20.100  67.433  1.00  0.00    -0.425 C  
ENDROOT
BRANCH   2   3
HETATM    3  C   UNL     1     -10.039  19.291  67.765  1.00  0.00    -0.488 C  
BRANCH   3   4
HETATM    4  C   UNL     1     -10.667  18.742  66.482  1.00  0.00    -0.335 C  
BRANCH   4   5
HETATM    5  C   UNL     1     -10.826  17.221  66.513  1.00  0.00     0.059 C  
BRANCH   5   6
HETATM    6  C   UNL     1     -10.409  16.540  65.197  1.00  0.00    -0.020 C  
HETATM    7  O   UNL     1     -11.439  16.801  64.248  1.00  0.00    -1.235 OA 
HETATM    8  H   UNL     1     -11.181  16.382  63.436  1.00  0.00     0.000 HD 
BRANCH   6   9
HETATM    9  C   UNL     1     -10.181  15.050  65.347  1.00  0.00    -0.411 C  
HETATM   10  C   UNL     1     -10.935  14.065  64.826  1.00  0.00    -0.410 C  
BRANCH  10  11
HETATM   11  C   UNL     1     -10.785  12.593  65.152  1.00  0.00    -0.321 C  
HETATM   12  C   UNL     1     -10.611  11.790  63.845  1.00  0.00    -0.393 C  
HETATM   13  O   UNL     1     -11.849  11.575  63.183  1.00  0.00    -0.881 OA 
HETATM   14  C   UNL     1      -9.988  10.473  64.256  1.00  0.00    -0.398 C  
HETATM   15  H   UNL     1     -11.742  11.081  62.379  1.00  0.00     0.000 HD 
HETATM   16  C   UNL     1      -9.124  10.903  65.399  1.00  0.00    -0.198 C  
HETATM   17  O   UNL     1      -8.184  10.223  65.796  1.00  0.00    -0.135 OA 
HETATM   18  C   UNL     1      -9.553  12.228  66.014  1.00  0.00    -0.230 C  
BRANCH  18  19
HETATM   19  C   UNL     1      -9.941  12.060  67.491  1.00  0.00    -0.199 C  
BRANCH  19  20
HETATM   20  C   UNL     1     -11.224  11.302  67.714  1.00  0.00    -0.354 C  
HETATM   21  C   UNL     1     -11.590  10.605  68.802  1.00  0.00    -0.309 C  
BRANCH  21  22
HETATM   22  C   UNL     1     -10.771  10.410  70.040  1.00  0.00    -0.321 C  
BRANCH  22  23
HETATM   23  C   UNL     1     -10.638   8.939  70.432  1.00  0.00    -0.252 C  
BRANCH  23  24
HETATM   24  C   UNL     1      -9.639   8.804  71.582  1.00  0.00    -0.363 C  
HETATM   25  C   UNL     1     -10.214   8.076  72.770  1.00  0.00    -0.319 C  
HETATM   26  O   UNL     1     -11.345   7.630  72.848  1.00  0.00    -0.369 OA 
HETATM   27  O   UNL     1      -9.314   7.964  73.776  1.00  0.00    -0.280 OA 
ENDBRANCH  23  24
ENDBRANCH  22  23
ENDBRANCH  21  22
ENDBRANCH  19  20
ENDBRANCH  18  19
ENDBRANCH  10  11
ENDBRANCH   6   9
ENDBRANCH   5   6
ENDBRANCH   4   5
ENDBRANCH   3   4
ENDBRANCH   2   3
TORSDOF 11
ENDMDL
MODEL      103
REMARK 921   NORMALIZED FREE ENERGY PREDICTED BY IDOCK:   -4.98 KCAL/MOL
REMARK 922        TOTAL FREE ENERGY PREDICTED BY IDOCK:  -10.00 KCAL/MOL
REMARK 923 INTER-LIGAND FREE ENERGY PREDICTED BY IDOCK:   -8.04 KCAL/MOL
REMARK 924 INTRA-LIGAND FREE ENERGY PREDICTED BY IDOCK:   -1.96 KCAL/MOL
REMARK 927      BINDING AFFINITY PREDICTED BY RF-SCORE:    0.00 PKD
ROOT
HETATM    1  C   UNL     1     -12.401   8.219  72.068  1.00  0.00    -0.395 C  
HETATM    2  C   UNL     1     -13.340   9.397  72.246  1.00  0.00    -0.539 C  
ENDROOT
BRANCH   2   3
HETATM    3  C   UNL     1     -13.281  10.364  71.063  1.00  0.00    -0.361 C  
BRANCH   3   4
HETATM    4  C   UNL     1     -12.448  11.594  71.428  1.00  0.00    -0.314 C  
BRANCH   4   5
HETATM    5  C   UNL     1     -13.311  12.776  71.872  1.00  0.00    -0.510 C  
BRANCH   5   6
HETATM    6  C   UNL     1     -12.855  14.119  71.276  1.00  0.00    -0.359 C  
HETATM    7  O   UNL     1     -14.032  14.848  70.942  1.00  0.00    -0.621 OA 
HETATM    8  H   UNL     1     -13.751  15.678  70.574  1.00  0.00     0.000 HD 
BRANCH   6   9
HETATM    9  C   UNL     1     -11.961  13.957  70.063  1.00  0.00    -0.404 C  
HETATM   10  C   UNL     1     -12.355  13.875  68.780  1.00  0.00    -0.056 C  
BRANCH  10  11
HETATM   11  C   UNL     1     -11.449  13.526  67.616  1.00  0.00    -0.351 C  
HETATM   12  C   UNL     1     -10.794  12.149  67.865  1.00  0.00    -0.217 C  
HETATM   13  O   UNL     1      -9.698  12.237  68.765  1.00  0.00    -0.390 OA 
HETATM   14  C   UNL     1     -10.335  11.664  66.507  1.00  0.00    -0.259 C  
HETATM   15  H   UNL     1      -9.296  11.390  68.918  1.00  0.00     0.000 HD 
HETATM   16  C   UNL     1     -11.403  12.222  65.621  1.00  0.00    -0.350 C  
HETATM   17  O   UNL     1     -11.614  11.780  64.498  1.00  0.00    -0.301 OA 
HETATM   18  C   UNL     1     -12.154  13.390  66.245  1.00  0.00    -0.475 C  
BRANCH  18  19
HETATM   19  C   UNL     1     -11.993  14.671  65.411  1.00  0.00    -0.275 C  
BRANCH  19  20
HETATM   20  C   UNL     1     -10.571  14.982  65.019  1.00  0.00    -0.437 C  
HETATM   21  C   UNL     1      -9.742  15.880  65.573  1.00  0.00    -0.215 C  
BRANCH  21  22
HETATM   22  C   UNL     1     -10.071  16.801  66.708  1.00  0.00    -0.295 C  
BRANCH  22  23
HETATM   23  C   UNL     1      -8.906  16.976  67.680  1.00  0.00    -0.220 C  
BRANCH  23  24
HETATM   24  C   UNL     1      -8.662  15.665  68.429  1.00  0.00    -0.178 C  
HETATM   25  C   UNL     1      -7.391  14.978  68.000  1.00  0.00    -0.127 C  
HETATM   26  O   UNL     1      -6.615  15.387  67.153  1.00  0.00    -0.292 OA 
HETATM   27  O   UNL     1      -7.191  13.821  68.675  1.00  0.00    -0.100 OA 
ENDBRANCH  23  24
ENDBRANCH  22  23
ENDBRANCH  21  22
ENDBRANCH  19  20
ENDBRANCH  18  19
ENDBRANCH  10  11
ENDBRANCH   6   9
ENDBRANCH   5   6
ENDBRANCH   4   5
ENDBRANCH   3   4
ENDBRANCH   2   3
TORSDOF 11
ENDMDL
MODEL      104
REMARK 921   NORMALIZED FREE ENERGY PREDICTED BY IDOCK:   -4.96 KCAL/MOL
REMARK 922        TOTAL FREE ENERGY PREDICTED BY IDOCK:   -9.96 KCAL/MOL
REMARK 923 INTER-LIGAND FREE ENERGY PREDICTED BY IDOCK:   -8.54 KCAL/MOL
REMARK 924 INTRA-LIGAND FREE ENERGY PREDICTED BY IDOCK:   -1.43 KCAL/MOL
REMARK 927      BINDING AFFINITY PREDICTED BY RF-SCORE:    0.00 PKD
ROOT
HETATM    1  C   UNL     1     -10.679   5.641  70.443  1.00  0.00    -0.352 C  
HETATM    2  C   UNL     1     -11.271   6.703  69.535  1.00  0.00    -0.383 C  
ENDROOT
BRANCH   2   3
HETATM    3  C   UNL     1     -11.103   6.352  68.056  1.00  0.00    -0.365 C  
BRANCH   3   4
HETATM    4  C   UNL     1     -10.492   7.533  67.300  1.00  0.00    -0.391 C  
BRANCH   4   5
HETATM    5  C   UNL     1      -9.074   7.860  67.773  1.00  0.00    -0.138 C  
BRANCH   5   6
HETATM    6  C   UNL     1      -8.776   9.370  67.798  1.00  0.00    -0.116 C  
HETATM    7  O   UNL     1      -9.106   9.838  69.102  1.00  0.00    -0.146 OA 
HETATM    8  H   UNL     1      -8.921  10.769  69.118  1.00  0.00     0.000 HD 
BRANCH   6   9
HETATM    9  C   UNL     1      -9.537  10.143  66.741  1.00  0.00    -0.222 C  
HETATM   10  C   UNL     1      -9.199  11.334  66.216  1.00  0.00    -0.214 C  
BRANCH  10  11
HETATM   11  C   UNL     1     -10.080  12.161  65.301  1.00  0.00    -0.291 C  
HETATM   12  C   UNL     1     -10.204  11.460  63.931  1.00  0.00    -0.363 C  
HETATM   13  O   UNL     1      -9.059  11.677  63.117  1.00  0.00    -0.529 OA 
HETATM   14  C   UNL     1     -11.439  12.046  63.283  1.00  0.00    -0.398 C  
HETATM   15  H   UNL     1      -9.135  11.246  62.274  1.00  0.00     0.000 HD 
HETATM   16  C   UNL     1     -12.313  12.276  64.476  1.00  0.00    -0.384 C  
HETATM   17  O   UNL     1     -13.527  12.410  64.378  1.00  0.00    -0.626 OA 
HETATM   18  C   UNL     1     -11.537  12.355  65.784  1.00  0.00    -0.449 C  
BRANCH  18  19
HETATM   19  C   UNL     1     -11.718  13.722  66.462  1.00  0.00    -0.412 C  
BRANCH  19  20
HETATM   20  C   UNL     1     -11.605  14.899  65.527  1.00  0.00    -0.263 C  
HETATM   21  C   UNL     1     -10.587  15.766  65.415  1.00  0.00    -0.441 C  
BRANCH  21  22
HETATM   22  C   UNL     1      -9.331  15.761  66.231  1.00  0.00    -0.360 C  
BRANCH  22  23
HETATM   23  C   UNL     1      -8.721  17.154  66.379  1.00  0.00    -0.291 C  
BRANCH  23  24
HETATM   24  C   UNL     1      -9.761  18.109  66.967  1.00  0.00    -0.307 C  
HETATM   25  C   UNL     1      -9.235  18.886  68.147  1.00  0.00    -0.320 C  
HETATM   26  O   UNL     1      -8.113  18.793  68.614  1.00  0.00    -0.330 OA 
HETATM   27  O   UNL     1     -10.168  19.727  68.653  1.00  0.00    -0.445 OA 
ENDBRANCH  23  24
ENDBRANCH  22  23
ENDBRANCH  21  22
ENDBRANCH  19  20
ENDBRANCH  18  19
ENDBRANCH  10  11
ENDBRANCH   6   9
ENDBRANCH   5   6
ENDBRANCH   4   5
ENDBRANCH   3   4
ENDBRANCH   2   3
TORSDOF 11
ENDMDL
MODEL      105
REMARK 921   NORMALIZED FREE ENERGY PREDICTED BY IDOCK:   -4.96 KCAL/MOL
REMARK 922        TOTAL FREE ENERGY PREDICTED BY IDOCK:   -9.96 KCAL/MOL
REMARK 923 INTER-LIGAND FREE ENERGY PREDICTED BY IDOCK:   -7.98 KCAL/MOL
REMARK 924 INTRA-LIGAND FREE ENERGY PREDICTED BY IDOCK:   -1.99 KCAL/MOL
REMARK 927      BINDING AFFINITY PREDICTED BY RF-SCORE:    0.00 PKD
ROOT
HETATM    1  C   UNL     1     -13.409  15.858  73.049  1.00  0.00    -0.663 C  
HETATM    2  C   UNL     1     -12.059  16.068  72.389  1.00  0.00    -0.629 C  
ENDROOT
BRANCH   2   3
HETATM    3  C   UNL     1     -11.801  15.054  71.273  1.00  0.00    -0.389 C  
BRANCH   3   4
HETATM    4  C   UNL     1     -12.142  15.668  69.914  1.00  0.00    -0.360 C  
BRANCH   4   5
HETATM    5  C   UNL     1     -10.958  16.410  69.293  1.00  0.00    -0.322 C  
BRANCH   5   6
HETATM    6  C   UNL     1      -9.968  15.479  68.571  1.00  0.00    -0.208 C  
HETATM    7  O   UNL     1      -8.873  16.285  68.145  1.00  0.00    -0.178 OA 
HETATM    8  H   UNL     1      -8.262  15.711  67.699  1.00  0.00     0.000 HD 
BRANCH   6   9
HETATM    9  C   UNL     1     -10.589  14.753  67.395  1.00  0.00    -0.268 C  
HETATM   10  C   UNL     1     -10.931  13.453  67.342  1.00  0.00    -0.287 C  
BRANCH  10  11
HETATM   11  C   UNL     1     -11.373  12.722  66.090  1.00  0.00    -0.371 C  
HETATM   12  C   UNL     1     -11.922  13.739  65.065  1.00  0.00    -0.383 C  
HETATM   13  O   UNL     1     -13.251  14.137  65.371  1.00  0.00    -0.741 OA 
HETATM   14  C   UNL     1     -11.867  13.037  63.726  1.00  0.00    -0.566 C  
HETATM   15  H   UNL     1     -13.588  14.762  64.740  1.00  0.00     0.000 HD 
HETATM   16  C   UNL     1     -10.638  12.200  63.884  1.00  0.00    -0.415 C  
HETATM   17  O   UNL     1     -10.032  11.744  62.921  1.00  0.00    -0.336 OA 
HETATM   18  C   UNL     1     -10.255  11.961  65.338  1.00  0.00    -0.300 C  
BRANCH  18  19
HETATM   19  C   UNL     1     -10.277  10.464  65.685  1.00  0.00    -0.308 C  
BRANCH  19  20
HETATM   20  C   UNL     1     -10.058  10.161  67.145  1.00  0.00    -0.260 C  
HETATM   21  C   UNL     1      -8.890  10.022  67.791  1.00  0.00    -0.125 C  
BRANCH  21  22
HETATM   22  C   UNL     1      -7.527  10.117  67.177  1.00  0.00    -0.091 C  
BRANCH  22  23
HETATM   23  C   UNL     1      -7.057  11.561  67.007  1.00  0.00    -0.147 C  
BRANCH  23  24
HETATM   24  C   UNL     1      -7.189  12.302  68.339  1.00  0.00    -0.102 C  
HETATM   25  C   UNL     1      -6.785  13.750  68.241  1.00  0.00    -0.109 C  
HETATM   26  O   UNL     1      -6.389  14.310  67.233  1.00  0.00    -0.296 OA 
HETATM   27  O   UNL     1      -6.910  14.390  69.428  1.00  0.00    -0.123 OA 
ENDBRANCH  23  24
ENDBRANCH  22  23
ENDBRANCH  21  22
ENDBRANCH  19  20
ENDBRANCH  18  19
ENDBRANCH  10  11
ENDBRANCH   6   9
ENDBRANCH   5   6
ENDBRANCH   4   5
ENDBRANCH   3   4
ENDBRANCH   2   3
TORSDOF 11
ENDMDL
MODEL      106
REMARK 921   NORMALIZED FREE ENERGY PREDICTED BY IDOCK:   -4.94 KCAL/MOL
REMARK 922        TOTAL FREE ENERGY PREDICTED BY IDOCK:   -9.93 KCAL/MOL
REMARK 923 INTER-LIGAND FREE ENERGY PREDICTED BY IDOCK:   -8.14 KCAL/MOL
REMARK 924 INTRA-LIGAND FREE ENERGY PREDICTED BY IDOCK:   -1.80 KCAL/MOL
REMARK 927      BINDING AFFINITY PREDICTED BY RF-SCORE:    0.00 PKD
ROOT
HETATM    1  C   UNL     1     -11.221  14.211  64.585  1.00  0.00    -0.371 C  
HETATM    2  C   UNL     1     -10.549  13.168  65.460  1.00  0.00    -0.299 C  
ENDROOT
BRANCH   2   3
HETATM    3  C   UNL     1     -11.565  12.322  66.229  1.00  0.00    -0.446 C  
BRANCH   3   4
HETATM    4  C   UNL     1     -11.106  12.131  67.675  1.00  0.00    -0.320 C  
BRANCH   4   5
HETATM    5  C   UNL     1     -11.428  13.338  68.556  1.00  0.00    -0.347 C  
BRANCH   5   6
HETATM    6  C   UNL     1     -12.233  12.974  69.816  1.00  0.00    -0.177 C  
HETATM    7  O   UNL     1     -11.736  13.784  70.877  1.00  0.00    -0.509 OA 
HETATM    8  H   UNL     1     -12.233  13.559  71.655  1.00  0.00     0.000 HD 
BRANCH   6   9
HETATM    9  C   UNL     1     -12.141  11.505  70.174  1.00  0.00    -0.432 C  
HETATM   10  C   UNL     1     -12.488  10.939  71.344  1.00  0.00    -0.460 C  
BRANCH  10  11
HETATM   11  C   UNL     1     -12.207   9.500  71.729  1.00  0.00    -0.465 C  
HETATM   12  C   UNL     1     -13.540   8.736  71.880  1.00  0.00    -0.424 C  
HETATM   13  O   UNL     1     -14.170   9.006  73.124  1.00  0.00    -1.142 OA 
HETATM   14  C   UNL     1     -13.185   7.269  71.766  1.00  0.00    -0.368 C  
HETATM   15  H   UNL     1     -14.991   8.535  73.217  1.00  0.00     0.000 HD 
HETATM   16  C   UNL     1     -12.057   7.317  70.784  1.00  0.00    -0.245 C  
HETATM   17  O   UNL     1     -11.707   6.332  70.146  1.00  0.00    -0.398 OA 
HETATM   18  C   UNL     1     -11.393   8.685  70.696  1.00  0.00    -0.277 C  
BRANCH  18  19
HETATM   19  C   UNL     1      -9.910   8.615  71.091  1.00  0.00    -0.285 C  
BRANCH  19  20
HETATM   20  C   UNL     1      -9.667   8.498  72.574  1.00  0.00    -0.326 C  
HETATM   21  C   UNL     1      -8.774   7.718  73.203  1.00  0.00    -0.250 C  
BRANCH  21  22
HETATM   22  C   UNL     1      -7.826   6.760  72.550  1.00  0.00    -0.100 C  
BRANCH  22  23
HETATM   23  C   UNL     1      -6.441   7.364  72.324  1.00  0.00    -0.050 C  
BRANCH  23  24
HETATM   24  C   UNL     1      -6.276   7.727  70.848  1.00  0.00    -0.034 C  
HETATM   25  C   UNL     1      -6.369   9.211  70.599  1.00  0.00    -0.058 C  
HETATM   26  O   UNL     1      -6.557  10.062  71.451  1.00  0.00    -0.317 OA 
HETATM   27  O   UNL     1      -6.218   9.513  69.288  1.00  0.00    -0.040 OA 
ENDBRANCH  23  24
ENDBRANCH  22  23
ENDBRANCH  21  22
ENDBRANCH  19  20
ENDBRANCH  18  19
ENDBRANCH  10  11
ENDBRANCH   6   9
ENDBRANCH   5   6
ENDBRANCH   4   5
ENDBRANCH   3   4
ENDBRANCH   2   3
TORSDOF 11
ENDMDL
MODEL      107
REMARK 921   NORMALIZED FREE ENERGY PREDICTED BY IDOCK:   -4.94 KCAL/MOL
REMARK 922        TOTAL FREE ENERGY PREDICTED BY IDOCK:   -9.93 KCAL/MOL
REMARK 923 INTER-LIGAND FREE ENERGY PREDICTED BY IDOCK:   -7.93 KCAL/MOL
REMARK 924 INTRA-LIGAND FREE ENERGY PREDICTED BY IDOCK:   -2.00 KCAL/MOL
REMARK 927      BINDING AFFINITY PREDICTED BY RF-SCORE:    0.00 PKD
ROOT
HETATM    1  C   UNL     1      -7.731  14.535  67.475  1.00  0.00    -0.208 C  
HETATM    2  C   UNL     1      -7.795  15.774  68.349  1.00  0.00    -0.136 C  
ENDROOT
BRANCH   2   3
HETATM    3  C   UNL     1      -9.200  16.015  68.903  1.00  0.00    -0.233 C  
BRANCH   3   4
HETATM    4  C   UNL     1     -10.183  15.006  68.305  1.00  0.00    -0.222 C  
BRANCH   4   5
HETATM    5  C   UNL     1     -11.534  15.010  69.021  1.00  0.00    -0.322 C  
BRANCH   5   6
HETATM    6  C   UNL     1     -11.902  13.646  69.632  1.00  0.00    -0.335 C  
HETATM    7  O   UNL     1     -11.873  13.802  71.048  1.00  0.00    -0.494 OA 
HETATM    8  H   UNL     1     -12.101  12.960  71.424  1.00  0.00     0.000 HD 
BRANCH   6   9
HETATM    9  C   UNL     1     -10.974  12.531  69.195  1.00  0.00    -0.198 C  
HETATM   10  C   UNL     1     -11.237  11.212  69.213  1.00  0.00    -0.331 C  
BRANCH  10  11
HETATM   11  C   UNL     1     -10.220  10.121  68.947  1.00  0.00    -0.213 C  
HETATM   12  C   UNL     1     -10.373   9.004  70.002  1.00  0.00    -0.206 C  
HETATM   13  O   UNL     1      -9.763   9.351  71.237  1.00  0.00    -0.262 OA 
HETATM   14  C   UNL     1      -9.712   7.782  69.402  1.00  0.00    -0.169 C  
HETATM   15  H   UNL     1      -9.857   8.663  71.886  1.00  0.00     0.000 HD 
HETATM   16  C   UNL     1     -10.023   7.965  67.951  1.00  0.00    -0.178 C  
HETATM   17  O   UNL     1      -9.980   7.035  67.153  1.00  0.00    -0.159 OA 
HETATM   18  C   UNL     1     -10.358   9.404  67.583  1.00  0.00    -0.303 C  
BRANCH  18  19
HETATM   19  C   UNL     1      -9.363   9.968  66.558  1.00  0.00    -0.201 C  
BRANCH  19  20
HETATM   20  C   UNL     1      -9.924  10.126  65.168  1.00  0.00    -0.379 C  
HETATM   21  C   UNL     1     -10.564  11.187  64.654  1.00  0.00    -0.386 C  
BRANCH  21  22
HETATM   22  C   UNL     1     -10.884  12.459  65.379  1.00  0.00    -0.320 C  
BRANCH  22  23
HETATM   23  C   UNL     1     -11.425  13.545  64.450  1.00  0.00    -0.422 C  
BRANCH  23  24
HETATM   24  C   UNL     1     -10.751  14.878  64.775  1.00  0.00    -0.365 C  
HETATM   25  C   UNL     1     -11.566  16.066  64.330  1.00  0.00    -0.212 C  
HETATM   26  O   UNL     1     -12.646  16.014  63.768  1.00  0.00    -0.665 OA 
HETATM   27  O   UNL     1     -10.955  17.237  64.629  1.00  0.00    -1.013 OA 
ENDBRANCH  23  24
ENDBRANCH  22  23
ENDBRANCH  21  22
ENDBRANCH  19  20
ENDBRANCH  18  19
ENDBRANCH  10  11
ENDBRANCH   6   9
ENDBRANCH   5   6
ENDBRANCH   4   5
ENDBRANCH   3   4
ENDBRANCH   2   3
TORSDOF 11
ENDMDL
MODEL      108
REMARK 921   NORMALIZED FREE ENERGY PREDICTED BY IDOCK:   -4.94 KCAL/MOL
REMARK 922        TOTAL FREE ENERGY PREDICTED BY IDOCK:   -9.93 KCAL/MOL
REMARK 923 INTER-LIGAND FREE ENERGY PREDICTED BY IDOCK:   -8.85 KCAL/MOL
REMARK 924 INTRA-LIGAND FREE ENERGY PREDICTED BY IDOCK:   -1.08 KCAL/MOL
REMARK 927      BINDING AFFINITY PREDICTED BY RF-SCORE:    0.00 PKD
ROOT
HETATM    1  C   UNL     1      -9.089   5.431  72.606  1.00  0.00    -0.139 C  
HETATM    2  C   UNL     1     -10.499   5.534  73.159  1.00  0.00    -0.252 C  
ENDROOT
BRANCH   2   3
HETATM    3  C   UNL     1     -10.945   6.988  73.329  1.00  0.00    -0.296 C  
BRANCH   3   4
HETATM    4  C   UNL     1     -11.684   7.463  72.077  1.00  0.00    -0.325 C  
BRANCH   4   5
HETATM    5  C   UNL     1     -11.752   8.988  71.981  1.00  0.00    -0.417 C  
BRANCH   5   6
HETATM    6  C   UNL     1     -11.497   9.518  70.558  1.00  0.00    -0.276 C  
HETATM    7  O   UNL     1     -10.176   9.125  70.197  1.00  0.00    -0.184 OA 
HETATM    8  H   UNL     1     -10.019   9.452  69.320  1.00  0.00     0.000 HD 
BRANCH   6   9
HETATM    9  C   UNL     1     -11.659  11.020  70.448  1.00  0.00    -0.389 C  
HETATM   10  C   UNL     1     -12.634  11.766  70.997  1.00  0.00    -0.409 C  
BRANCH  10  11
HETATM   11  C   UNL     1     -12.868  13.236  70.709  1.00  0.00    -0.194 C  
HETATM   12  C   UNL     1     -12.979  14.011  72.040  1.00  0.00    -0.363 C  
HETATM   13  O   UNL     1     -14.260  13.865  72.636  1.00  0.00    -0.672 OA 
HETATM   14  C   UNL     1     -12.712  15.460  71.692  1.00  0.00    -0.480 C  
HETATM   15  H   UNL     1     -14.328  14.343  73.455  1.00  0.00     0.000 HD 
HETATM   16  C   UNL     1     -11.709  15.315  70.591  1.00  0.00    -0.332 C  
HETATM   17  O   UNL     1     -10.968  16.233  70.260  1.00  0.00    -0.347 OA 
HETATM   18  C   UNL     1     -11.738  13.946  69.926  1.00  0.00    -0.358 C  
BRANCH  18  19
HETATM   19  C   UNL     1     -12.084  14.054  68.433  1.00  0.00    -0.318 C  
BRANCH  19  20
HETATM   20  C   UNL     1     -11.895  12.776  67.657  1.00  0.00    -0.396 C  
HETATM   21  C   UNL     1     -11.863  12.619  66.324  1.00  0.00    -0.471 C  
BRANCH  21  22
HETATM   22  C   UNL     1     -12.039  13.702  65.305  1.00  0.00    -0.429 C  
BRANCH  22  23
HETATM   23  C   UNL     1     -10.710  14.315  64.864  1.00  0.00    -0.448 C  
BRANCH  23  24
HETATM   24  C   UNL     1     -10.801  15.840  64.939  1.00  0.00    -0.433 C  
HETATM   25  C   UNL     1     -10.144  16.401  66.174  1.00  0.00    -0.346 C  
HETATM   26  O   UNL     1      -9.593  15.748  67.043  1.00  0.00    -0.220 OA 
HETATM   27  O   UNL     1     -10.232  17.752  66.222  1.00  0.00    -0.350 OA 
ENDBRANCH  23  24
ENDBRANCH  22  23
ENDBRANCH  21  22
ENDBRANCH  19  20
ENDBRANCH  18  19
ENDBRANCH  10  11
ENDBRANCH   6   9
ENDBRANCH   5   6
ENDBRANCH   4   5
ENDBRANCH   3   4
ENDBRANCH   2   3
TORSDOF 11
ENDMDL
MODEL      109
REMARK 921   NORMALIZED FREE ENERGY PREDICTED BY IDOCK:   -4.94 KCAL/MOL
REMARK 922        TOTAL FREE ENERGY PREDICTED BY IDOCK:   -9.93 KCAL/MOL
REMARK 923 INTER-LIGAND FREE ENERGY PREDICTED BY IDOCK:   -8.56 KCAL/MOL
REMARK 924 INTRA-LIGAND FREE ENERGY PREDICTED BY IDOCK:   -1.37 KCAL/MOL
REMARK 927      BINDING AFFINITY PREDICTED BY RF-SCORE:    0.00 PKD
ROOT
HETATM    1  C   UNL     1     -12.668   7.884  71.862  1.00  0.00    -0.341 C  
HETATM    2  C   UNL     1     -13.680   9.015  71.828  1.00  0.00    -0.474 C  
ENDROOT
BRANCH   2   3
HETATM    3  C   UNL     1     -13.338  10.061  70.766  1.00  0.00    -0.197 C  
BRANCH   3   4
HETATM    4  C   UNL     1     -12.485  11.174  71.377  1.00  0.00    -0.414 C  
BRANCH   4   5
HETATM    5  C   UNL     1     -13.320  12.382  71.806  1.00  0.00    -0.368 C  
BRANCH   5   6
HETATM    6  C   UNL     1     -12.779  13.717  71.264  1.00  0.00    -0.361 C  
HETATM    7  O   UNL     1     -13.909  14.527  70.951  1.00  0.00    -0.462 OA 
HETATM    8  H   UNL     1     -13.575  15.351  70.616  1.00  0.00     0.000 HD 
BRANCH   6   9
HETATM    9  C   UNL     1     -11.887  13.547  70.051  1.00  0.00    -0.371 C  
HETATM   10  C   UNL     1     -12.285  13.394  68.776  1.00  0.00    -0.150 C  
BRANCH  10  11
HETATM   11  C   UNL     1     -11.373  13.039  67.619  1.00  0.00    -0.342 C  
HETATM   12  C   UNL     1     -11.010  11.540  67.688  1.00  0.00    -0.242 C  
HETATM   13  O   UNL     1      -9.991  11.283  68.644  1.00  0.00    -0.196 OA 
HETATM   14  C   UNL     1     -10.544  11.169  66.297  1.00  0.00    -0.309 C  
HETATM   15  H   UNL     1      -9.768  10.360  68.686  1.00  0.00     0.000 HD 
HETATM   16  C   UNL     1     -11.415  12.045  65.453  1.00  0.00    -0.305 C  
HETATM   17  O   UNL     1     -11.616  11.815  64.266  1.00  0.00    -0.333 OA 
HETATM   18  C   UNL     1     -11.980  13.239  66.210  1.00  0.00    -0.471 C  
BRANCH  18  19
HETATM   19  C   UNL     1     -11.516  14.567  65.591  1.00  0.00    -0.341 C  
BRANCH  19  20
HETATM   20  C   UNL     1     -10.020  14.736  65.533  1.00  0.00    -0.390 C  
HETATM   21  C   UNL     1      -9.221  15.310  66.446  1.00  0.00    -0.342 C  
BRANCH  21  22
HETATM   22  C   UNL     1      -9.661  15.940  67.732  1.00  0.00    -0.220 C  
BRANCH  22  23
HETATM   23  C   UNL     1     -10.653  17.082  67.518  1.00  0.00    -0.310 C  
BRANCH  23  24
HETATM   24  C   UNL     1      -9.894  18.405  67.407  1.00  0.00    -0.323 C  
HETATM   25  C   UNL     1     -10.144  19.111  66.099  1.00  0.00    -0.426 C  
HETATM   26  O   UNL     1     -10.863  18.707  65.201  1.00  0.00    -0.551 OA 
HETATM   27  O   UNL     1      -9.466  20.281  66.020  1.00  0.00    -0.319 OA 
ENDBRANCH  23  24
ENDBRANCH  22  23
ENDBRANCH  21  22
ENDBRANCH  19  20
ENDBRANCH  18  19
ENDBRANCH  10  11
ENDBRANCH   6   9
ENDBRANCH   5   6
ENDBRANCH   4   5
ENDBRANCH   3   4
ENDBRANCH   2   3
TORSDOF 11
ENDMDL
MODEL      110
REMARK 921   NORMALIZED FREE ENERGY PREDICTED BY IDOCK:   -4.93 KCAL/MOL
REMARK 922        TOTAL FREE ENERGY PREDICTED BY IDOCK:   -9.92 KCAL/MOL
REMARK 923 INTER-LIGAND FREE ENERGY PREDICTED BY IDOCK:   -7.45 KCAL/MOL
REMARK 924 INTRA-LIGAND FREE ENERGY PREDICTED BY IDOCK:   -2.48 KCAL/MOL
REMARK 927      BINDING AFFINITY PREDICTED BY RF-SCORE:    0.00 PKD
ROOT
HETATM    1  C   UNL     1     -10.013  14.862  65.571  1.00  0.00    -0.392 C  
HETATM    2  C   UNL     1     -10.921  14.918  66.785  1.00  0.00    -0.326 C  
ENDROOT
BRANCH   2   3
HETATM    3  C   UNL     1     -12.255  14.212  66.539  1.00  0.00    -0.463 C  
BRANCH   3   4
HETATM    4  C   UNL     1     -12.551  14.151  65.039  1.00  0.00    -0.399 C  
BRANCH   4   5
HETATM    5  C   UNL     1     -12.876  12.735  64.563  1.00  0.00    -0.323 C  
BRANCH   5   6
HETATM    6  C   UNL     1     -11.791  12.136  63.650  1.00  0.00    -0.516 C  
HETATM    7  O   UNL     1     -12.453  11.291  62.714  1.00  0.00    -0.905 OA 
HETATM    8  H   UNL     1     -11.784  10.922  62.151  1.00  0.00     0.000 HD 
BRANCH   6   9
HETATM    9  C   UNL     1     -10.732  11.366  64.413  1.00  0.00    -0.405 C  
HETATM   10  C   UNL     1     -10.702  11.140  65.739  1.00  0.00    -0.252 C  
BRANCH  10  11
HETATM   11  C   UNL     1      -9.534  10.529  66.488  1.00  0.00    -0.200 C  
HETATM   12  C   UNL     1      -9.210   9.140  65.895  1.00  0.00    -0.227 C  
HETATM   13  O   UNL     1     -10.106   8.141  66.363  1.00  0.00    -0.418 OA 
HETATM   14  C   UNL     1      -7.793   8.833  66.327  1.00  0.00    -0.102 C  
HETATM   15  H   UNL     1      -9.907   7.286  65.998  1.00  0.00     0.000 HD 
HETATM   16  C   UNL     1      -7.181  10.197  66.312  1.00  0.00    -0.111 C  
HETATM   17  O   UNL     1      -5.968  10.367  66.256  1.00  0.00    -0.068 OA 
HETATM   18  C   UNL     1      -8.206  11.319  66.403  1.00  0.00    -0.150 C  
BRANCH  18  19
HETATM   19  C   UNL     1      -7.991  12.176  67.660  1.00  0.00    -0.157 C  
BRANCH  19  20
HETATM   20  C   UNL     1      -6.901  13.208  67.528  1.00  0.00    -0.156 C  
HETATM   21  C   UNL     1      -6.891  14.461  68.010  1.00  0.00    -0.150 C  
BRANCH  21  22
HETATM   22  C   UNL     1      -7.998  15.119  68.776  1.00  0.00    -0.162 C  
BRANCH  22  23
HETATM   23  C   UNL     1      -8.074  16.624  68.521  1.00  0.00    -0.226 C  
BRANCH  23  24
HETATM   24  C   UNL     1      -7.136  16.997  67.372  1.00  0.00    -0.183 C  
HETATM   25  C   UNL     1      -7.824  17.800  66.298  1.00  0.00    -0.264 C  
HETATM   26  O   UNL     1      -8.996  18.134  66.303  1.00  0.00    -0.408 OA 
HETATM   27  O   UNL     1      -6.978  18.123  65.291  1.00  0.00    -0.484 OA 
ENDBRANCH  23  24
ENDBRANCH  22  23
ENDBRANCH  21  22
ENDBRANCH  19  20
ENDBRANCH  18  19
ENDBRANCH  10  11
ENDBRANCH   6   9
ENDBRANCH   5   6
ENDBRANCH   4   5
ENDBRANCH   3   4
ENDBRANCH   2   3
TORSDOF 11
ENDMDL
MODEL      111
REMARK 921   NORMALIZED FREE ENERGY PREDICTED BY IDOCK:   -4.93 KCAL/MOL
REMARK 922        TOTAL FREE ENERGY PREDICTED BY IDOCK:   -9.92 KCAL/MOL
REMARK 923 INTER-LIGAND FREE ENERGY PREDICTED BY IDOCK:   -9.04 KCAL/MOL
REMARK 924 INTRA-LIGAND FREE ENERGY PREDICTED BY IDOCK:   -0.88 KCAL/MOL
REMARK 927      BINDING AFFINITY PREDICTED BY RF-SCORE:    0.00 PKD
ROOT
HETATM    1  C   UNL     1      -9.374   9.962  64.785  1.00  0.00    -0.339 C  
HETATM    2  C   UNL     1      -9.630  10.469  63.377  1.00  0.00    -0.376 C  
ENDROOT
BRANCH   2   3
HETATM    3  C   UNL     1     -10.579  11.669  63.362  1.00  0.00    -0.472 C  
BRANCH   3   4
HETATM    4  C   UNL     1     -10.505  12.416  64.695  1.00  0.00    -0.338 C  
BRANCH   4   5
HETATM    5  C   UNL     1     -11.888  12.693  65.288  1.00  0.00    -0.452 C  
BRANCH   5   6
HETATM    6  C   UNL     1     -11.957  14.013  66.076  1.00  0.00    -0.416 C  
HETATM    7  O   UNL     1     -10.766  14.738  65.781  1.00  0.00    -0.298 OA 
HETATM    8  H   UNL     1     -10.809  15.552  66.267  1.00  0.00     0.000 HD 
BRANCH   6   9
HETATM    9  C   UNL     1     -12.103  13.805  67.569  1.00  0.00    -0.366 C  
HETATM   10  C   UNL     1     -11.978  14.741  68.528  1.00  0.00    -0.284 C  
BRANCH  10  11
HETATM   11  C   UNL     1     -11.945  14.458  70.016  1.00  0.00    -0.394 C  
HETATM   12  C   UNL     1     -12.430  15.705  70.789  1.00  0.00    -0.435 C  
HETATM   13  O   UNL     1     -11.415  16.693  70.896  1.00  0.00    -0.559 OA 
HETATM   14  C   UNL     1     -12.836  15.203  72.158  1.00  0.00    -0.426 C  
HETATM   15  H   UNL     1     -11.714  17.459  71.372  1.00  0.00     0.000 HD 
HETATM   16  C   UNL     1     -13.371  13.846  71.825  1.00  0.00    -0.381 C  
HETATM   17  O   UNL     1     -14.121  13.239  72.580  1.00  0.00    -0.744 OA 
HETATM   18  C   UNL     1     -12.865  13.309  70.493  1.00  0.00    -0.059 C  
BRANCH  18  19
HETATM   19  C   UNL     1     -12.071  12.007  70.679  1.00  0.00    -0.369 C  
BRANCH  19  20
HETATM   20  C   UNL     1     -12.879  10.752  70.468  1.00  0.00    -0.335 C  
HETATM   21  C   UNL     1     -12.625   9.520  70.937  1.00  0.00    -0.251 C  
BRANCH  21  22
HETATM   22  C   UNL     1     -11.444   9.120  71.767  1.00  0.00    -0.452 C  
BRANCH  22  23
HETATM   23  C   UNL     1     -11.727   7.898  72.640  1.00  0.00    -0.398 C  
BRANCH  23  24
HETATM   24  C   UNL     1     -10.406   7.298  73.123  1.00  0.00    -0.359 C  
HETATM   25  C   UNL     1     -10.038   6.035  72.389  1.00  0.00    -0.175 C  
HETATM   26  O   UNL     1     -10.693   5.513  71.503  1.00  0.00    -0.243 OA 
HETATM   27  O   UNL     1      -8.865   5.519  72.828  1.00  0.00    -0.123 OA 
ENDBRANCH  23  24
ENDBRANCH  22  23
ENDBRANCH  21  22
ENDBRANCH  19  20
ENDBRANCH  18  19
ENDBRANCH  10  11
ENDBRANCH   6   9
ENDBRANCH   5   6
ENDBRANCH   4   5
ENDBRANCH   3   4
ENDBRANCH   2   3
TORSDOF 11
ENDMDL
MODEL      112
REMARK 921   NORMALIZED FREE ENERGY PREDICTED BY IDOCK:   -4.93 KCAL/MOL
REMARK 922        TOTAL FREE ENERGY PREDICTED BY IDOCK:   -9.92 KCAL/MOL
REMARK 923 INTER-LIGAND FREE ENERGY PREDICTED BY IDOCK:   -7.98 KCAL/MOL
REMARK 924 INTRA-LIGAND FREE ENERGY PREDICTED BY IDOCK:   -1.94 KCAL/MOL
REMARK 927      BINDING AFFINITY PREDICTED BY RF-SCORE:    0.00 PKD
ROOT
HETATM    1  C   UNL     1     -10.641   9.302  69.412  1.00  0.00    -0.234 C  
HETATM    2  C   UNL     1     -11.231  10.626  68.963  1.00  0.00    -0.324 C  
ENDROOT
BRANCH   2   3
HETATM    3  C   UNL     1     -11.150  10.807  67.446  1.00  0.00    -0.363 C  
BRANCH   3   4
HETATM    4  C   UNL     1      -9.735  10.498  66.953  1.00  0.00    -0.218 C  
BRANCH   4   5
HETATM    5  C   UNL     1      -9.273  11.463  65.861  1.00  0.00    -0.231 C  
BRANCH   5   6
HETATM    6  C   UNL     1      -9.985  12.826  65.913  1.00  0.00    -0.266 C  
HETATM    7  O   UNL     1     -10.087  13.295  64.572  1.00  0.00    -0.586 OA 
HETATM    8  H   UNL     1     -10.526  14.136  64.604  1.00  0.00     0.000 HD 
BRANCH   6   9
HETATM    9  C   UNL     1      -9.267  13.838  66.783  1.00  0.00    -0.255 C  
HETATM   10  C   UNL     1      -8.861  13.663  68.053  1.00  0.00    -0.187 C  
BRANCH  10  11
HETATM   11  C   UNL     1      -8.316  14.757  68.948  1.00  0.00    -0.163 C  
HETATM   12  C   UNL     1      -6.816  14.506  69.216  1.00  0.00    -0.134 C  
HETATM   13  O   UNL     1      -6.611  13.512  70.210  1.00  0.00    -0.379 OA 
HETATM   14  C   UNL     1      -6.254  15.837  69.665  1.00  0.00    -0.169 C  
HETATM   15  H   UNL     1      -5.688  13.359  70.374  1.00  0.00     0.000 HD 
HETATM   16  C   UNL     1      -7.076  16.790  68.856  1.00  0.00    -0.215 C  
HETATM   17  O   UNL     1      -6.719  17.944  68.648  1.00  0.00    -0.219 OA 
HETATM   18  C   UNL     1      -8.384  16.188  68.363  1.00  0.00    -0.179 C  
BRANCH  18  19
HETATM   19  C   UNL     1      -9.597  16.953  68.913  1.00  0.00    -0.251 C  
BRANCH  19  20
HETATM   20  C   UNL     1     -10.877  16.718  68.153  1.00  0.00    -0.353 C  
HETATM   21  C   UNL     1     -11.892  15.904  68.482  1.00  0.00    -0.197 C  
BRANCH  21  22
HETATM   22  C   UNL     1     -11.957  15.020  69.688  1.00  0.00    -0.356 C  
BRANCH  22  23
HETATM   23  C   UNL     1     -13.102  15.392  70.630  1.00  0.00    -0.405 C  
BRANCH  23  24
HETATM   24  C   UNL     1     -12.532  15.822  71.982  1.00  0.00    -0.531 C  
HETATM   25  C   UNL     1     -12.882  14.863  73.092  1.00  0.00    -0.512 C  
HETATM   26  O   UNL     1     -13.545  13.848  72.969  1.00  0.00    -0.628 OA 
HETATM   27  O   UNL     1     -12.368  15.259  74.281  1.00  0.00    -0.622 OA 
ENDBRANCH  23  24
ENDBRANCH  22  23
ENDBRANCH  21  22
ENDBRANCH  19  20
ENDBRANCH  18  19
ENDBRANCH  10  11
ENDBRANCH   6   9
ENDBRANCH   5   6
ENDBRANCH   4   5
ENDBRANCH   3   4
ENDBRANCH   2   3
TORSDOF 11
ENDMDL
MODEL      113
REMARK 921   NORMALIZED FREE ENERGY PREDICTED BY IDOCK:   -4.93 KCAL/MOL
REMARK 922        TOTAL FREE ENERGY PREDICTED BY IDOCK:   -9.92 KCAL/MOL
REMARK 923 INTER-LIGAND FREE ENERGY PREDICTED BY IDOCK:   -8.29 KCAL/MOL
REMARK 924 INTRA-LIGAND FREE ENERGY PREDICTED BY IDOCK:   -1.63 KCAL/MOL
REMARK 927      BINDING AFFINITY PREDICTED BY RF-SCORE:    0.00 PKD
ROOT
HETATM    1  C   UNL     1     -11.336   7.065  70.995  1.00  0.00    -0.325 C  
HETATM    2  C   UNL     1     -11.061   6.791  69.528  1.00  0.00    -0.324 C  
ENDROOT
BRANCH   2   3
HETATM    3  C   UNL     1      -9.586   6.986  69.173  1.00  0.00    -0.149 C  
BRANCH   3   4
HETATM    4  C   UNL     1      -9.420   7.116  67.658  1.00  0.00    -0.141 C  
BRANCH   4   5
HETATM    5  C   UNL     1     -10.532   7.949  67.017  1.00  0.00    -0.419 C  
BRANCH   5   6
HETATM    6  C   UNL     1     -10.110   9.399  66.720  1.00  0.00    -0.256 C  
HETATM    7  O   UNL     1      -8.749   9.528  67.123  1.00  0.00    -0.130 OA 
HETATM    8  H   UNL     1      -8.489  10.423  66.939  1.00  0.00     0.000 HD 
BRANCH   6   9
HETATM    9  C   UNL     1     -10.977  10.424  67.421  1.00  0.00    -0.335 C  
HETATM   10  C   UNL     1     -11.133  10.573  68.748  1.00  0.00    -0.315 C  
BRANCH  10  11
HETATM   11  C   UNL     1     -12.151  11.484  69.405  1.00  0.00    -0.345 C  
HETATM   12  C   UNL     1     -12.499  10.941  70.809  1.00  0.00    -0.394 C  
HETATM   13  O   UNL     1     -13.421   9.862  70.747  1.00  0.00    -0.590 OA 
HETATM   14  C   UNL     1     -13.094  12.111  71.562  1.00  0.00    -0.357 C  
HETATM   15  H   UNL     1     -13.636   9.528  71.611  1.00  0.00     0.000 HD 
HETATM   16  C   UNL     1     -12.311  13.252  70.995  1.00  0.00    -0.291 C  
HETATM   17  O   UNL     1     -12.223  14.331  71.570  1.00  0.00    -0.340 OA 
HETATM   18  C   UNL     1     -11.681  12.938  69.645  1.00  0.00    -0.367 C  
BRANCH  18  19
HETATM   19  C   UNL     1     -12.207  13.877  68.548  1.00  0.00    -0.201 C  
BRANCH  19  20
HETATM   20  C   UNL     1     -11.133  14.482  67.680  1.00  0.00    -0.314 C  
HETATM   21  C   UNL     1     -10.401  15.580  67.923  1.00  0.00    -0.250 C  
BRANCH  21  22
HETATM   22  C   UNL     1     -10.516  16.470  69.122  1.00  0.00    -0.317 C  
BRANCH  22  23
HETATM   23  C   UNL     1     -10.278  17.942  68.788  1.00  0.00    -0.362 C  
BRANCH  23  24
HETATM   24  C   UNL     1     -10.577  18.185  67.308  1.00  0.00    -0.384 C  
HETATM   25  C   UNL     1     -10.333  19.614  66.893  1.00  0.00    -0.465 C  
HETATM   26  O   UNL     1      -9.943  20.508  67.624  1.00  0.00    -0.409 OA 
HETATM   27  O   UNL     1     -10.600  19.810  65.580  1.00  0.00    -0.507 OA 
ENDBRANCH  23  24
ENDBRANCH  22  23
ENDBRANCH  21  22
ENDBRANCH  19  20
ENDBRANCH  18  19
ENDBRANCH  10  11
ENDBRANCH   6   9
ENDBRANCH   5   6
ENDBRANCH   4   5
ENDBRANCH   3   4
ENDBRANCH   2   3
TORSDOF 11
ENDMDL
MODEL      114
REMARK 921   NORMALIZED FREE ENERGY PREDICTED BY IDOCK:   -4.92 KCAL/MOL
REMARK 922        TOTAL FREE ENERGY PREDICTED BY IDOCK:   -9.90 KCAL/MOL
REMARK 923 INTER-LIGAND FREE ENERGY PREDICTED BY IDOCK:   -7.60 KCAL/MOL
REMARK 924 INTRA-LIGAND FREE ENERGY PREDICTED BY IDOCK:   -2.30 KCAL/MOL
REMARK 927      BINDING AFFINITY PREDICTED BY RF-SCORE:    0.00 PKD
ROOT
HETATM    1  C   UNL     1      -5.656  11.301  67.686  1.00  0.00    -0.047 C  
HETATM    2  C   UNL     1      -6.755  10.380  67.190  1.00  0.00    -0.078 C  
ENDROOT
BRANCH   2   3
HETATM    3  C   UNL     1      -7.263   9.446  68.290  1.00  0.00    -0.077 C  
BRANCH   3   4
HETATM    4  C   UNL     1      -7.696   8.108  67.688  1.00  0.00    -0.102 C  
BRANCH   4   5
HETATM    5  C   UNL     1      -9.185   7.827  67.896  1.00  0.00    -0.141 C  
BRANCH   5   6
HETATM    6  C   UNL     1     -10.013   7.956  66.605  1.00  0.00    -0.246 C  
HETATM    7  O   UNL     1      -9.196   7.486  65.537  1.00  0.00    -0.385 OA 
HETATM    8  H   UNL     1      -9.707   7.565  64.740  1.00  0.00     0.000 HD 
BRANCH   6   9
HETATM    9  C   UNL     1     -10.480   9.373  66.339  1.00  0.00    -0.165 C  
HETATM   10  C   UNL     1      -9.959  10.238  65.452  1.00  0.00    -0.371 C  
BRANCH  10  11
HETATM   11  C   UNL     1     -10.331  11.704  65.348  1.00  0.00    -0.313 C  
HETATM   12  C   UNL     1     -10.641  12.055  63.876  1.00  0.00    -0.400 C  
HETATM   13  O   UNL     1      -9.457  12.243  63.114  1.00  0.00    -0.608 OA 
HETATM   14  C   UNL     1     -11.456  13.329  63.924  1.00  0.00    -0.409 C  
HETATM   15  H   UNL     1      -9.649  12.459  62.208  1.00  0.00     0.000 HD 
HETATM   16  C   UNL     1     -12.232  13.133  65.188  1.00  0.00    -0.450 C  
HETATM   17  O   UNL     1     -13.261  13.755  65.424  1.00  0.00    -0.722 OA 
HETATM   18  C   UNL     1     -11.596  12.123  66.134  1.00  0.00    -0.418 C  
BRANCH  18  19
HETATM   19  C   UNL     1     -11.224  12.770  67.477  1.00  0.00    -0.332 C  
BRANCH  19  20
HETATM   20  C   UNL     1      -9.795  12.546  67.899  1.00  0.00    -0.207 C  
HETATM   21  C   UNL     1      -8.865  13.471  68.185  1.00  0.00    -0.179 C  
BRANCH  21  22
HETATM   22  C   UNL     1      -9.050  14.956  68.117  1.00  0.00    -0.177 C  
BRANCH  22  23
HETATM   23  C   UNL     1      -8.828  15.513  66.712  1.00  0.00    -0.297 C  
BRANCH  23  24
HETATM   24  C   UNL     1     -10.032  16.363  66.303  1.00  0.00    -0.341 C  
HETATM   25  C   UNL     1      -9.654  17.784  65.969  1.00  0.00    -0.093 C  
HETATM   26  O   UNL     1      -8.526  18.245  66.009  1.00  0.00    -0.494 OA 
HETATM   27  O   UNL     1     -10.731  18.520  65.607  1.00  0.00    -0.549 OA 
ENDBRANCH  23  24
ENDBRANCH  22  23
ENDBRANCH  21  22
ENDBRANCH  19  20
ENDBRANCH  18  19
ENDBRANCH  10  11
ENDBRANCH   6   9
ENDBRANCH   5   6
ENDBRANCH   4   5
ENDBRANCH   3   4
ENDBRANCH   2   3
TORSDOF 11
ENDMDL
MODEL      115
REMARK 921   NORMALIZED FREE ENERGY PREDICTED BY IDOCK:   -4.92 KCAL/MOL
REMARK 922        TOTAL FREE ENERGY PREDICTED BY IDOCK:   -9.89 KCAL/MOL
REMARK 923 INTER-LIGAND FREE ENERGY PREDICTED BY IDOCK:   -7.71 KCAL/MOL
REMARK 924 INTRA-LIGAND FREE ENERGY PREDICTED BY IDOCK:   -2.19 KCAL/MOL
REMARK 927      BINDING AFFINITY PREDICTED BY RF-SCORE:    0.00 PKD
ROOT
HETATM    1  C   UNL     1      -9.740   9.095  65.852  1.00  0.00    -0.336 C  
HETATM    2  C   UNL     1      -9.911  10.574  65.561  1.00  0.00    -0.342 C  
ENDROOT
BRANCH   2   3
HETATM    3  C   UNL     1     -10.100  10.848  64.068  1.00  0.00    -0.419 C  
BRANCH   3   4
HETATM    4  C   UNL     1     -10.947  12.106  63.865  1.00  0.00    -0.463 C  
BRANCH   4   5
HETATM    5  C   UNL     1     -10.849  13.074  65.045  1.00  0.00    -0.328 C  
BRANCH   5   6
HETATM    6  C   UNL     1     -12.214  13.412  65.669  1.00  0.00    -0.463 C  
HETATM    7  O   UNL     1     -12.828  14.385  64.828  1.00  0.00    -0.647 OA 
HETATM    8  H   UNL     1     -13.671  14.593  65.213  1.00  0.00     0.000 HD 
BRANCH   6   9
HETATM    9  C   UNL     1     -12.106  13.923  67.091  1.00  0.00    -0.422 C  
HETATM   10  C   UNL     1     -11.144  13.624  67.982  1.00  0.00    -0.285 C  
BRANCH  10  11
HETATM   11  C   UNL     1     -11.172  14.004  69.449  1.00  0.00    -0.283 C  
HETATM   12  C   UNL     1     -11.053  15.537  69.588  1.00  0.00    -0.279 C  
HETATM   13  O   UNL     1      -9.711  15.982  69.439  1.00  0.00    -0.247 OA 
HETATM   14  C   UNL     1     -11.575  15.864  70.970  1.00  0.00    -0.465 C  
HETATM   15  H   UNL     1      -9.638  16.925  69.525  1.00  0.00     0.000 HD 
HETATM   16  C   UNL     1     -12.646  14.832  71.128  1.00  0.00    -0.337 C  
HETATM   17  O   UNL     1     -13.551  14.953  71.946  1.00  0.00    -0.341 OA 
HETATM   18  C   UNL     1     -12.470  13.634  70.205  1.00  0.00    -0.335 C  
BRANCH  18  19
HETATM   19  C   UNL     1     -12.295  12.333  71.002  1.00  0.00    -0.320 C  
BRANCH  19  20
HETATM   20  C   UNL     1     -12.541  11.078  70.205  1.00  0.00    -0.281 C  
HETATM   21  C   UNL     1     -11.650  10.138  69.852  1.00  0.00    -0.290 C  
BRANCH  21  22
HETATM   22  C   UNL     1     -10.185  10.152  70.163  1.00  0.00    -0.235 C  
BRANCH  22  23
HETATM   23  C   UNL     1      -9.346  10.724  69.021  1.00  0.00    -0.168 C  
BRANCH  23  24
HETATM   24  C   UNL     1      -7.862  10.511  69.321  1.00  0.00    -0.144 C  
HETATM   25  C   UNL     1      -7.036  11.748  69.073  1.00  0.00    -0.107 C  
HETATM   26  O   UNL     1      -7.463  12.818  68.676  1.00  0.00    -0.116 OA 
HETATM   27  O   UNL     1      -5.725  11.541  69.345  1.00  0.00    -0.052 OA 
ENDBRANCH  23  24
ENDBRANCH  22  23
ENDBRANCH  21  22
ENDBRANCH  19  20
ENDBRANCH  18  19
ENDBRANCH  10  11
ENDBRANCH   6   9
ENDBRANCH   5   6
ENDBRANCH   4   5
ENDBRANCH   3   4
ENDBRANCH   2   3
TORSDOF 11
ENDMDL
MODEL      116
REMARK 921   NORMALIZED FREE ENERGY PREDICTED BY IDOCK:   -4.90 KCAL/MOL
REMARK 922        TOTAL FREE ENERGY PREDICTED BY IDOCK:   -9.87 KCAL/MOL
REMARK 923 INTER-LIGAND FREE ENERGY PREDICTED BY IDOCK:   -7.55 KCAL/MOL
REMARK 924 INTRA-LIGAND FREE ENERGY PREDICTED BY IDOCK:   -2.32 KCAL/MOL
REMARK 927      BINDING AFFINITY PREDICTED BY RF-SCORE:    0.00 PKD
ROOT
HETATM    1  C   UNL     1     -12.594  12.612  64.921  1.00  0.00    -0.525 C  
HETATM    2  C   UNL     1     -12.551  14.104  65.196  1.00  0.00    -0.426 C  
ENDROOT
BRANCH   2   3
HETATM    3  C   UNL     1     -11.507  14.817  64.335  1.00  0.00    -0.261 C  
BRANCH   3   4
HETATM    4  C   UNL     1     -11.111  16.147  64.979  1.00  0.00    -0.304 C  
BRANCH   4   5
HETATM    5  C   UNL     1     -10.932  16.033  66.494  1.00  0.00    -0.080 C  
BRANCH   5   6
HETATM    6  C   UNL     1      -9.464  15.848  66.919  1.00  0.00    -0.227 C  
HETATM    7  O   UNL     1      -8.656  16.256  65.818  1.00  0.00    -0.348 OA 
HETATM    8  H   UNL     1      -7.751  16.142  66.081  1.00  0.00     0.000 HD 
BRANCH   6   9
HETATM    9  C   UNL     1      -9.139  14.425  67.325  1.00  0.00    -0.221 C  
HETATM   10  C   UNL     1      -9.339  13.315  66.593  1.00  0.00    -0.247 C  
BRANCH  10  11
HETATM   11  C   UNL     1      -9.176  11.897  67.104  1.00  0.00    -0.183 C  
HETATM   12  C   UNL     1      -7.760  11.384  66.763  1.00  0.00    -0.150 C  
HETATM   13  O   UNL     1      -7.658  10.968  65.408  1.00  0.00    -0.362 OA 
HETATM   14  C   UNL     1      -7.510  10.223  67.701  1.00  0.00    -0.089 C  
HETATM   15  H   UNL     1      -6.786  10.652  65.199  1.00  0.00     0.000 HD 
HETATM   16  C   UNL     1      -8.245  10.672  68.924  1.00  0.00    -0.145 C  
HETATM   17  O   UNL     1      -8.014  10.202  70.032  1.00  0.00    -0.172 OA 
HETATM   18  C   UNL     1      -9.305  11.727  68.637  1.00  0.00    -0.096 C  
BRANCH  18  19
HETATM   19  C   UNL     1     -10.707  11.233  69.023  1.00  0.00    -0.257 C  
BRANCH  19  20
HETATM   20  C   UNL     1     -11.833  12.094  68.508  1.00  0.00    -0.365 C  
HETATM   21  C   UNL     1     -12.253  13.274  68.989  1.00  0.00    -0.156 C  
BRANCH  21  22
HETATM   22  C   UNL     1     -11.696  13.988  70.182  1.00  0.00    -0.331 C  
BRANCH  22  23
HETATM   23  C   UNL     1     -12.374  15.335  70.431  1.00  0.00    -0.422 C  
BRANCH  23  24
HETATM   24  C   UNL     1     -11.912  15.900  71.775  1.00  0.00    -0.573 C  
HETATM   25  C   UNL     1     -12.975  15.807  72.840  1.00  0.00    -0.500 C  
HETATM   26  O   UNL     1     -14.092  15.343  72.689  1.00  0.00    -0.516 OA 
HETATM   27  O   UNL     1     -12.547  16.309  74.023  1.00  0.00    -0.590 OA 
ENDBRANCH  23  24
ENDBRANCH  22  23
ENDBRANCH  21  22
ENDBRANCH  19  20
ENDBRANCH  18  19
ENDBRANCH  10  11
ENDBRANCH   6   9
ENDBRANCH   5   6
ENDBRANCH   4   5
ENDBRANCH   3   4
ENDBRANCH   2   3
TORSDOF 11
ENDMDL
MODEL      117
REMARK 921   NORMALIZED FREE ENERGY PREDICTED BY IDOCK:   -4.87 KCAL/MOL
REMARK 922        TOTAL FREE ENERGY PREDICTED BY IDOCK:   -9.82 KCAL/MOL
REMARK 923 INTER-LIGAND FREE ENERGY PREDICTED BY IDOCK:   -7.86 KCAL/MOL
REMARK 924 INTRA-LIGAND FREE ENERGY PREDICTED BY IDOCK:   -1.96 KCAL/MOL
REMARK 927      BINDING AFFINITY PREDICTED BY RF-SCORE:    0.00 PKD
ROOT
HETATM    1  C   UNL     1     -12.642  13.911  65.604  1.00  0.00    -0.553 C  
HETATM    2  C   UNL     1     -12.529  12.595  64.857  1.00  0.00    -0.564 C  
ENDROOT
BRANCH   2   3
HETATM    3  C   UNL     1     -11.921  12.775  63.465  1.00  0.00    -0.633 C  
BRANCH   3   4
HETATM    4  C   UNL     1     -10.643  11.944  63.337  1.00  0.00    -0.485 C  
BRANCH   4   5
HETATM    5  C   UNL     1     -10.507  10.903  64.449  1.00  0.00    -0.403 C  
BRANCH   5   6
HETATM    6  C   UNL     1      -9.167  10.987  65.200  1.00  0.00    -0.205 C  
HETATM    7  O   UNL     1      -8.399   9.850  64.812  1.00  0.00    -0.142 OA 
HETATM    8  H   UNL     1      -7.572   9.902  65.276  1.00  0.00     0.000 HD 
BRANCH   6   9
HETATM    9  C   UNL     1      -9.332  11.034  66.706  1.00  0.00    -0.199 C  
HETATM   10  C   UNL     1     -10.419  10.666  67.407  1.00  0.00    -0.280 C  
BRANCH  10  11
HETATM   11  C   UNL     1     -10.616  10.904  68.891  1.00  0.00    -0.241 C  
HETATM   12  C   UNL     1     -11.990  11.567  69.130  1.00  0.00    -0.320 C  
HETATM   13  O   UNL     1     -11.964  12.960  68.853  1.00  0.00    -0.300 OA 
HETATM   14  C   UNL     1     -12.315  11.316  70.587  1.00  0.00    -0.477 C  
HETATM   15  H   UNL     1     -12.809  13.367  69.001  1.00  0.00     0.000 HD 
HETATM   16  C   UNL     1     -11.700   9.969  70.796  1.00  0.00    -0.350 C  
HETATM   17  O   UNL     1     -12.027   9.240  71.726  1.00  0.00    -0.349 OA 
HETATM   18  C   UNL     1     -10.627   9.630  69.770  1.00  0.00    -0.267 C  
BRANCH  18  19
HETATM   19  C   UNL     1      -9.262   9.406  70.437  1.00  0.00    -0.305 C  
BRANCH  19  20
HETATM   20  C   UNL     1      -8.392   8.387  69.747  1.00  0.00    -0.125 C  
HETATM   21  C   UNL     1      -8.478   7.050  69.817  1.00  0.00    -0.137 C  
BRANCH  21  22
HETATM   22  C   UNL     1      -9.462   6.271  70.635  1.00  0.00    -0.182 C  
BRANCH  22  23
HETATM   23  C   UNL     1     -10.729   5.924  69.855  1.00  0.00    -0.406 C  
BRANCH  23  24
HETATM   24  C   UNL     1     -10.364   5.078  68.635  1.00  0.00    -0.098 C  
HETATM   25  C   UNL     1     -10.736   5.743  67.334  1.00  0.00    -0.248 C  
HETATM   26  O   UNL     1     -11.271   6.832  67.222  1.00  0.00    -0.348 OA 
HETATM   27  O   UNL     1     -10.403   4.981  66.265  1.00  0.00    -0.246 OA 
ENDBRANCH  23  24
ENDBRANCH  22  23
ENDBRANCH  21  22
ENDBRANCH  19  20
ENDBRANCH  18  19
ENDBRANCH  10  11
ENDBRANCH   6   9
ENDBRANCH   5   6
ENDBRANCH   4   5
ENDBRANCH   3   4
ENDBRANCH   2   3
TORSDOF 11
ENDMDL
MODEL      118
REMARK 921   NORMALIZED FREE ENERGY PREDICTED BY IDOCK:   -4.87 KCAL/MOL
REMARK 922        TOTAL FREE ENERGY PREDICTED BY IDOCK:   -9.82 KCAL/MOL
REMARK 923 INTER-LIGAND FREE ENERGY PREDICTED BY IDOCK:   -7.75 KCAL/MOL
REMARK 924 INTRA-LIGAND FREE ENERGY PREDICTED BY IDOCK:   -2.07 KCAL/MOL
REMARK 927      BINDING AFFINITY PREDICTED BY RF-SCORE:    0.00 PKD
ROOT
HETATM    1  C   UNL     1      -8.735   8.842  68.868  1.00  0.00    -0.136 C  
HETATM    2  C   UNL     1     -10.052   8.090  68.921  1.00  0.00    -0.209 C  
ENDROOT
BRANCH   2   3
HETATM    3  C   UNL     1     -10.317   7.492  70.304  1.00  0.00    -0.215 C  
BRANCH   3   4
HETATM    4  C   UNL     1     -11.547   8.147  70.935  1.00  0.00    -0.283 C  
BRANCH   4   5
HETATM    5  C   UNL     1     -11.273   9.575  71.408  1.00  0.00    -0.452 C  
BRANCH   5   6
HETATM    6  C   UNL     1     -12.353  10.579  70.968  1.00  0.00    -0.399 C  
HETATM    7  O   UNL     1     -13.467   9.818  70.510  1.00  0.00    -0.606 OA 
HETATM    8  H   UNL     1     -14.134  10.438  70.239  1.00  0.00     0.000 HD 
BRANCH   6   9
HETATM    9  C   UNL     1     -11.874  11.531  69.890  1.00  0.00    -0.430 C  
HETATM   10  C   UNL     1     -11.743  11.261  68.579  1.00  0.00    -0.378 C  
BRANCH  10  11
HETATM   11  C   UNL     1     -11.085  12.176  67.566  1.00  0.00    -0.328 C  
HETATM   12  C   UNL     1     -11.077  11.493  66.181  1.00  0.00    -0.244 C  
HETATM   13  O   UNL     1     -10.039  10.530  66.069  1.00  0.00    -0.238 OA 
HETATM   14  C   UNL     1     -10.883  12.609  65.178  1.00  0.00    -0.321 C  
HETATM   15  H   UNL     1     -10.035  10.110  65.217  1.00  0.00     0.000 HD 
HETATM   16  C   UNL     1     -11.620  13.729  65.840  1.00  0.00    -0.333 C  
HETATM   17  O   UNL     1     -12.012  14.710  65.217  1.00  0.00    -0.354 OA 
HETATM   18  C   UNL     1     -11.795  13.532  67.340  1.00  0.00    -0.423 C  
BRANCH  18  19
HETATM   19  C   UNL     1     -11.112  14.654  68.137  1.00  0.00    -0.285 C  
BRANCH  19  20
HETATM   20  C   UNL     1      -9.647  14.422  68.406  1.00  0.00    -0.219 C  
HETATM   21  C   UNL     1      -8.597  14.981  67.785  1.00  0.00    -0.165 C  
BRANCH  21  22
HETATM   22  C   UNL     1      -8.661  15.959  66.652  1.00  0.00    -0.324 C  
BRANCH  22  23
HETATM   23  C   UNL     1      -8.753  17.407  67.129  1.00  0.00    -0.239 C  
BRANCH  23  24
HETATM   24  C   UNL     1      -7.784  17.625  68.291  1.00  0.00    -0.253 C  
HETATM   25  C   UNL     1      -7.456  19.081  68.510  1.00  0.00    -0.317 C  
HETATM   26  O   UNL     1      -7.891  20.012  67.855  1.00  0.00    -0.291 OA 
HETATM   27  O   UNL     1      -6.599  19.254  69.544  1.00  0.00    -0.303 OA 
ENDBRANCH  23  24
ENDBRANCH  22  23
ENDBRANCH  21  22
ENDBRANCH  19  20
ENDBRANCH  18  19
ENDBRANCH  10  11
ENDBRANCH   6   9
ENDBRANCH   5   6
ENDBRANCH   4   5
ENDBRANCH   3   4
ENDBRANCH   2   3
TORSDOF 11
ENDMDL
MODEL      119
REMARK 921   NORMALIZED FREE ENERGY PREDICTED BY IDOCK:   -4.87 KCAL/MOL
REMARK 922        TOTAL FREE ENERGY PREDICTED BY IDOCK:   -9.82 KCAL/MOL
REMARK 923 INTER-LIGAND FREE ENERGY PREDICTED BY IDOCK:   -7.66 KCAL/MOL
REMARK 924 INTRA-LIGAND FREE ENERGY PREDICTED BY IDOCK:   -2.16 KCAL/MOL
REMARK 927      BINDING AFFINITY PREDICTED BY RF-SCORE:    0.00 PKD
ROOT
HETATM    1  C   UNL     1      -9.475  10.450  62.739  1.00  0.00    -0.351 C  
HETATM    2  C   UNL     1      -9.712  11.216  64.028  1.00  0.00    -0.323 C  
ENDROOT
BRANCH   2   3
HETATM    3  C   UNL     1     -11.135  11.769  64.115  1.00  0.00    -0.442 C  
BRANCH   3   4
HETATM    4  C   UNL     1     -11.166  13.006  65.014  1.00  0.00    -0.324 C  
BRANCH   4   5
HETATM    5  C   UNL     1     -11.919  14.175  64.377  1.00  0.00    -0.478 C  
BRANCH   5   6
HETATM    6  C   UNL     1     -11.457  15.549  64.894  1.00  0.00    -0.279 C  
HETATM    7  O   UNL     1     -11.467  16.438  63.781  1.00  0.00    -1.590 OA 
HETATM    8  H   UNL     1     -11.183  17.286  64.100  1.00  0.00     0.000 HD 
BRANCH   6   9
HETATM    9  C   UNL     1     -10.087  15.511  65.539  1.00  0.00    -0.406 C  
HETATM   10  C   UNL     1      -9.600  16.377  66.445  1.00  0.00    -0.313 C  
BRANCH  10  11
HETATM   11  C   UNL     1      -8.163  16.414  66.925  1.00  0.00    -0.253 C  
HETATM   12  C   UNL     1      -7.546  17.792  66.599  1.00  0.00    -0.236 C  
HETATM   13  O   UNL     1      -7.154  17.890  65.236  1.00  0.00    -0.346 OA 
HETATM   14  C   UNL     1      -6.347  17.928  67.512  1.00  0.00    -0.179 C  
HETATM   15  H   UNL     1      -6.774  18.737  65.036  1.00  0.00     0.000 HD 
HETATM   16  C   UNL     1      -6.826  17.206  68.732  1.00  0.00    -0.209 C  
HETATM   17  O   UNL     1      -6.313  17.375  69.832  1.00  0.00    -0.202 OA 
HETATM   18  C   UNL     1      -7.969  16.240  68.450  1.00  0.00    -0.173 C  
BRANCH  18  19
HETATM   19  C   UNL     1      -7.581  14.795  68.797  1.00  0.00    -0.137 C  
BRANCH  19  20
HETATM   20  C   UNL     1      -7.515  13.868  67.610  1.00  0.00    -0.187 C  
HETATM   21  C   UNL     1      -8.250  12.769  67.382  1.00  0.00    -0.186 C  
BRANCH  21  22
HETATM   22  C   UNL     1      -9.299  12.206  68.292  1.00  0.00    -0.198 C  
BRANCH  22  23
HETATM   23  C   UNL     1      -9.822  10.851  67.818  1.00  0.00    -0.194 C  
BRANCH  23  24
HETATM   24  C   UNL     1      -8.647   9.899  67.593  1.00  0.00    -0.122 C  
HETATM   25  C   UNL     1      -9.067   8.595  66.964  1.00  0.00    -0.138 C  
HETATM   26  O   UNL     1     -10.207   8.291  66.656  1.00  0.00    -0.290 OA 
HETATM   27  O   UNL     1      -8.014   7.766  66.770  1.00  0.00    -0.104 OA 
ENDBRANCH  23  24
ENDBRANCH  22  23
ENDBRANCH  21  22
ENDBRANCH  19  20
ENDBRANCH  18  19
ENDBRANCH  10  11
ENDBRANCH   6   9
ENDBRANCH   5   6
ENDBRANCH   4   5
ENDBRANCH   3   4
ENDBRANCH   2   3
TORSDOF 11
ENDMDL
MODEL      120
REMARK 921   NORMALIZED FREE ENERGY PREDICTED BY IDOCK:   -4.86 KCAL/MOL
REMARK 922        TOTAL FREE ENERGY PREDICTED BY IDOCK:   -9.81 KCAL/MOL
REMARK 923 INTER-LIGAND FREE ENERGY PREDICTED BY IDOCK:   -7.81 KCAL/MOL
REMARK 924 INTRA-LIGAND FREE ENERGY PREDICTED BY IDOCK:   -2.00 KCAL/MOL
REMARK 927      BINDING AFFINITY PREDICTED BY RF-SCORE:    0.00 PKD
ROOT
HETATM    1  C   UNL     1     -10.617   5.743  72.812  1.00  0.00    -0.262 C  
HETATM    2  C   UNL     1     -11.400   6.187  71.590  1.00  0.00    -0.341 C  
ENDROOT
BRANCH   2   3
HETATM    3  C   UNL     1     -10.757   7.392  70.901  1.00  0.00    -0.248 C  
BRANCH   3   4
HETATM    4  C   UNL     1     -10.770   8.602  71.836  1.00  0.00    -0.414 C  
BRANCH   4   5
HETATM    5  C   UNL     1     -12.184   9.115  72.112  1.00  0.00    -0.408 C  
BRANCH   5   6
HETATM    6  C   UNL     1     -12.607  10.262  71.177  1.00  0.00    -0.400 C  
HETATM    7  O   UNL     1     -13.726   9.797  70.427  1.00  0.00    -0.476 OA 
HETATM    8  H   UNL     1     -13.987  10.505  69.850  1.00  0.00     0.000 HD 
BRANCH   6   9
HETATM    9  C   UNL     1     -11.494  10.718  70.256  1.00  0.00    -0.406 C  
HETATM   10  C   UNL     1     -11.468  10.615  68.915  1.00  0.00    -0.334 C  
BRANCH  10  11
HETATM   11  C   UNL     1     -10.262  10.910  68.046  1.00  0.00    -0.202 C  
HETATM   12  C   UNL     1      -9.229   9.770  68.193  1.00  0.00    -0.128 C  
HETATM   13  O   UNL     1      -8.470   9.892  69.387  1.00  0.00    -0.137 OA 
HETATM   14  C   UNL     1      -8.335   9.872  66.976  1.00  0.00    -0.121 C  
HETATM   15  H   UNL     1      -7.834   9.191  69.477  1.00  0.00     0.000 HD 
HETATM   16  C   UNL     1      -9.305  10.342  65.939  1.00  0.00    -0.180 C  
HETATM   17  O   UNL     1      -9.086  10.219  64.739  1.00  0.00    -0.183 OA 
HETATM   18  C   UNL     1     -10.545  10.999  66.528  1.00  0.00    -0.310 C  
BRANCH  18  19
HETATM   19  C   UNL     1     -10.673  12.462  66.074  1.00  0.00    -0.294 C  
BRANCH  19  20
HETATM   20  C   UNL     1     -11.977  13.117  66.453  1.00  0.00    -0.462 C  
HETATM   21  C   UNL     1     -12.160  14.198  67.227  1.00  0.00    -0.407 C  
BRANCH  21  22
HETATM   22  C   UNL     1     -11.085  14.984  67.913  1.00  0.00    -0.310 C  
BRANCH  22  23
HETATM   23  C   UNL     1     -10.889  14.565  69.370  1.00  0.00    -0.249 C  
BRANCH  23  24
HETATM   24  C   UNL     1     -12.247  14.243  69.996  1.00  0.00    -0.417 C  
HETATM   25  C   UNL     1     -12.334  14.662  71.442  1.00  0.00    -0.348 C  
HETATM   26  O   UNL     1     -11.445  15.199  72.079  1.00  0.00    -0.420 OA 
HETATM   27  O   UNL     1     -13.543  14.371  71.978  1.00  0.00    -0.355 OA 
ENDBRANCH  23  24
ENDBRANCH  22  23
ENDBRANCH  21  22
ENDBRANCH  19  20
ENDBRANCH  18  19
ENDBRANCH  10  11
ENDBRANCH   6   9
ENDBRANCH   5   6
ENDBRANCH   4   5
ENDBRANCH   3   4
ENDBRANCH   2   3
TORSDOF 11
ENDMDL
MODEL      121
REMARK 921   NORMALIZED FREE ENERGY PREDICTED BY IDOCK:   -4.86 KCAL/MOL
REMARK 922        TOTAL FREE ENERGY PREDICTED BY IDOCK:   -9.80 KCAL/MOL
REMARK 923 INTER-LIGAND FREE ENERGY PREDICTED BY IDOCK:   -7.84 KCAL/MOL
REMARK 924 INTRA-LIGAND FREE ENERGY PREDICTED BY IDOCK:   -1.96 KCAL/MOL
REMARK 927      BINDING AFFINITY PREDICTED BY RF-SCORE:    0.00 PKD
ROOT
HETATM    1  C   UNL     1     -12.185   8.423  72.200  1.00  0.00    -0.434 C  
HETATM    2  C   UNL     1     -13.256   9.498  72.188  1.00  0.00    -0.539 C  
ENDROOT
BRANCH   2   3
HETATM    3  C   UNL     1     -13.218  10.333  70.906  1.00  0.00    -0.351 C  
BRANCH   3   4
HETATM    4  C   UNL     1     -12.468  11.643  71.152  1.00  0.00    -0.412 C  
BRANCH   4   5
HETATM    5  C   UNL     1     -13.376  12.742  71.706  1.00  0.00    -0.436 C  
BRANCH   5   6
HETATM    6  C   UNL     1     -12.923  14.159  71.312  1.00  0.00    -0.356 C  
HETATM    7  O   UNL     1     -14.088  14.870  70.901  1.00  0.00    -0.629 OA 
HETATM    8  H   UNL     1     -13.809  15.745  70.658  1.00  0.00     0.000 HD 
BRANCH   6   9
HETATM    9  C   UNL     1     -11.877  14.165  70.216  1.00  0.00    -0.373 C  
HETATM   10  C   UNL     1     -11.930  14.844  69.057  1.00  0.00    -0.307 C  
BRANCH  10  11
HETATM   11  C   UNL     1     -10.955  14.677  67.908  1.00  0.00    -0.283 C  
HETATM   12  C   UNL     1     -11.732  14.623  66.575  1.00  0.00    -0.325 C  
HETATM   13  O   UNL     1     -12.308  13.344  66.347  1.00  0.00    -0.387 OA 
HETATM   14  C   UNL     1     -10.721  14.955  65.500  1.00  0.00    -0.369 C  
HETATM   15  H   UNL     1     -12.786  13.311  65.526  1.00  0.00     0.000 HD 
HETATM   16  C   UNL     1      -9.844  15.933  66.215  1.00  0.00    -0.302 C  
HETATM   17  O   UNL     1      -9.114  16.714  65.615  1.00  0.00    -0.477 OA 
HETATM   18  C   UNL     1      -9.937  15.829  67.731  1.00  0.00    -0.227 C  
BRANCH  18  19
HETATM   19  C   UNL     1      -8.579  15.467  68.353  1.00  0.00    -0.168 C  
BRANCH  19  20
HETATM   20  C   UNL     1      -7.760  14.501  67.536  1.00  0.00    -0.208 C  
HETATM   21  C   UNL     1      -7.695  13.167  67.661  1.00  0.00    -0.168 C  
BRANCH  21  22
HETATM   22  C   UNL     1      -8.421  12.340  68.677  1.00  0.00     0.007 C  
BRANCH  22  23
HETATM   23  C   UNL     1      -9.049  11.084  68.073  1.00  0.00    -0.152 C  
BRANCH  23  24
HETATM   24  C   UNL     1      -9.525  11.383  66.651  1.00  0.00    -0.206 C  
HETATM   25  C   UNL     1     -10.201  10.202  66.004  1.00  0.00    -0.218 C  
HETATM   26  O   UNL     1     -10.368   9.110  66.520  1.00  0.00    -0.263 OA 
HETATM   27  O   UNL     1     -10.617  10.486  64.747  1.00  0.00    -0.253 OA 
ENDBRANCH  23  24
ENDBRANCH  22  23
ENDBRANCH  21  22
ENDBRANCH  19  20
ENDBRANCH  18  19
ENDBRANCH  10  11
ENDBRANCH   6   9
ENDBRANCH   5   6
ENDBRANCH   4   5
ENDBRANCH   3   4
ENDBRANCH   2   3
TORSDOF 11
ENDMDL
MODEL      122
REMARK 921   NORMALIZED FREE ENERGY PREDICTED BY IDOCK:   -4.86 KCAL/MOL
REMARK 922        TOTAL FREE ENERGY PREDICTED BY IDOCK:   -9.80 KCAL/MOL
REMARK 923 INTER-LIGAND FREE ENERGY PREDICTED BY IDOCK:   -8.07 KCAL/MOL
REMARK 924 INTRA-LIGAND FREE ENERGY PREDICTED BY IDOCK:   -1.73 KCAL/MOL
REMARK 927      BINDING AFFINITY PREDICTED BY RF-SCORE:    0.00 PKD
ROOT
HETATM    1  C   UNL     1      -8.202  19.861  66.084  1.00  0.00    -0.346 C  
HETATM    2  C   UNL     1      -8.546  19.855  67.562  1.00  0.00    -0.393 C  
ENDROOT
BRANCH   2   3
HETATM    3  C   UNL     1      -9.203  18.542  67.994  1.00  0.00    -0.315 C  
BRANCH   3   4
HETATM    4  C   UNL     1     -10.338  18.179  67.034  1.00  0.00    -0.391 C  
BRANCH   4   5
HETATM    5  C   UNL     1     -10.528  16.668  66.896  1.00  0.00    -0.271 C  
BRANCH   5   6
HETATM    6  C   UNL     1     -10.061  16.118  65.537  1.00  0.00    -0.276 C  
HETATM    7  O   UNL     1     -11.092  16.404  64.595  1.00  0.00    -0.697 OA 
HETATM    8  H   UNL     1     -10.804  16.065  63.757  1.00  0.00     0.000 HD 
BRANCH   6   9
HETATM    9  C   UNL     1      -9.760  14.634  65.569  1.00  0.00    -0.247 C  
HETATM   10  C   UNL     1     -10.428  13.664  64.920  1.00  0.00    -0.426 C  
BRANCH  10  11
HETATM   11  C   UNL     1     -10.214  12.177  65.125  1.00  0.00    -0.308 C  
HETATM   12  C   UNL     1      -9.985  11.495  63.759  1.00  0.00    -0.349 C  
HETATM   13  O   UNL     1     -11.203  11.282  63.059  1.00  0.00    -0.838 OA 
HETATM   14  C   UNL     1      -9.308  10.178  64.069  1.00  0.00    -0.339 C  
HETATM   15  H   UNL     1     -11.061  10.862  62.219  1.00  0.00     0.000 HD 
HETATM   16  C   UNL     1      -8.480  10.548  65.259  1.00  0.00    -0.171 C  
HETATM   17  O   UNL     1      -7.516   9.881  65.615  1.00  0.00    -0.105 OA 
HETATM   18  C   UNL     1      -8.979  11.796  65.975  1.00  0.00    -0.108 C  
BRANCH  18  19
HETATM   19  C   UNL     1      -9.380  11.488  67.426  1.00  0.00    -0.168 C  
BRANCH  19  20
HETATM   20  C   UNL     1     -10.703  10.781  67.568  1.00  0.00    -0.312 C  
HETATM   21  C   UNL     1     -11.888  11.312  67.907  1.00  0.00    -0.209 C  
BRANCH  21  22
HETATM   22  C   UNL     1     -12.146  12.748  68.245  1.00  0.00    -0.152 C  
BRANCH  22  23
HETATM   23  C   UNL     1     -11.761  13.091  69.683  1.00  0.00    -0.364 C  
BRANCH  23  24
HETATM   24  C   UNL     1     -11.329  14.556  69.762  1.00  0.00    -0.305 C  
HETATM   25  C   UNL     1     -11.911  15.271  70.954  1.00  0.00    -0.342 C  
HETATM   26  O   UNL     1     -12.650  14.775  71.787  1.00  0.00    -0.308 OA 
HETATM   27  O   UNL     1     -11.516  16.566  71.008  1.00  0.00    -0.328 OA 
ENDBRANCH  23  24
ENDBRANCH  22  23
ENDBRANCH  21  22
ENDBRANCH  19  20
ENDBRANCH  18  19
ENDBRANCH  10  11
ENDBRANCH   6   9
ENDBRANCH   5   6
ENDBRANCH   4   5
ENDBRANCH   3   4
ENDBRANCH   2   3
TORSDOF 11
ENDMDL
MODEL      123
REMARK 921   NORMALIZED FREE ENERGY PREDICTED BY IDOCK:   -4.85 KCAL/MOL
REMARK 922        TOTAL FREE ENERGY PREDICTED BY IDOCK:   -9.79 KCAL/MOL
REMARK 923 INTER-LIGAND FREE ENERGY PREDICTED BY IDOCK:   -8.13 KCAL/MOL
REMARK 924 INTRA-LIGAND FREE ENERGY PREDICTED BY IDOCK:   -1.65 KCAL/MOL
REMARK 927      BINDING AFFINITY PREDICTED BY RF-SCORE:    0.00 PKD
ROOT
HETATM    1  C   UNL     1     -11.184   6.422  69.341  1.00  0.00    -0.459 C  
HETATM    2  C   UNL     1     -10.244   6.425  68.150  1.00  0.00    -0.196 C  
ENDROOT
BRANCH   2   3
HETATM    3  C   UNL     1     -10.675   7.430  67.079  1.00  0.00    -0.389 C  
BRANCH   3   4
HETATM    4  C   UNL     1     -10.562   8.857  67.619  1.00  0.00    -0.292 C  
BRANCH   4   5
HETATM    5  C   UNL     1      -9.902   9.809  66.621  1.00  0.00    -0.275 C  
BRANCH   5   6
HETATM    6  C   UNL     1     -10.745  11.064  66.331  1.00  0.00    -0.227 C  
HETATM    7  O   UNL     1     -10.747  11.247  64.918  1.00  0.00    -0.303 OA 
HETATM    8  H   UNL     1     -11.267  12.021  64.738  1.00  0.00     0.000 HD 
BRANCH   6   9
HETATM    9  C   UNL     1     -10.226  12.303  67.032  1.00  0.00    -0.230 C  
HETATM   10  C   UNL     1     -10.599  12.758  68.241  1.00  0.00    -0.251 C  
BRANCH  10  11
HETATM   11  C   UNL     1     -10.197  14.097  68.826  1.00  0.00    -0.216 C  
HETATM   12  C   UNL     1      -8.752  14.434  68.399  1.00  0.00    -0.180 C  
HETATM   13  O   UNL     1      -7.791  13.740  69.182  1.00  0.00    -0.331 OA 
HETATM   14  C   UNL     1      -8.611  15.930  68.581  1.00  0.00    -0.198 C  
HETATM   15  H   UNL     1      -6.901  13.948  68.920  1.00  0.00     0.000 HD 
HETATM   16  C   UNL     1      -9.990  16.397  68.235  1.00  0.00    -0.243 C  
HETATM   17  O   UNL     1     -10.224  17.556  67.913  1.00  0.00    -0.315 OA 
HETATM   18  C   UNL     1     -11.044  15.305  68.358  1.00  0.00    -0.289 C  
BRANCH  18  19
HETATM   19  C   UNL     1     -12.111  15.669  69.401  1.00  0.00    -0.287 C  
BRANCH  19  20
HETATM   20  C   UNL     1     -11.619  15.649  70.826  1.00  0.00    -0.412 C  
HETATM   21  C   UNL     1     -12.264  15.197  71.913  1.00  0.00    -0.431 C  
BRANCH  21  22
HETATM   22  C   UNL     1     -13.649  14.628  71.943  1.00  0.00    -0.483 C  
BRANCH  22  23
HETATM   23  C   UNL     1     -13.662  13.126  72.223  1.00  0.00    -0.647 C  
BRANCH  23  24
HETATM   24  C   UNL     1     -12.692  12.420  71.275  1.00  0.00    -0.347 C  
HETATM   25  C   UNL     1     -12.709  10.921  71.435  1.00  0.00    -0.434 C  
HETATM   26  O   UNL     1     -13.402  10.300  72.222  1.00  0.00    -0.407 OA 
HETATM   27  O   UNL     1     -11.846  10.314  70.586  1.00  0.00    -0.294 OA 
ENDBRANCH  23  24
ENDBRANCH  22  23
ENDBRANCH  21  22
ENDBRANCH  19  20
ENDBRANCH  18  19
ENDBRANCH  10  11
ENDBRANCH   6   9
ENDBRANCH   5   6
ENDBRANCH   4   5
ENDBRANCH   3   4
ENDBRANCH   2   3
TORSDOF 11
ENDMDL
MODEL      124
REMARK 921   NORMALIZED FREE ENERGY PREDICTED BY IDOCK:   -4.84 KCAL/MOL
REMARK 922        TOTAL FREE ENERGY PREDICTED BY IDOCK:   -9.78 KCAL/MOL
REMARK 923 INTER-LIGAND FREE ENERGY PREDICTED BY IDOCK:   -8.18 KCAL/MOL
REMARK 924 INTRA-LIGAND FREE ENERGY PREDICTED BY IDOCK:   -1.59 KCAL/MOL
REMARK 927      BINDING AFFINITY PREDICTED BY RF-SCORE:    0.00 PKD
ROOT
HETATM    1  C   UNL     1     -10.750   6.161  72.073  1.00  0.00    -0.276 C  
HETATM    2  C   UNL     1     -12.000   6.503  71.284  1.00  0.00    -0.364 C  
ENDROOT
BRANCH   2   3
HETATM    3  C   UNL     1     -11.680   6.881  69.837  1.00  0.00    -0.199 C  
BRANCH   3   4
HETATM    4  C   UNL     1     -10.574   7.938  69.800  1.00  0.00    -0.242 C  
BRANCH   4   5
HETATM    5  C   UNL     1      -9.345   7.472  69.018  1.00  0.00    -0.146 C  
BRANCH   5   6
HETATM    6  C   UNL     1      -9.430   7.781  67.513  1.00  0.00    -0.141 C  
HETATM    7  O   UNL     1      -8.155   7.480  66.953  1.00  0.00    -0.112 OA 
HETATM    8  H   UNL     1      -8.207   7.670  66.024  1.00  0.00     0.000 HD 
BRANCH   6   9
HETATM    9  C   UNL     1      -9.818   9.217  67.223  1.00  0.00    -0.236 C  
HETATM   10  C   UNL     1     -10.157   9.733  66.028  1.00  0.00    -0.322 C  
BRANCH  10  11
HETATM   11  C   UNL     1     -10.355  11.209  65.745  1.00  0.00    -0.316 C  
HETATM   12  C   UNL     1     -10.554  11.422  64.229  1.00  0.00    -0.355 C  
HETATM   13  O   UNL     1      -9.321  11.393  63.522  1.00  0.00    -0.382 OA 
HETATM   14  C   UNL     1     -11.219  12.774  64.091  1.00  0.00    -0.435 C  
HETATM   15  H   UNL     1      -9.444  11.524  62.588  1.00  0.00     0.000 HD 
HETATM   16  C   UNL     1     -12.070  12.807  65.320  1.00  0.00    -0.457 C  
HETATM   17  O   UNL     1     -13.032  13.560  65.426  1.00  0.00    -0.656 OA 
HETATM   18  C   UNL     1     -11.599  11.849  66.405  1.00  0.00    -0.315 C  
BRANCH  18  19
HETATM   19  C   UNL     1     -11.218  12.600  67.691  1.00  0.00    -0.329 C  
BRANCH  19  20
HETATM   20  C   UNL     1      -9.746  12.892  67.827  1.00  0.00    -0.214 C  
HETATM   21  C   UNL     1      -9.161  14.071  68.089  1.00  0.00    -0.196 C  
BRANCH  21  22
HETATM   22  C   UNL     1      -9.864  15.380  68.281  1.00  0.00    -0.213 C  
BRANCH  22  23
HETATM   23  C   UNL     1      -9.661  16.335  67.106  1.00  0.00    -0.240 C  
BRANCH  23  24
HETATM   24  C   UNL     1     -10.551  15.905  65.939  1.00  0.00    -0.348 C  
HETATM   25  C   UNL     1     -10.961  17.061  65.063  1.00  0.00     0.017 C  
HETATM   26  O   UNL     1     -10.643  18.226  65.232  1.00  0.00    -0.562 OA 
HETATM   27  O   UNL     1     -11.746  16.661  64.034  1.00  0.00    -1.143 OA 
ENDBRANCH  23  24
ENDBRANCH  22  23
ENDBRANCH  21  22
ENDBRANCH  19  20
ENDBRANCH  18  19
ENDBRANCH  10  11
ENDBRANCH   6   9
ENDBRANCH   5   6
ENDBRANCH   4   5
ENDBRANCH   3   4
ENDBRANCH   2   3
TORSDOF 11
ENDMDL
MODEL      125
REMARK 921   NORMALIZED FREE ENERGY PREDICTED BY IDOCK:   -4.83 KCAL/MOL
REMARK 922        TOTAL FREE ENERGY PREDICTED BY IDOCK:   -9.75 KCAL/MOL
REMARK 923 INTER-LIGAND FREE ENERGY PREDICTED BY IDOCK:   -8.30 KCAL/MOL
REMARK 924 INTRA-LIGAND FREE ENERGY PREDICTED BY IDOCK:   -1.45 KCAL/MOL
REMARK 927      BINDING AFFINITY PREDICTED BY RF-SCORE:    0.00 PKD
ROOT
HETATM    1  C   UNL     1     -12.822   7.598  71.720  1.00  0.00    -0.357 C  
HETATM    2  C   UNL     1     -11.577   7.732  72.577  1.00  0.00    -0.422 C  
ENDROOT
BRANCH   2   3
HETATM    3  C   UNL     1     -10.570   8.716  71.979  1.00  0.00    -0.421 C  
BRANCH   3   4
HETATM    4  C   UNL     1     -11.240   9.562  70.894  1.00  0.00    -0.411 C  
BRANCH   4   5
HETATM    5  C   UNL     1     -10.331   9.791  69.686  1.00  0.00    -0.259 C  
BRANCH   5   6
HETATM    6  C   UNL     1     -11.097   9.855  68.353  1.00  0.00    -0.139 C  
HETATM    7  O   UNL     1     -10.276   9.231  67.370  1.00  0.00    -0.209 OA 
HETATM    8  H   UNL     1     -10.749   9.270  66.547  1.00  0.00     0.000 HD 
BRANCH   6   9
HETATM    9  C   UNL     1     -11.450  11.269  67.939  1.00  0.00    -0.360 C  
HETATM   10  C   UNL     1     -10.590  12.277  67.705  1.00  0.00    -0.238 C  
BRANCH  10  11
HETATM   11  C   UNL     1     -10.987  13.721  67.476  1.00  0.00    -0.285 C  
HETATM   12  C   UNL     1      -9.993  14.651  68.205  1.00  0.00    -0.224 C  
HETATM   13  O   UNL     1     -10.266  14.737  69.597  1.00  0.00    -0.397 OA 
HETATM   14  C   UNL     1     -10.143  16.005  67.546  1.00  0.00    -0.247 C  
HETATM   15  H   UNL     1      -9.654  15.309  70.044  1.00  0.00     0.000 HD 
HETATM   16  C   UNL     1     -10.437  15.611  66.133  1.00  0.00    -0.317 C  
HETATM   17  O   UNL     1     -10.283  16.385  65.195  1.00  0.00    -0.582 OA 
HETATM   18  C   UNL     1     -10.966  14.189  66.002  1.00  0.00    -0.304 C  
BRANCH  18  19
HETATM   19  C   UNL     1     -12.377  14.169  65.395  1.00  0.00    -0.475 C  
BRANCH  19  20
HETATM   20  C   UNL     1     -12.749  12.868  64.731  1.00  0.00    -0.442 C  
HETATM   21  C   UNL     1     -11.982  12.096  63.945  1.00  0.00    -0.581 C  
BRANCH  21  22
HETATM   22  C   UNL     1     -10.571  12.385  63.532  1.00  0.00    -0.451 C  
BRANCH  22  23
HETATM   23  C   UNL     1      -9.811  11.127  63.116  1.00  0.00    -0.403 C  
BRANCH  23  24
HETATM   24  C   UNL     1      -9.221  10.453  64.356  1.00  0.00    -0.291 C  
HETATM   25  C   UNL     1      -8.527   9.153  64.036  1.00  0.00    -0.184 C  
HETATM   26  O   UNL     1      -8.427   8.657  62.927  1.00  0.00    -0.188 OA 
HETATM   27  O   UNL     1      -8.009   8.572  65.145  1.00  0.00    -0.114 OA 
ENDBRANCH  23  24
ENDBRANCH  22  23
ENDBRANCH  21  22
ENDBRANCH  19  20
ENDBRANCH  18  19
ENDBRANCH  10  11
ENDBRANCH   6   9
ENDBRANCH   5   6
ENDBRANCH   4   5
ENDBRANCH   3   4
ENDBRANCH   2   3
TORSDOF 11
ENDMDL
MODEL      126
REMARK 921   NORMALIZED FREE ENERGY PREDICTED BY IDOCK:   -4.83 KCAL/MOL
REMARK 922        TOTAL FREE ENERGY PREDICTED BY IDOCK:   -9.74 KCAL/MOL
REMARK 923 INTER-LIGAND FREE ENERGY PREDICTED BY IDOCK:   -8.23 KCAL/MOL
REMARK 924 INTRA-LIGAND FREE ENERGY PREDICTED BY IDOCK:   -1.51 KCAL/MOL
REMARK 927      BINDING AFFINITY PREDICTED BY RF-SCORE:    0.00 PKD
ROOT
HETATM    1  C   UNL     1      -9.689   9.679  65.358  1.00  0.00    -0.365 C  
HETATM    2  C   UNL     1      -9.765   8.705  66.518  1.00  0.00    -0.325 C  
ENDROOT
BRANCH   2   3
HETATM    3  C   UNL     1     -10.699   9.199  67.624  1.00  0.00    -0.257 C  
BRANCH   3   4
HETATM    4  C   UNL     1     -10.575   8.305  68.858  1.00  0.00    -0.160 C  
BRANCH   4   5
HETATM    5  C   UNL     1     -10.409   9.108  70.149  1.00  0.00    -0.244 C  
BRANCH   5   6
HETATM    6  C   UNL     1     -11.737   9.360  70.883  1.00  0.00    -0.308 C  
HETATM    7  O   UNL     1     -12.603   8.274  70.564  1.00  0.00    -0.365 OA 
HETATM    8  H   UNL     1     -13.423   8.430  71.017  1.00  0.00     0.000 HD 
BRANCH   6   9
HETATM    9  C   UNL     1     -12.377  10.683  70.514  1.00  0.00    -0.448 C  
HETATM   10  C   UNL     1     -11.764  11.749  69.970  1.00  0.00    -0.386 C  
BRANCH  10  11
HETATM   11  C   UNL     1     -12.395  13.115  69.789  1.00  0.00    -0.164 C  
HETATM   12  C   UNL     1     -12.474  13.832  71.155  1.00  0.00    -0.370 C  
HETATM   13  O   UNL     1     -13.566  13.368  71.937  1.00  0.00    -0.413 OA 
HETATM   14  C   UNL     1     -12.631  15.302  70.835  1.00  0.00    -0.471 C  
HETATM   15  H   UNL     1     -13.614  13.809  72.777  1.00  0.00     0.000 HD 
HETATM   16  C   UNL     1     -11.818  15.418  69.585  1.00  0.00    -0.347 C  
HETATM   17  O   UNL     1     -11.389  16.494  69.184  1.00  0.00    -0.268 OA 
HETATM   18  C   UNL     1     -11.618  14.088  68.871  1.00  0.00    -0.351 C  
BRANCH  18  19
HETATM   19  C   UNL     1     -12.219  14.113  67.457  1.00  0.00    -0.258 C  
BRANCH  19  20
HETATM   20  C   UNL     1     -11.418  13.358  66.428  1.00  0.00    -0.359 C  
HETATM   21  C   UNL     1     -10.499  13.846  65.579  1.00  0.00    -0.333 C  
BRANCH  21  22
HETATM   22  C   UNL     1     -10.085  15.280  65.458  1.00  0.00    -0.408 C  
BRANCH  22  23
HETATM   23  C   UNL     1      -8.790  15.584  66.208  1.00  0.00    -0.338 C  
BRANCH  23  24
HETATM   24  C   UNL     1      -8.975  16.842  67.059  1.00  0.00    -0.224 C  
HETATM   25  C   UNL     1      -8.270  18.043  66.482  1.00  0.00    -0.271 C  
HETATM   26  O   UNL     1      -7.613  18.054  65.455  1.00  0.00    -0.530 OA 
HETATM   27  O   UNL     1      -8.447  19.146  67.247  1.00  0.00    -0.272 OA 
ENDBRANCH  23  24
ENDBRANCH  22  23
ENDBRANCH  21  22
ENDBRANCH  19  20
ENDBRANCH  18  19
ENDBRANCH  10  11
ENDBRANCH   6   9
ENDBRANCH   5   6
ENDBRANCH   4   5
ENDBRANCH   3   4
ENDBRANCH   2   3
TORSDOF 11
ENDMDL
MODEL      127
REMARK 921   NORMALIZED FREE ENERGY PREDICTED BY IDOCK:   -4.81 KCAL/MOL
REMARK 922        TOTAL FREE ENERGY PREDICTED BY IDOCK:   -9.72 KCAL/MOL
REMARK 923 INTER-LIGAND FREE ENERGY PREDICTED BY IDOCK:   -8.06 KCAL/MOL
REMARK 924 INTRA-LIGAND FREE ENERGY PREDICTED BY IDOCK:   -1.66 KCAL/MOL
REMARK 927      BINDING AFFINITY PREDICTED BY RF-SCORE:    0.00 PKD
ROOT
HETATM    1  C   UNL     1      -9.579   7.024  74.146  1.00  0.00    -0.298 C  
HETATM    2  C   UNL     1     -10.882   7.215  73.391  1.00  0.00    -0.360 C  
ENDROOT
BRANCH   2   3
HETATM    3  C   UNL     1     -11.189   6.035  72.467  1.00  0.00    -0.333 C  
BRANCH   3   4
HETATM    4  C   UNL     1     -10.854   6.398  71.019  1.00  0.00    -0.314 C  
BRANCH   4   5
HETATM    5  C   UNL     1      -9.470   5.904  70.597  1.00  0.00    -0.199 C  
BRANCH   5   6
HETATM    6  C   UNL     1      -8.521   7.041  70.177  1.00  0.00    -0.139 C  
HETATM    7  O   UNL     1      -8.013   7.623  71.374  1.00  0.00    -0.091 OA 
HETATM    8  H   UNL     1      -7.427   8.325  71.115  1.00  0.00     0.000 HD 
BRANCH   6   9
HETATM    9  C   UNL     1      -9.196   8.088  69.315  1.00  0.00    -0.152 C  
HETATM   10  C   UNL     1      -9.262   9.409  69.558  1.00  0.00    -0.182 C  
BRANCH  10  11
HETATM   11  C   UNL     1     -10.103  10.395  68.773  1.00  0.00    -0.198 C  
HETATM   12  C   UNL     1     -11.238  10.935  69.671  1.00  0.00    -0.282 C  
HETATM   13  O   UNL     1     -12.315  10.014  69.778  1.00  0.00    -0.488 OA 
HETATM   14  C   UNL     1     -11.696  12.222  69.019  1.00  0.00    -0.376 C  
HETATM   15  H   UNL     1     -13.013  10.347  70.330  1.00  0.00     0.000 HD 
HETATM   16  C   UNL     1     -10.411  12.737  68.454  1.00  0.00    -0.243 C  
HETATM   17  O   UNL     1     -10.258  13.915  68.150  1.00  0.00    -0.235 OA 
HETATM   18  C   UNL     1      -9.355  11.654  68.274  1.00  0.00    -0.191 C  
BRANCH  18  19
HETATM   19  C   UNL     1      -8.948  11.507  66.800  1.00  0.00    -0.181 C  
BRANCH  19  20
HETATM   20  C   UNL     1      -9.854  10.614  65.991  1.00  0.00    -0.280 C  
HETATM   21  C   UNL     1     -10.655  10.960  64.971  1.00  0.00    -0.287 C  
BRANCH  21  22
HETATM   22  C   UNL     1     -10.840  12.343  64.426  1.00  0.00    -0.375 C  
BRANCH  22  23
HETATM   23  C   UNL     1     -11.970  13.103  65.121  1.00  0.00    -0.431 C  
BRANCH  23  24
HETATM   24  C   UNL     1     -12.281  14.381  64.341  1.00  0.00    -0.481 C  
HETATM   25  C   UNL     1     -11.267  15.470  64.581  1.00  0.00    -0.371 C  
HETATM   26  O   UNL     1     -10.293  15.384  65.309  1.00  0.00    -0.367 OA 
HETATM   27  O   UNL     1     -11.557  16.592  63.881  1.00  0.00    -1.204 OA 
ENDBRANCH  23  24
ENDBRANCH  22  23
ENDBRANCH  21  22
ENDBRANCH  19  20
ENDBRANCH  18  19
ENDBRANCH  10  11
ENDBRANCH   6   9
ENDBRANCH   5   6
ENDBRANCH   4   5
ENDBRANCH   3   4
ENDBRANCH   2   3
TORSDOF 11
ENDMDL
MODEL      128
REMARK 921   NORMALIZED FREE ENERGY PREDICTED BY IDOCK:   -4.81 KCAL/MOL
REMARK 922        TOTAL FREE ENERGY PREDICTED BY IDOCK:   -9.72 KCAL/MOL
REMARK 923 INTER-LIGAND FREE ENERGY PREDICTED BY IDOCK:   -8.64 KCAL/MOL
REMARK 924 INTRA-LIGAND FREE ENERGY PREDICTED BY IDOCK:   -1.08 KCAL/MOL
REMARK 927      BINDING AFFINITY PREDICTED BY RF-SCORE:    0.00 PKD
ROOT
HETATM    1  C   UNL     1      -7.071  21.021  67.165  1.00  0.00    -0.383 C  
HETATM    2  C   UNL     1      -7.905  19.763  67.003  1.00  0.00    -0.316 C  
ENDROOT
BRANCH   2   3
HETATM    3  C   UNL     1      -7.783  18.833  68.211  1.00  0.00    -0.326 C  
BRANCH   3   4
HETATM    4  C   UNL     1      -8.607  17.564  67.984  1.00  0.00    -0.250 C  
BRANCH   4   5
HETATM    5  C   UNL     1      -9.106  17.439  66.544  1.00  0.00    -0.288 C  
BRANCH   5   6
HETATM    6  C   UNL     1     -10.580  17.006  66.448  1.00  0.00    -0.172 C  
HETATM    7  O   UNL     1     -11.103  17.009  67.773  1.00  0.00    -0.263 OA 
HETATM    8  H   UNL     1     -12.013  16.742  67.713  1.00  0.00     0.000 HD 
BRANCH   6   9
HETATM    9  C   UNL     1     -10.757  15.646  65.804  1.00  0.00    -0.350 C  
HETATM   10  C   UNL     1     -11.802  14.813  65.960  1.00  0.00    -0.201 C  
BRANCH  10  11
HETATM   11  C   UNL     1     -11.857  13.386  65.451  1.00  0.00    -0.381 C  
HETATM   12  C   UNL     1     -11.474  13.356  63.955  1.00  0.00    -0.309 C  
HETATM   13  O   UNL     1     -12.553  13.755  63.122  1.00  0.00    -1.024 OA 
HETATM   14  C   UNL     1     -11.074  11.926  63.665  1.00  0.00    -0.517 C  
HETATM   15  H   UNL     1     -12.318  13.736  62.201  1.00  0.00     0.000 HD 
HETATM   16  C   UNL     1     -10.444  11.530  64.963  1.00  0.00    -0.290 C  
HETATM   17  O   UNL     1      -9.677  10.578  65.051  1.00  0.00    -0.242 OA 
HETATM   18  C   UNL     1     -10.878  12.401  66.134  1.00  0.00    -0.308 C  
BRANCH  18  19
HETATM   19  C   UNL     1     -11.591  11.573  67.214  1.00  0.00    -0.280 C  
BRANCH  19  20
HETATM   20  C   UNL     1     -11.309  12.020  68.626  1.00  0.00    -0.329 C  
HETATM   21  C   UNL     1     -10.836  11.284  69.644  1.00  0.00    -0.155 C  
BRANCH  21  22
HETATM   22  C   UNL     1     -10.506   9.824  69.596  1.00  0.00    -0.263 C  
BRANCH  22  23
HETATM   23  C   UNL     1     -10.710   9.131  70.942  1.00  0.00    -0.343 C  
BRANCH  23  24
HETATM   24  C   UNL     1     -12.023   9.603  71.567  1.00  0.00    -0.485 C  
HETATM   25  C   UNL     1     -12.922   8.460  71.965  1.00  0.00    -0.358 C  
HETATM   26  O   UNL     1     -12.670   7.276  71.821  1.00  0.00    -0.332 OA 
HETATM   27  O   UNL     1     -14.079   8.897  72.518  1.00  0.00    -0.472 OA 
ENDBRANCH  23  24
ENDBRANCH  22  23
ENDBRANCH  21  22
ENDBRANCH  19  20
ENDBRANCH  18  19
ENDBRANCH  10  11
ENDBRANCH   6   9
ENDBRANCH   5   6
ENDBRANCH   4   5
ENDBRANCH   3   4
ENDBRANCH   2   3
TORSDOF 11
ENDMDL
MODEL      129
REMARK 921   NORMALIZED FREE ENERGY PREDICTED BY IDOCK:   -4.81 KCAL/MOL
REMARK 922        TOTAL FREE ENERGY PREDICTED BY IDOCK:   -9.71 KCAL/MOL
REMARK 923 INTER-LIGAND FREE ENERGY PREDICTED BY IDOCK:   -7.98 KCAL/MOL
REMARK 924 INTRA-LIGAND FREE ENERGY PREDICTED BY IDOCK:   -1.73 KCAL/MOL
REMARK 927      BINDING AFFINITY PREDICTED BY RF-SCORE:    0.00 PKD
ROOT
HETATM    1  C   UNL     1     -11.900  13.742  69.232  1.00  0.00    -0.392 C  
HETATM    2  C   UNL     1     -11.844  14.642  68.012  1.00  0.00    -0.343 C  
ENDROOT
BRANCH   2   3
HETATM    3  C   UNL     1     -11.384  13.890  66.762  1.00  0.00    -0.347 C  
BRANCH   3   4
HETATM    4  C   UNL     1     -12.543  13.750  65.774  1.00  0.00    -0.525 C  
BRANCH   4   5
HETATM    5  C   UNL     1     -12.137  14.099  64.341  1.00  0.00    -0.486 C  
BRANCH   5   6
HETATM    6  C   UNL     1     -11.950  12.863  63.444  1.00  0.00    -0.537 C  
HETATM    7  O   UNL     1     -13.151  12.100  63.530  1.00  0.00    -0.785 OA 
HETATM    8  H   UNL     1     -13.036  11.338  62.976  1.00  0.00     0.000 HD 
BRANCH   6   9
HETATM    9  C   UNL     1     -10.752  12.022  63.835  1.00  0.00    -0.450 C  
HETATM   10  C   UNL     1     -10.772  10.851  64.495  1.00  0.00    -0.258 C  
BRANCH  10  11
HETATM   11  C   UNL     1      -9.548  10.136  65.031  1.00  0.00    -0.362 C  
HETATM   12  C   UNL     1      -8.528   9.930  63.889  1.00  0.00    -0.181 C  
HETATM   13  O   UNL     1      -8.876   8.832  63.057  1.00  0.00    -0.431 OA 
HETATM   14  C   UNL     1      -7.198   9.688  64.568  1.00  0.00    -0.121 C  
HETATM   15  H   UNL     1      -8.248   8.706  62.355  1.00  0.00     0.000 HD 
HETATM   16  C   UNL     1      -7.325  10.560  65.778  1.00  0.00    -0.137 C  
HETATM   17  O   UNL     1      -6.347  10.934  66.416  1.00  0.00    -0.109 OA 
HETATM   18  C   UNL     1      -8.767  10.893  66.132  1.00  0.00    -0.189 C  
BRANCH  18  19
HETATM   19  C   UNL     1      -9.137  10.371  67.529  1.00  0.00    -0.142 C  
BRANCH  19  20
HETATM   20  C   UNL     1     -10.607  10.446  67.852  1.00  0.00    -0.273 C  
HETATM   21  C   UNL     1     -11.200  10.258  69.041  1.00  0.00    -0.260 C  
BRANCH  21  22
HETATM   22  C   UNL     1     -10.511   9.902  70.323  1.00  0.00    -0.348 C  
BRANCH  22  23
HETATM   23  C   UNL     1     -11.358   8.995  71.214  1.00  0.00    -0.389 C  
BRANCH  23  24
HETATM   24  C   UNL     1     -11.429   7.596  70.599  1.00  0.00    -0.276 C  
HETATM   25  C   UNL     1     -10.554   6.601  71.316  1.00  0.00    -0.223 C  
HETATM   26  O   UNL     1      -9.850   6.842  72.282  1.00  0.00    -0.157 OA 
HETATM   27  O   UNL     1     -10.632   5.368  70.760  1.00  0.00    -0.256 OA 
ENDBRANCH  23  24
ENDBRANCH  22  23
ENDBRANCH  21  22
ENDBRANCH  19  20
ENDBRANCH  18  19
ENDBRANCH  10  11
ENDBRANCH   6   9
ENDBRANCH   5   6
ENDBRANCH   4   5
ENDBRANCH   3   4
ENDBRANCH   2   3
TORSDOF 11
ENDMDL
MODEL      130
REMARK 921   NORMALIZED FREE ENERGY PREDICTED BY IDOCK:   -4.80 KCAL/MOL
REMARK 922        TOTAL FREE ENERGY PREDICTED BY IDOCK:   -9.71 KCAL/MOL
REMARK 923 INTER-LIGAND FREE ENERGY PREDICTED BY IDOCK:   -8.26 KCAL/MOL
REMARK 924 INTRA-LIGAND FREE ENERGY PREDICTED BY IDOCK:   -1.45 KCAL/MOL
REMARK 927      BINDING AFFINITY PREDICTED BY RF-SCORE:    0.00 PKD
ROOT
HETATM    1  C   UNL     1      -8.717   9.762  64.085  1.00  0.00    -0.233 C  
HETATM    2  C   UNL     1      -9.482  10.597  63.074  1.00  0.00    -0.363 C  
ENDROOT
BRANCH   2   3
HETATM    3  C   UNL     1     -10.618  11.388  63.724  1.00  0.00    -0.464 C  
BRANCH   3   4
HETATM    4  C   UNL     1     -10.101  12.144  64.949  1.00  0.00    -0.280 C  
BRANCH   4   5
HETATM    5  C   UNL     1     -10.741  11.657  66.250  1.00  0.00    -0.317 C  
BRANCH   5   6
HETATM    6  C   UNL     1     -11.810  12.619  66.798  1.00  0.00    -0.370 C  
HETATM    7  O   UNL     1     -11.767  13.793  65.992  1.00  0.00    -0.335 OA 
HETATM    8  H   UNL     1     -12.427  14.386  66.329  1.00  0.00     0.000 HD 
BRANCH   6   9
HETATM    9  C   UNL     1     -11.605  12.964  68.259  1.00  0.00    -0.374 C  
HETATM   10  C   UNL     1     -12.238  13.925  68.955  1.00  0.00    -0.257 C  
BRANCH  10  11
HETATM   11  C   UNL     1     -11.873  14.363  70.359  1.00  0.00    -0.381 C  
HETATM   12  C   UNL     1     -11.621  15.886  70.376  1.00  0.00    -0.371 C  
HETATM   13  O   UNL     1     -10.333  16.219  69.877  1.00  0.00    -0.244 OA 
HETATM   14  C   UNL     1     -11.759  16.306  71.824  1.00  0.00    -0.504 C  
HETATM   15  H   UNL     1     -10.179  17.156  69.888  1.00  0.00     0.000 HD 
HETATM   16  C   UNL     1     -12.822  15.368  72.300  1.00  0.00    -0.380 C  
HETATM   17  O   UNL     1     -13.484  15.590  73.308  1.00  0.00    -0.498 OA 
HETATM   18  C   UNL     1     -12.962  14.125  71.431  1.00  0.00    -0.422 C  
BRANCH  18  19
HETATM   19  C   UNL     1     -12.679  12.845  72.234  1.00  0.00    -0.022 C  
BRANCH  19  20
HETATM   20  C   UNL     1     -13.344  11.609  71.686  1.00  0.00    -0.254 C  
HETATM   21  C   UNL     1     -12.766  10.570  71.062  1.00  0.00    -0.504 C  
BRANCH  21  22
HETATM   22  C   UNL     1     -11.308  10.430  70.751  1.00  0.00    -0.370 C  
BRANCH  22  23
HETATM   23  C   UNL     1     -10.828   8.981  70.821  1.00  0.00    -0.310 C  
BRANCH  23  24
HETATM   24  C   UNL     1     -10.527   8.473  69.411  1.00  0.00    -0.223 C  
HETATM   25  C   UNL     1     -10.917   7.030  69.216  1.00  0.00    -0.178 C  
HETATM   26  O   UNL     1     -11.418   6.311  70.063  1.00  0.00    -0.412 OA 
HETATM   27  O   UNL     1     -10.645   6.599  67.961  1.00  0.00    -0.196 OA 
ENDBRANCH  23  24
ENDBRANCH  22  23
ENDBRANCH  21  22
ENDBRANCH  19  20
ENDBRANCH  18  19
ENDBRANCH  10  11
ENDBRANCH   6   9
ENDBRANCH   5   6
ENDBRANCH   4   5
ENDBRANCH   3   4
ENDBRANCH   2   3
TORSDOF 11
ENDMDL
MODEL      131
REMARK 921   NORMALIZED FREE ENERGY PREDICTED BY IDOCK:   -4.78 KCAL/MOL
REMARK 922        TOTAL FREE ENERGY PREDICTED BY IDOCK:   -9.68 KCAL/MOL
REMARK 923 INTER-LIGAND FREE ENERGY PREDICTED BY IDOCK:   -7.88 KCAL/MOL
REMARK 924 INTRA-LIGAND FREE ENERGY PREDICTED BY IDOCK:   -1.79 KCAL/MOL
REMARK 927      BINDING AFFINITY PREDICTED BY RF-SCORE:    0.00 PKD
ROOT
HETATM    1  C   UNL     1     -10.205  16.562  66.437  1.00  0.00    -0.324 C  
HETATM    2  C   UNL     1      -9.946  17.553  67.556  1.00  0.00    -0.315 C  
ENDROOT
BRANCH   2   3
HETATM    3  C   UNL     1     -10.454  17.042  68.906  1.00  0.00    -0.347 C  
BRANCH   3   4
HETATM    4  C   UNL     1     -11.419  15.874  68.698  1.00  0.00    -0.391 C  
BRANCH   4   5
HETATM    5  C   UNL     1     -10.950  14.595  69.394  1.00  0.00    -0.279 C  
BRANCH   5   6
HETATM    6  C   UNL     1     -11.996  13.467  69.363  1.00  0.00    -0.330 C  
HETATM    7  O   UNL     1     -11.865  12.743  70.583  1.00  0.00    -0.518 OA 
HETATM    8  H   UNL     1     -12.510  12.047  70.564  1.00  0.00     0.000 HD 
BRANCH   6   9
HETATM    9  C   UNL     1     -11.839  12.545  68.171  1.00  0.00    -0.371 C  
HETATM   10  C   UNL     1     -11.238  12.835  67.003  1.00  0.00    -0.336 C  
BRANCH  10  11
HETATM   11  C   UNL     1     -11.266  11.953  65.771  1.00  0.00    -0.365 C  
HETATM   12  C   UNL     1     -11.972  12.699  64.618  1.00  0.00    -0.402 C  
HETATM   13  O   UNL     1     -13.387  12.660  64.747  1.00  0.00    -0.787 OA 
HETATM   14  C   UNL     1     -11.531  12.001  63.350  1.00  0.00    -0.489 C  
HETATM   15  H   UNL     1     -13.821  13.119  64.038  1.00  0.00     0.000 HD 
HETATM   16  C   UNL     1     -10.131  11.611  63.704  1.00  0.00    -0.402 C  
HETATM   17  O   UNL     1      -9.295  11.337  62.850  1.00  0.00    -0.333 OA 
HETATM   18  C   UNL     1      -9.880  11.563  65.205  1.00  0.00    -0.294 C  
BRANCH  18  19
HETATM   19  C   UNL     1      -9.473  10.153  65.661  1.00  0.00    -0.275 C  
BRANCH  19  20
HETATM   20  C   UNL     1      -8.368  10.126  66.686  1.00  0.00    -0.123 C  
HETATM   21  C   UNL     1      -8.452   9.774  67.978  1.00  0.00    -0.118 C  
BRANCH  21  22
HETATM   22  C   UNL     1      -9.695   9.348  68.696  1.00  0.00    -0.160 C  
BRANCH  22  23
HETATM   23  C   UNL     1      -9.728   7.846  68.975  1.00  0.00    -0.162 C  
BRANCH  23  24
HETATM   24  C   UNL     1     -10.655   7.159  67.971  1.00  0.00    -0.251 C  
HETATM   25  C   UNL     1      -9.947   6.118  67.143  1.00  0.00    -0.154 C  
HETATM   26  O   UNL     1      -8.767   5.825  67.230  1.00  0.00    -0.110 OA 
HETATM   27  O   UNL     1     -10.784   5.519  66.262  1.00  0.00    -0.245 OA 
ENDBRANCH  23  24
ENDBRANCH  22  23
ENDBRANCH  21  22
ENDBRANCH  19  20
ENDBRANCH  18  19
ENDBRANCH  10  11
ENDBRANCH   6   9
ENDBRANCH   5   6
ENDBRANCH   4   5
ENDBRANCH   3   4
ENDBRANCH   2   3
TORSDOF 11
ENDMDL
MODEL      132
REMARK 921   NORMALIZED FREE ENERGY PREDICTED BY IDOCK:   -4.78 KCAL/MOL
REMARK 922        TOTAL FREE ENERGY PREDICTED BY IDOCK:   -9.67 KCAL/MOL
REMARK 923 INTER-LIGAND FREE ENERGY PREDICTED BY IDOCK:   -8.01 KCAL/MOL
REMARK 924 INTRA-LIGAND FREE ENERGY PREDICTED BY IDOCK:   -1.66 KCAL/MOL
REMARK 927      BINDING AFFINITY PREDICTED BY RF-SCORE:    0.00 PKD
ROOT
HETATM    1  C   UNL     1     -11.326   6.207  70.923  1.00  0.00    -0.355 C  
HETATM    2  C   UNL     1     -10.291   6.283  69.816  1.00  0.00    -0.260 C  
ENDROOT
BRANCH   2   3
HETATM    3  C   UNL     1     -10.329   7.626  69.085  1.00  0.00    -0.217 C  
BRANCH   3   4
HETATM    4  C   UNL     1      -8.944   8.276  69.104  1.00  0.00    -0.147 C  
BRANCH   4   5
HETATM    5  C   UNL     1      -8.984   9.724  69.593  1.00  0.00    -0.229 C  
BRANCH   5   6
HETATM    6  C   UNL     1      -7.976  10.637  68.872  1.00  0.00    -0.132 C  
HETATM    7  O   UNL     1      -7.375  11.462  69.866  1.00  0.00    -0.335 OA 
HETATM    8  H   UNL     1      -6.753  12.025  69.421  1.00  0.00     0.000 HD 
BRANCH   6   9
HETATM    9  C   UNL     1      -8.612  11.481  67.786  1.00  0.00    -0.138 C  
HETATM   10  C   UNL     1      -9.733  11.198  67.100  1.00  0.00    -0.199 C  
BRANCH  10  11
HETATM   11  C   UNL     1     -10.233  11.971  65.896  1.00  0.00    -0.263 C  
HETATM   12  C   UNL     1     -10.006  11.137  64.617  1.00  0.00    -0.292 C  
HETATM   13  O   UNL     1      -8.658  11.203  64.171  1.00  0.00    -0.375 OA 
HETATM   14  C   UNL     1     -10.942  11.719  63.579  1.00  0.00    -0.499 C  
HETATM   15  H   UNL     1      -8.519  10.690  63.383  1.00  0.00     0.000 HD 
HETATM   16  C   UNL     1     -12.105  12.122  64.429  1.00  0.00    -0.357 C  
HETATM   17  O   UNL     1     -13.220  12.313  63.959  1.00  0.00    -0.757 OA 
HETATM   18  C   UNL     1     -11.746  12.296  65.899  1.00  0.00    -0.451 C  
BRANCH  18  19
HETATM   19  C   UNL     1     -12.002  13.735  66.373  1.00  0.00    -0.473 C  
BRANCH  19  20
HETATM   20  C   UNL     1     -11.965  13.912  67.869  1.00  0.00    -0.393 C  
HETATM   21  C   UNL     1     -11.380  14.898  68.567  1.00  0.00    -0.314 C  
BRANCH  21  22
HETATM   22  C   UNL     1     -10.603  16.042  67.994  1.00  0.00    -0.295 C  
BRANCH  22  23
HETATM   23  C   UNL     1      -9.159  15.667  67.666  1.00  0.00    -0.193 C  
BRANCH  23  24
HETATM   24  C   UNL     1      -8.748  16.321  66.346  1.00  0.00    -0.354 C  
HETATM   25  C   UNL     1      -7.871  17.531  66.545  1.00  0.00    -0.276 C  
HETATM   26  O   UNL     1      -7.508  17.974  67.621  1.00  0.00    -0.208 OA 
HETATM   27  O   UNL     1      -7.515  18.095  65.367  1.00  0.00    -0.499 OA 
ENDBRANCH  23  24
ENDBRANCH  22  23
ENDBRANCH  21  22
ENDBRANCH  19  20
ENDBRANCH  18  19
ENDBRANCH  10  11
ENDBRANCH   6   9
ENDBRANCH   5   6
ENDBRANCH   4   5
ENDBRANCH   3   4
ENDBRANCH   2   3
TORSDOF 11
ENDMDL
MODEL      133
REMARK 921   NORMALIZED FREE ENERGY PREDICTED BY IDOCK:   -4.77 KCAL/MOL
REMARK 922        TOTAL FREE ENERGY PREDICTED BY IDOCK:   -9.66 KCAL/MOL
REMARK 923 INTER-LIGAND FREE ENERGY PREDICTED BY IDOCK:   -7.98 KCAL/MOL
REMARK 924 INTRA-LIGAND FREE ENERGY PREDICTED BY IDOCK:   -1.69 KCAL/MOL
REMARK 927      BINDING AFFINITY PREDICTED BY RF-SCORE:    0.00 PKD
ROOT
HETATM    1  C   UNL     1      -8.708  18.080  68.205  1.00  0.00    -0.277 C  
HETATM    2  C   UNL     1     -10.176  17.803  67.935  1.00  0.00    -0.362 C  
ENDROOT
BRANCH   2   3
HETATM    3  C   UNL     1     -10.372  16.789  66.807  1.00  0.00    -0.293 C  
BRANCH   3   4
HETATM    4  C   UNL     1     -11.017  15.513  67.351  1.00  0.00    -0.306 C  
BRANCH   4   5
HETATM    5  C   UNL     1     -11.501  14.582  66.238  1.00  0.00    -0.358 C  
BRANCH   5   6
HETATM    6  C   UNL     1     -11.417  13.092  66.614  1.00  0.00    -0.336 C  
HETATM    7  O   UNL     1     -12.340  12.398  65.779  1.00  0.00    -0.644 OA 
HETATM    8  H   UNL     1     -12.287  11.479  66.011  1.00  0.00     0.000 HD 
BRANCH   6   9
HETATM    9  C   UNL     1     -11.714  12.831  68.076  1.00  0.00    -0.405 C  
HETATM   10  C   UNL     1     -10.995  12.068  68.919  1.00  0.00    -0.277 C  
BRANCH  10  11
HETATM   11  C   UNL     1     -11.426  11.680  70.320  1.00  0.00    -0.118 C  
HETATM   12  C   UNL     1     -12.565  12.614  70.787  1.00  0.00    -0.217 C  
HETATM   13  O   UNL     1     -12.074  13.873  71.225  1.00  0.00    -0.396 OA 
HETATM   14  C   UNL     1     -13.252  11.883  71.920  1.00  0.00    -0.467 C  
HETATM   15  H   UNL     1     -12.775  14.447  71.512  1.00  0.00     0.000 HD 
HETATM   16  C   UNL     1     -13.116  10.461  71.475  1.00  0.00    -0.431 C  
HETATM   17  O   UNL     1     -13.833   9.570  71.915  1.00  0.00    -0.340 OA 
HETATM   18  C   UNL     1     -11.997  10.250  70.465  1.00  0.00    -0.415 C  
BRANCH  18  19
HETATM   19  C   UNL     1     -10.932   9.282  71.003  1.00  0.00    -0.390 C  
BRANCH  19  20
HETATM   20  C   UNL     1      -9.619   9.329  70.263  1.00  0.00    -0.276 C  
HETATM   21  C   UNL     1      -9.305   8.729  69.104  1.00  0.00    -0.149 C  
BRANCH  21  22
HETATM   22  C   UNL     1     -10.207   7.847  68.296  1.00  0.00    -0.240 C  
BRANCH  22  23
HETATM   23  C   UNL     1     -10.395   8.351  66.866  1.00  0.00    -0.378 C  
BRANCH  23  24
HETATM   24  C   UNL     1      -9.098   8.997  66.377  1.00  0.00    -0.213 C  
HETATM   25  C   UNL     1      -9.323   9.965  65.243  1.00  0.00    -0.251 C  
HETATM   26  O   UNL     1     -10.401  10.231  64.741  1.00  0.00    -0.277 OA 
HETATM   27  O   UNL     1      -8.165  10.529  64.825  1.00  0.00    -0.162 OA 
ENDBRANCH  23  24
ENDBRANCH  22  23
ENDBRANCH  21  22
ENDBRANCH  19  20
ENDBRANCH  18  19
ENDBRANCH  10  11
ENDBRANCH   6   9
ENDBRANCH   5   6
ENDBRANCH   4   5
ENDBRANCH   3   4
ENDBRANCH   2   3
TORSDOF 11
ENDMDL
MODEL      134
REMARK 921   NORMALIZED FREE ENERGY PREDICTED BY IDOCK:   -4.77 KCAL/MOL
REMARK 922        TOTAL FREE ENERGY PREDICTED BY IDOCK:   -9.66 KCAL/MOL
REMARK 923 INTER-LIGAND FREE ENERGY PREDICTED BY IDOCK:   -8.38 KCAL/MOL
REMARK 924 INTRA-LIGAND FREE ENERGY PREDICTED BY IDOCK:   -1.28 KCAL/MOL
REMARK 927      BINDING AFFINITY PREDICTED BY RF-SCORE:    0.00 PKD
ROOT
HETATM    1  C   UNL     1      -9.942   6.399  69.652  1.00  0.00    -0.193 C  
HETATM    2  C   UNL     1     -11.124   6.365  68.702  1.00  0.00    -0.393 C  
ENDROOT
BRANCH   2   3
HETATM    3  C   UNL     1     -10.700   6.583  67.248  1.00  0.00    -0.427 C  
BRANCH   3   4
HETATM    4  C   UNL     1     -10.378   8.059  67.009  1.00  0.00    -0.414 C  
BRANCH   4   5
HETATM    5  C   UNL     1      -9.053   8.257  66.272  1.00  0.00    -0.235 C  
BRANCH   5   6
HETATM    6  C   UNL     1      -9.188   9.108  64.996  1.00  0.00    -0.114 C  
HETATM    7  O   UNL     1      -7.868   9.400  64.548  1.00  0.00    -0.111 OA 
HETATM    8  H   UNL     1      -7.951   9.925  63.761  1.00  0.00     0.000 HD 
BRANCH   6   9
HETATM    9  C   UNL     1      -9.977  10.383  65.214  1.00  0.00    -0.376 C  
HETATM   10  C   UNL     1      -9.849  11.534  64.530  1.00  0.00    -0.278 C  
BRANCH  10  11
HETATM   11  C   UNL     1     -10.521  12.841  64.900  1.00  0.00    -0.342 C  
HETATM   12  C   UNL     1     -12.003  12.800  64.468  1.00  0.00    -0.393 C  
HETATM   13  O   UNL     1     -12.159  13.047  63.078  1.00  0.00    -0.775 OA 
HETATM   14  C   UNL     1     -12.695  13.872  65.283  1.00  0.00    -0.485 C  
HETATM   15  H   UNL     1     -13.071  13.022  62.813  1.00  0.00     0.000 HD 
HETATM   16  C   UNL     1     -11.927  13.804  66.565  1.00  0.00    -0.434 C  
HETATM   17  O   UNL     1     -12.373  14.250  67.616  1.00  0.00    -0.265 OA 
HETATM   18  C   UNL     1     -10.553  13.165  66.412  1.00  0.00    -0.293 C  
BRANCH  18  19
HETATM   19  C   UNL     1      -9.433  14.146  66.792  1.00  0.00    -0.290 C  
BRANCH  19  20
HETATM   20  C   UNL     1      -9.451  15.439  66.018  1.00  0.00    -0.381 C  
HETATM   21  C   UNL     1      -8.630  16.492  66.157  1.00  0.00    -0.334 C  
BRANCH  21  22
HETATM   22  C   UNL     1      -7.515  16.617  67.149  1.00  0.00    -0.218 C  
BRANCH  22  23
HETATM   23  C   UNL     1      -7.264  18.063  67.574  1.00  0.00    -0.202 C  
BRANCH  23  24
HETATM   24  C   UNL     1      -8.278  18.464  68.646  1.00  0.00    -0.316 C  
HETATM   25  C   UNL     1      -9.177  19.590  68.203  1.00  0.00    -0.347 C  
HETATM   26  O   UNL     1      -9.133  20.149  67.121  1.00  0.00    -0.343 OA 
HETATM   27  O   UNL     1     -10.069  19.930  69.164  1.00  0.00    -0.418 OA 
ENDBRANCH  23  24
ENDBRANCH  22  23
ENDBRANCH  21  22
ENDBRANCH  19  20
ENDBRANCH  18  19
ENDBRANCH  10  11
ENDBRANCH   6   9
ENDBRANCH   5   6
ENDBRANCH   4   5
ENDBRANCH   3   4
ENDBRANCH   2   3
TORSDOF 11
ENDMDL
MODEL      135
REMARK 921   NORMALIZED FREE ENERGY PREDICTED BY IDOCK:   -4.76 KCAL/MOL
REMARK 922        TOTAL FREE ENERGY PREDICTED BY IDOCK:   -9.64 KCAL/MOL
REMARK 923 INTER-LIGAND FREE ENERGY PREDICTED BY IDOCK:   -8.01 KCAL/MOL
REMARK 924 INTRA-LIGAND FREE ENERGY PREDICTED BY IDOCK:   -1.63 KCAL/MOL
REMARK 927      BINDING AFFINITY PREDICTED BY RF-SCORE:    0.00 PKD
ROOT
HETATM    1  C   UNL     1      -6.101   8.546  65.967  1.00  0.00    -0.048 C  
HETATM    2  C   UNL     1      -7.552   8.400  66.388  1.00  0.00    -0.084 C  
ENDROOT
BRANCH   2   3
HETATM    3  C   UNL     1      -7.700   8.269  67.905  1.00  0.00    -0.103 C  
BRANCH   3   4
HETATM    4  C   UNL     1      -9.157   8.495  68.313  1.00  0.00    -0.138 C  
BRANCH   4   5
HETATM    5  C   UNL     1      -9.290   9.440  69.508  1.00  0.00    -0.187 C  
BRANCH   5   6
HETATM    6  C   UNL     1     -10.455  10.437  69.367  1.00  0.00    -0.238 C  
HETATM    7  O   UNL     1     -11.652   9.669  69.281  1.00  0.00    -0.449 OA 
HETATM    8  H   UNL     1     -12.371  10.284  69.194  1.00  0.00     0.000 HD 
BRANCH   6   9
HETATM    9  C   UNL     1     -10.313  11.348  68.166  1.00  0.00    -0.206 C  
HETATM   10  C   UNL     1     -11.114  11.385  67.086  1.00  0.00    -0.366 C  
BRANCH  10  11
HETATM   11  C   UNL     1     -10.833  12.177  65.824  1.00  0.00    -0.319 C  
HETATM   12  C   UNL     1     -10.643  11.206  64.638  1.00  0.00    -0.318 C  
HETATM   13  O   UNL     1      -9.347  10.624  64.629  1.00  0.00    -0.204 OA 
HETATM   14  C   UNL     1     -10.865  12.037  63.392  1.00  0.00    -0.471 C  
HETATM   15  H   UNL     1      -9.230  10.028  63.899  1.00  0.00     0.000 HD 
HETATM   16  C   UNL     1     -11.912  12.995  63.863  1.00  0.00    -0.485 C  
HETATM   17  O   UNL     1     -12.629  13.612  63.084  1.00  0.00    -0.792 OA 
HETATM   18  C   UNL     1     -11.962  13.136  65.379  1.00  0.00    -0.448 C  
BRANCH  18  19
HETATM   19  C   UNL     1     -11.667  14.579  65.818  1.00  0.00    -0.344 C  
BRANCH  19  20
HETATM   20  C   UNL     1     -10.259  15.038  65.539  1.00  0.00    -0.406 C  
HETATM   21  C   UNL     1      -9.406  15.637  66.384  1.00  0.00    -0.332 C  
BRANCH  21  22
HETATM   22  C   UNL     1      -9.690  16.008  67.807  1.00  0.00    -0.221 C  
BRANCH  22  23
HETATM   23  C   UNL     1      -9.583  17.511  68.057  1.00  0.00    -0.282 C  
BRANCH  23  24
HETATM   24  C   UNL     1     -10.585  18.250  67.169  1.00  0.00    -0.392 C  
HETATM   25  C   UNL     1      -9.924  19.235  66.240  1.00  0.00    -0.413 C  
HETATM   26  O   UNL     1      -8.726  19.452  66.172  1.00  0.00    -0.341 OA 
HETATM   27  O   UNL     1     -10.827  19.877  65.460  1.00  0.00    -0.426 OA 
ENDBRANCH  23  24
ENDBRANCH  22  23
ENDBRANCH  21  22
ENDBRANCH  19  20
ENDBRANCH  18  19
ENDBRANCH  10  11
ENDBRANCH   6   9
ENDBRANCH   5   6
ENDBRANCH   4   5
ENDBRANCH   3   4
ENDBRANCH   2   3
TORSDOF 11
ENDMDL
MODEL      136
REMARK 921   NORMALIZED FREE ENERGY PREDICTED BY IDOCK:   -4.74 KCAL/MOL
REMARK 922        TOTAL FREE ENERGY PREDICTED BY IDOCK:   -9.61 KCAL/MOL
REMARK 923 INTER-LIGAND FREE ENERGY PREDICTED BY IDOCK:   -8.15 KCAL/MOL
REMARK 924 INTRA-LIGAND FREE ENERGY PREDICTED BY IDOCK:   -1.46 KCAL/MOL
REMARK 927      BINDING AFFINITY PREDICTED BY RF-SCORE:    0.00 PKD
ROOT
HETATM    1  C   UNL     1     -10.465   5.264  70.147  1.00  0.00    -0.338 C  
HETATM    2  C   UNL     1     -10.857   6.644  70.642  1.00  0.00    -0.301 C  
ENDROOT
BRANCH   2   3
HETATM    3  C   UNL     1     -11.901   6.580  71.758  1.00  0.00    -0.384 C  
BRANCH   3   4
HETATM    4  C   UNL     1     -11.882   7.875  72.573  1.00  0.00    -0.390 C  
BRANCH   4   5
HETATM    5  C   UNL     1     -11.606   9.106  71.709  1.00  0.00    -0.457 C  
BRANCH   5   6
HETATM    6  C   UNL     1     -12.825  10.034  71.565  1.00  0.00    -0.432 C  
HETATM    7  O   UNL     1     -13.718   9.410  70.647  1.00  0.00    -0.548 OA 
HETATM    8  H   UNL     1     -14.471   9.982  70.558  1.00  0.00     0.000 HD 
BRANCH   6   9
HETATM    9  C   UNL     1     -12.458  11.427  71.095  1.00  0.00    -0.465 C  
HETATM   10  C   UNL     1     -12.969  12.587  71.543  1.00  0.00    -0.379 C  
BRANCH  10  11
HETATM   11  C   UNL     1     -12.716  13.945  70.920  1.00  0.00    -0.410 C  
HETATM   12  C   UNL     1     -12.320  14.953  72.021  1.00  0.00    -0.344 C  
HETATM   13  O   UNL     1     -13.452  15.430  72.736  1.00  0.00    -0.455 OA 
HETATM   14  C   UNL     1     -11.624  16.089  71.303  1.00  0.00    -0.506 C  
HETATM   15  H   UNL     1     -13.208  16.050  73.414  1.00  0.00     0.000 HD 
HETATM   16  C   UNL     1     -10.937  15.356  70.194  1.00  0.00    -0.310 C  
HETATM   17  O   UNL     1      -9.987  15.835  69.587  1.00  0.00    -0.271 OA 
HETATM   18  C   UNL     1     -11.558  13.998  69.895  1.00  0.00    -0.320 C  
BRANCH  18  19
HETATM   19  C   UNL     1     -12.089  13.929  68.455  1.00  0.00    -0.331 C  
BRANCH  19  20
HETATM   20  C   UNL     1     -11.897  12.593  67.785  1.00  0.00    -0.381 C  
HETATM   21  C   UNL     1     -10.820  12.156  67.114  1.00  0.00    -0.286 C  
BRANCH  21  22
HETATM   22  C   UNL     1      -9.563  12.931  66.864  1.00  0.00    -0.240 C  
BRANCH  22  23
HETATM   23  C   UNL     1      -8.302  12.108  67.125  1.00  0.00    -0.183 C  
BRANCH  23  24
HETATM   24  C   UNL     1      -8.021  12.066  68.628  1.00  0.00    -0.082 C  
HETATM   25  C   UNL     1      -6.689  11.440  68.952  1.00  0.00    -0.080 C  
HETATM   26  O   UNL     1      -5.894  11.002  68.139  1.00  0.00    -0.046 OA 
HETATM   27  O   UNL     1      -6.456  11.413  70.286  1.00  0.00    -0.206 OA 
ENDBRANCH  23  24
ENDBRANCH  22  23
ENDBRANCH  21  22
ENDBRANCH  19  20
ENDBRANCH  18  19
ENDBRANCH  10  11
ENDBRANCH   6   9
ENDBRANCH   5   6
ENDBRANCH   4   5
ENDBRANCH   3   4
ENDBRANCH   2   3
TORSDOF 11
ENDMDL
MODEL      137
REMARK 921   NORMALIZED FREE ENERGY PREDICTED BY IDOCK:   -4.74 KCAL/MOL
REMARK 922        TOTAL FREE ENERGY PREDICTED BY IDOCK:   -9.60 KCAL/MOL
REMARK 923 INTER-LIGAND FREE ENERGY PREDICTED BY IDOCK:   -7.29 KCAL/MOL
REMARK 924 INTRA-LIGAND FREE ENERGY PREDICTED BY IDOCK:   -2.31 KCAL/MOL
REMARK 927      BINDING AFFINITY PREDICTED BY RF-SCORE:    0.00 PKD
ROOT
HETATM    1  C   UNL     1      -9.472  14.802  69.060  1.00  0.00    -0.167 C  
HETATM    2  C   UNL     1      -8.417  14.263  68.112  1.00  0.00    -0.167 C  
ENDROOT
BRANCH   2   3
HETATM    3  C   UNL     1      -7.538  15.375  67.537  1.00  0.00    -0.207 C  
BRANCH   3   4
HETATM    4  C   UNL     1      -8.278  16.713  67.590  1.00  0.00    -0.183 C  
BRANCH   4   5
HETATM    5  C   UNL     1      -8.793  17.152  66.219  1.00  0.00    -0.266 C  
BRANCH   5   6
HETATM    6  C   UNL     1     -10.316  16.993  66.062  1.00  0.00    -0.315 C  
HETATM    7  O   UNL     1     -10.887  17.154  67.358  1.00  0.00    -0.284 OA 
HETATM    8  H   UNL     1     -11.827  17.056  67.261  1.00  0.00     0.000 HD 
BRANCH   6   9
HETATM    9  C   UNL     1     -10.715  15.661  65.462  1.00  0.00    -0.403 C  
HETATM   10  C   UNL     1     -11.587  14.775  65.976  1.00  0.00    -0.286 C  
BRANCH  10  11
HETATM   11  C   UNL     1     -11.817  13.375  65.444  1.00  0.00    -0.381 C  
HETATM   12  C   UNL     1     -11.471  13.331  63.939  1.00  0.00    -0.362 C  
HETATM   13  O   UNL     1     -12.514  13.869  63.138  1.00  0.00    -1.121 OA 
HETATM   14  C   UNL     1     -11.246  11.870  63.615  1.00  0.00    -0.522 C  
HETATM   15  H   UNL     1     -12.301  13.841  62.212  1.00  0.00     0.000 HD 
HETATM   16  C   UNL     1     -10.640  11.378  64.892  1.00  0.00    -0.307 C  
HETATM   17  O   UNL     1      -9.986  10.343  64.946  1.00  0.00    -0.306 OA 
HETATM   18  C   UNL     1     -10.946  12.270  66.087  1.00  0.00    -0.328 C  
BRANCH  18  19
HETATM   19  C   UNL     1     -11.728  11.509  67.169  1.00  0.00    -0.140 C  
BRANCH  19  20
HETATM   20  C   UNL     1     -11.167  11.657  68.560  1.00  0.00    -0.312 C  
HETATM   21  C   UNL     1     -10.082  11.060  69.078  1.00  0.00    -0.197 C  
BRANCH  21  22
HETATM   22  C   UNL     1      -9.195  10.079  68.374  1.00  0.00    -0.131 C  
BRANCH  22  23
HETATM   23  C   UNL     1      -9.312   8.666  68.943  1.00  0.00    -0.145 C  
BRANCH  23  24
HETATM   24  C   UNL     1     -10.236   7.832  68.055  1.00  0.00    -0.249 C  
HETATM   25  C   UNL     1      -9.913   6.360  68.100  1.00  0.00    -0.136 C  
HETATM   26  O   UNL     1      -9.021   5.850  68.756  1.00  0.00    -0.117 OA 
HETATM   27  O   UNL     1     -10.742   5.638  67.309  1.00  0.00    -0.256 OA 
ENDBRANCH  23  24
ENDBRANCH  22  23
ENDBRANCH  21  22
ENDBRANCH  19  20
ENDBRANCH  18  19
ENDBRANCH  10  11
ENDBRANCH   6   9
ENDBRANCH   5   6
ENDBRANCH   4   5
ENDBRANCH   3   4
ENDBRANCH   2   3
TORSDOF 11
ENDMDL
MODEL      138
REMARK 921   NORMALIZED FREE ENERGY PREDICTED BY IDOCK:   -4.73 KCAL/MOL
REMARK 922        TOTAL FREE ENERGY PREDICTED BY IDOCK:   -9.59 KCAL/MOL
REMARK 923 INTER-LIGAND FREE ENERGY PREDICTED BY IDOCK:   -7.79 KCAL/MOL
REMARK 924 INTRA-LIGAND FREE ENERGY PREDICTED BY IDOCK:   -1.79 KCAL/MOL
REMARK 927      BINDING AFFINITY PREDICTED BY RF-SCORE:    0.00 PKD
ROOT
HETATM    1  C   UNL     1      -9.568  10.364  63.946  1.00  0.00    -0.370 C  
HETATM    2  C   UNL     1     -10.194  11.548  63.232  1.00  0.00    -0.432 C  
ENDROOT
BRANCH   2   3
HETATM    3  C   UNL     1     -11.611  11.837  63.732  1.00  0.00    -0.508 C  
BRANCH   3   4
HETATM    4  C   UNL     1     -11.736  13.304  64.145  1.00  0.00    -0.470 C  
BRANCH   4   5
HETATM    5  C   UNL     1     -11.163  13.572  65.537  1.00  0.00    -0.304 C  
BRANCH   5   6
HETATM    6  C   UNL     1     -12.119  13.172  66.675  1.00  0.00    -0.346 C  
HETATM    7  O   UNL     1     -12.368  14.347  67.442  1.00  0.00    -0.623 OA 
HETATM    8  H   UNL     1     -12.957  14.100  68.144  1.00  0.00     0.000 HD 
BRANCH   6   9
HETATM    9  C   UNL     1     -11.568  12.065  67.550  1.00  0.00    -0.401 C  
HETATM   10  C   UNL     1     -11.008  10.915  67.135  1.00  0.00    -0.334 C  
BRANCH  10  11
HETATM   11  C   UNL     1     -10.641   9.754  68.037  1.00  0.00    -0.291 C  
HETATM   12  C   UNL     1      -9.690   8.796  67.286  1.00  0.00    -0.183 C  
HETATM   13  O   UNL     1     -10.391   7.950  66.385  1.00  0.00    -0.482 OA 
HETATM   14  C   UNL     1      -9.000   7.983  68.358  1.00  0.00    -0.133 C  
HETATM   15  H   UNL     1      -9.806   7.361  65.923  1.00  0.00     0.000 HD 
HETATM   16  C   UNL     1      -8.892   8.986  69.462  1.00  0.00    -0.146 C  
HETATM   17  O   UNL     1      -8.092   8.859  70.383  1.00  0.00    -0.100 OA 
HETATM   18  C   UNL     1      -9.884  10.134  69.332  1.00  0.00    -0.247 C  
BRANCH  18  19
HETATM   19  C   UNL     1     -10.839  10.190  70.535  1.00  0.00    -0.340 C  
BRANCH  19  20
HETATM   20  C   UNL     1     -11.692   8.959  70.708  1.00  0.00    -0.269 C  
HETATM   21  C   UNL     1     -11.597   8.020  71.662  1.00  0.00    -0.317 C  
BRANCH  21  22
HETATM   22  C   UNL     1     -10.584   7.983  72.765  1.00  0.00    -0.420 C  
BRANCH  22  23
HETATM   23  C   UNL     1     -10.596   6.660  73.530  1.00  0.00    -0.334 C  
BRANCH  23  24
HETATM   24  C   UNL     1     -10.899   5.514  72.564  1.00  0.00    -0.302 C  
HETATM   25  C   UNL     1      -9.730   4.580  72.384  1.00  0.00    -0.159 C  
HETATM   26  O   UNL     1      -8.644   4.690  72.927  1.00  0.00    -0.109 OA 
HETATM   27  O   UNL     1     -10.018   3.570  71.528  1.00  0.00    -0.172 OA 
ENDBRANCH  23  24
ENDBRANCH  22  23
ENDBRANCH  21  22
ENDBRANCH  19  20
ENDBRANCH  18  19
ENDBRANCH  10  11
ENDBRANCH   6   9
ENDBRANCH   5   6
ENDBRANCH   4   5
ENDBRANCH   3   4
ENDBRANCH   2   3
TORSDOF 11
ENDMDL
MODEL      139
REMARK 921   NORMALIZED FREE ENERGY PREDICTED BY IDOCK:   -4.72 KCAL/MOL
REMARK 922        TOTAL FREE ENERGY PREDICTED BY IDOCK:   -9.58 KCAL/MOL
REMARK 923 INTER-LIGAND FREE ENERGY PREDICTED BY IDOCK:   -8.00 KCAL/MOL
REMARK 924 INTRA-LIGAND FREE ENERGY PREDICTED BY IDOCK:   -1.57 KCAL/MOL
REMARK 927      BINDING AFFINITY PREDICTED BY RF-SCORE:    0.00 PKD
ROOT
HETATM    1  C   UNL     1     -10.392  20.046  65.954  1.00  0.00    -0.529 C  
HETATM    2  C   UNL     1      -9.202  19.422  66.659  1.00  0.00    -0.393 C  
ENDROOT
BRANCH   2   3
HETATM    3  C   UNL     1      -9.434  19.283  68.165  1.00  0.00    -0.410 C  
BRANCH   3   4
HETATM    4  C   UNL     1      -8.096  19.167  68.896  1.00  0.00    -0.329 C  
BRANCH   4   5
HETATM    5  C   UNL     1      -7.064  18.363  68.104  1.00  0.00    -0.256 C  
BRANCH   5   6
HETATM    6  C   UNL     1      -6.820  16.955  68.677  1.00  0.00    -0.183 C  
HETATM    7  O   UNL     1      -5.531  16.542  68.233  1.00  0.00    -0.103 OA 
HETATM    8  H   UNL     1      -5.381  15.673  68.586  1.00  0.00     0.000 HD 
BRANCH   6   9
HETATM    9  C   UNL     1      -7.878  15.954  68.260  1.00  0.00    -0.138 C  
HETATM   10  C   UNL     1      -8.384  15.786  67.025  1.00  0.00    -0.259 C  
BRANCH  10  11
HETATM   11  C   UNL     1      -9.571  14.907  66.686  1.00  0.00    -0.284 C  
HETATM   12  C   UNL     1     -10.050  15.217  65.251  1.00  0.00    -0.327 C  
HETATM   13  O   UNL     1     -10.837  16.399  65.196  1.00  0.00    -0.512 OA 
HETATM   14  C   UNL     1     -10.860  14.013  64.822  1.00  0.00    -0.430 C  
HETATM   15  H   UNL     1     -11.132  16.589  64.313  1.00  0.00     0.000 HD 
HETATM   16  C   UNL     1     -10.130  12.908  65.516  1.00  0.00    -0.257 C  
HETATM   17  O   UNL     1     -10.234  11.738  65.165  1.00  0.00    -0.248 OA 
HETATM   18  C   UNL     1      -9.292  13.385  66.694  1.00  0.00    -0.248 C  
BRANCH  18  19
HETATM   19  C   UNL     1      -9.758  12.744  68.010  1.00  0.00    -0.220 C  
BRANCH  19  20
HETATM   20  C   UNL     1     -11.144  13.149  68.441  1.00  0.00    -0.298 C  
HETATM   21  C   UNL     1     -11.979  12.486  69.257  1.00  0.00    -0.304 C  
BRANCH  21  22
HETATM   22  C   UNL     1     -11.712  11.163  69.905  1.00  0.00    -0.433 C  
BRANCH  22  23
HETATM   23  C   UNL     1     -12.353  11.045  71.287  1.00  0.00    -0.426 C  
BRANCH  23  24
HETATM   24  C   UNL     1     -13.328   9.866  71.299  1.00  0.00    -0.419 C  
HETATM   25  C   UNL     1     -12.666   8.569  71.687  1.00  0.00    -0.332 C  
HETATM   26  O   UNL     1     -11.487   8.429  71.965  1.00  0.00    -0.301 OA 
HETATM   27  O   UNL     1     -13.544   7.537  71.695  1.00  0.00    -0.365 OA 
ENDBRANCH  23  24
ENDBRANCH  22  23
ENDBRANCH  21  22
ENDBRANCH  19  20
ENDBRANCH  18  19
ENDBRANCH  10  11
ENDBRANCH   6   9
ENDBRANCH   5   6
ENDBRANCH   4   5
ENDBRANCH   3   4
ENDBRANCH   2   3
TORSDOF 11
ENDMDL
MODEL      140
REMARK 921   NORMALIZED FREE ENERGY PREDICTED BY IDOCK:   -4.72 KCAL/MOL
REMARK 922        TOTAL FREE ENERGY PREDICTED BY IDOCK:   -9.57 KCAL/MOL
REMARK 923 INTER-LIGAND FREE ENERGY PREDICTED BY IDOCK:   -7.62 KCAL/MOL
REMARK 924 INTRA-LIGAND FREE ENERGY PREDICTED BY IDOCK:   -1.95 KCAL/MOL
REMARK 927      BINDING AFFINITY PREDICTED BY RF-SCORE:    0.00 PKD
ROOT
HETATM    1  C   UNL     1      -9.979  10.940  63.295  1.00  0.00    -0.399 C  
HETATM    2  C   UNL     1     -11.132  11.808  63.762  1.00  0.00    -0.513 C  
ENDROOT
BRANCH   2   3
HETATM    3  C   UNL     1     -10.683  12.868  64.769  1.00  0.00    -0.354 C  
BRANCH   3   4
HETATM    4  C   UNL     1     -11.821  13.191  65.738  1.00  0.00    -0.442 C  
BRANCH   4   5
HETATM    5  C   UNL     1     -11.761  12.350  67.014  1.00  0.00    -0.423 C  
BRANCH   5   6
HETATM    6  C   UNL     1     -11.703  13.197  68.297  1.00  0.00    -0.349 C  
HETATM    7  O   UNL     1     -10.573  14.057  68.179  1.00  0.00    -0.238 OA 
HETATM    8  H   UNL     1     -10.537  14.579  68.971  1.00  0.00     0.000 HD 
BRANCH   6   9
HETATM    9  C   UNL     1     -11.610  12.359  69.557  1.00  0.00    -0.353 C  
HETATM   10  C   UNL     1     -11.683  11.019  69.638  1.00  0.00    -0.401 C  
BRANCH  10  11
HETATM   11  C   UNL     1     -11.775  10.232  70.930  1.00  0.00    -0.472 C  
HETATM   12  C   UNL     1     -13.227  10.266  71.454  1.00  0.00    -0.370 C  
HETATM   13  O   UNL     1     -13.527  11.489  72.111  1.00  0.00    -0.545 OA 
HETATM   14  C   UNL     1     -13.342   9.101  72.412  1.00  0.00    -0.527 C  
HETATM   15  H   UNL     1     -14.421  11.510  72.433  1.00  0.00     0.000 HD 
HETATM   16  C   UNL     1     -12.436   8.101  71.766  1.00  0.00    -0.330 C  
HETATM   17  O   UNL     1     -12.505   6.903  72.015  1.00  0.00    -0.312 OA 
HETATM   18  C   UNL     1     -11.426   8.729  70.816  1.00  0.00    -0.309 C  
BRANCH  18  19
HETATM   19  C   UNL     1      -9.984   8.460  71.273  1.00  0.00    -0.261 C  
BRANCH  19  20
HETATM   20  C   UNL     1      -9.435   7.124  70.842  1.00  0.00    -0.160 C  
HETATM   21  C   UNL     1      -9.041   6.753  69.614  1.00  0.00    -0.143 C  
BRANCH  21  22
HETATM   22  C   UNL     1      -9.087   7.600  68.380  1.00  0.00    -0.130 C  
BRANCH  22  23
HETATM   23  C   UNL     1      -7.758   8.300  68.096  1.00  0.00    -0.106 C  
BRANCH  23  24
HETATM   24  C   UNL     1      -7.818   9.739  68.609  1.00  0.00    -0.081 C  
HETATM   25  C   UNL     1      -8.369  10.698  67.585  1.00  0.00    -0.114 C  
HETATM   26  O   UNL     1      -8.735  10.403  66.461  1.00  0.00    -0.133 OA 
HETATM   27  O   UNL     1      -8.416  11.967  68.057  1.00  0.00    -0.152 OA 
ENDBRANCH  23  24
ENDBRANCH  22  23
ENDBRANCH  21  22
ENDBRANCH  19  20
ENDBRANCH  18  19
ENDBRANCH  10  11
ENDBRANCH   6   9
ENDBRANCH   5   6
ENDBRANCH   4   5
ENDBRANCH   3   4
ENDBRANCH   2   3
TORSDOF 11
ENDMDL
MODEL      141
REMARK 921   NORMALIZED FREE ENERGY PREDICTED BY IDOCK:   -4.70 KCAL/MOL
REMARK 922        TOTAL FREE ENERGY PREDICTED BY IDOCK:   -9.53 KCAL/MOL
REMARK 923 INTER-LIGAND FREE ENERGY PREDICTED BY IDOCK:   -7.27 KCAL/MOL
REMARK 924 INTRA-LIGAND FREE ENERGY PREDICTED BY IDOCK:   -2.26 KCAL/MOL
REMARK 927      BINDING AFFINITY PREDICTED BY RF-SCORE:    0.00 PKD
ROOT
HETATM    1  C   UNL     1     -10.680  14.623  66.936  1.00  0.00    -0.294 C  
HETATM    2  C   UNL     1     -12.035  14.091  66.510  1.00  0.00    -0.470 C  
ENDROOT
BRANCH   2   3
HETATM    3  C   UNL     1     -12.158  13.980  64.989  1.00  0.00    -0.427 C  
BRANCH   3   4
HETATM    4  C   UNL     1     -12.585  12.565  64.596  1.00  0.00    -0.507 C  
BRANCH   4   5
HETATM    5  C   UNL     1     -11.876  12.068  63.335  1.00  0.00    -0.542 C  
BRANCH   5   6
HETATM    6  C   UNL     1     -10.484  11.474  63.615  1.00  0.00    -0.427 C  
HETATM    7  O   UNL     1     -10.226  10.517  62.591  1.00  0.00    -0.736 OA 
HETATM    8  H   UNL     1      -9.367  10.151  62.764  1.00  0.00     0.000 HD 
BRANCH   6   9
HETATM    9  C   UNL     1     -10.375  10.837  64.985  1.00  0.00    -0.357 C  
HETATM   10  C   UNL     1      -9.541  11.199  65.976  1.00  0.00    -0.248 C  
BRANCH  10  11
HETATM   11  C   UNL     1      -9.331  10.422  67.260  1.00  0.00    -0.164 C  
HETATM   12  C   UNL     1      -9.803  11.271  68.461  1.00  0.00    -0.197 C  
HETATM   13  O   UNL     1      -8.842  12.250  68.830  1.00  0.00    -0.371 OA 
HETATM   14  C   UNL     1     -10.028  10.289  69.591  1.00  0.00    -0.240 C  
HETATM   15  H   UNL     1      -9.132  12.772  69.569  1.00  0.00     0.000 HD 
HETATM   16  C   UNL     1     -10.514   9.089  68.842  1.00  0.00    -0.210 C  
HETATM   17  O   UNL     1     -11.141   8.189  69.390  1.00  0.00    -0.074 OA 
HETATM   18  C   UNL     1     -10.124   9.098  67.371  1.00  0.00    -0.289 C  
BRANCH  18  19
HETATM   19  C   UNL     1      -9.239   7.892  67.018  1.00  0.00    -0.181 C  
BRANCH  19  20
HETATM   20  C   UNL     1      -7.859   7.936  67.622  1.00  0.00    -0.122 C  
HETATM   21  C   UNL     1      -7.392   7.225  68.660  1.00  0.00    -0.100 C  
BRANCH  21  22
HETATM   22  C   UNL     1      -8.169   6.233  69.470  1.00  0.00    -0.117 C  
BRANCH  22  23
HETATM   23  C   UNL     1      -7.938   6.390  70.972  1.00  0.00    -0.115 C  
BRANCH  23  24
HETATM   24  C   UNL     1      -9.283   6.550  71.682  1.00  0.00    -0.143 C  
HETATM   25  C   UNL     1      -9.414   7.876  72.386  1.00  0.00    -0.192 C  
HETATM   26  O   UNL     1      -8.567   8.752  72.413  1.00  0.00    -0.395 OA 
HETATM   27  O   UNL     1     -10.612   8.001  73.007  1.00  0.00    -0.353 OA 
ENDBRANCH  23  24
ENDBRANCH  22  23
ENDBRANCH  21  22
ENDBRANCH  19  20
ENDBRANCH  18  19
ENDBRANCH  10  11
ENDBRANCH   6   9
ENDBRANCH   5   6
ENDBRANCH   4   5
ENDBRANCH   3   4
ENDBRANCH   2   3
TORSDOF 11
ENDMDL
MODEL      142
REMARK 921   NORMALIZED FREE ENERGY PREDICTED BY IDOCK:   -4.69 KCAL/MOL
REMARK 922        TOTAL FREE ENERGY PREDICTED BY IDOCK:   -9.52 KCAL/MOL
REMARK 923 INTER-LIGAND FREE ENERGY PREDICTED BY IDOCK:   -8.55 KCAL/MOL
REMARK 924 INTRA-LIGAND FREE ENERGY PREDICTED BY IDOCK:   -0.98 KCAL/MOL
REMARK 927      BINDING AFFINITY PREDICTED BY RF-SCORE:    0.00 PKD
ROOT
HETATM    1  C   UNL     1     -10.458  19.348  67.891  1.00  0.00    -0.536 C  
HETATM    2  C   UNL     1     -10.166  17.891  67.585  1.00  0.00    -0.369 C  
ENDROOT
BRANCH   2   3
HETATM    3  C   UNL     1     -10.318  17.575  66.096  1.00  0.00    -0.330 C  
BRANCH   3   4
HETATM    4  C   UNL     1     -10.329  16.061  65.877  1.00  0.00    -0.386 C  
BRANCH   4   5
HETATM    5  C   UNL     1     -10.596  15.284  67.167  1.00  0.00    -0.302 C  
BRANCH   5   6
HETATM    6  C   UNL     1     -11.903  14.472  67.127  1.00  0.00    -0.387 C  
HETATM    7  O   UNL     1     -12.403  14.420  68.460  1.00  0.00    -0.588 OA 
HETATM    8  H   UNL     1     -13.209  13.919  68.436  1.00  0.00     0.000 HD 
BRANCH   6   9
HETATM    9  C   UNL     1     -11.717  13.076  66.569  1.00  0.00    -0.437 C  
HETATM   10  C   UNL     1     -10.608  12.582  65.991  1.00  0.00    -0.289 C  
BRANCH  10  11
HETATM   11  C   UNL     1     -10.521  11.247  65.278  1.00  0.00    -0.341 C  
HETATM   12  C   UNL     1      -9.977  11.460  63.849  1.00  0.00    -0.315 C  
HETATM   13  O   UNL     1     -10.981  11.932  62.962  1.00  0.00    -0.670 OA 
HETATM   14  C   UNL     1      -9.462  10.108  63.403  1.00  0.00    -0.308 C  
HETATM   15  H   UNL     1     -10.646  12.063  62.082  1.00  0.00     0.000 HD 
HETATM   16  C   UNL     1      -8.955   9.549  64.695  1.00  0.00    -0.221 C  
HETATM   17  O   UNL     1      -8.146   8.629  64.733  1.00  0.00    -0.133 OA 
HETATM   18  C   UNL     1      -9.565  10.214  65.920  1.00  0.00    -0.274 C  
BRANCH  18  19
HETATM   19  C   UNL     1     -10.340   9.203  66.780  1.00  0.00    -0.308 C  
BRANCH  19  20
HETATM   20  C   UNL     1     -10.465   9.589  68.232  1.00  0.00    -0.265 C  
HETATM   21  C   UNL     1     -10.342   8.795  69.307  1.00  0.00    -0.221 C  
BRANCH  21  22
HETATM   22  C   UNL     1     -10.073   7.322  69.290  1.00  0.00    -0.183 C  
BRANCH  22  23
HETATM   23  C   UNL     1     -10.824   6.574  70.391  1.00  0.00    -0.326 C  
BRANCH  23  24
HETATM   24  C   UNL     1     -12.108   7.329  70.738  1.00  0.00    -0.284 C  
HETATM   25  C   UNL     1     -12.028   8.030  72.071  1.00  0.00    -0.327 C  
HETATM   26  O   UNL     1     -11.067   8.020  72.821  1.00  0.00    -0.373 OA 
HETATM   27  O   UNL     1     -13.172   8.695  72.360  1.00  0.00    -0.373 OA 
ENDBRANCH  23  24
ENDBRANCH  22  23
ENDBRANCH  21  22
ENDBRANCH  19  20
ENDBRANCH  18  19
ENDBRANCH  10  11
ENDBRANCH   6   9
ENDBRANCH   5   6
ENDBRANCH   4   5
ENDBRANCH   3   4
ENDBRANCH   2   3
TORSDOF 11
ENDMDL
MODEL      143
REMARK 921   NORMALIZED FREE ENERGY PREDICTED BY IDOCK:   -4.68 KCAL/MOL
REMARK 922        TOTAL FREE ENERGY PREDICTED BY IDOCK:   -9.50 KCAL/MOL
REMARK 923 INTER-LIGAND FREE ENERGY PREDICTED BY IDOCK:   -7.90 KCAL/MOL
REMARK 924 INTRA-LIGAND FREE ENERGY PREDICTED BY IDOCK:   -1.60 KCAL/MOL
REMARK 927      BINDING AFFINITY PREDICTED BY RF-SCORE:    0.00 PKD
ROOT
HETATM    1  C   UNL     1      -7.608  19.080  66.384  1.00  0.00    -0.279 C  
HETATM    2  C   UNL     1      -8.026  19.255  67.833  1.00  0.00    -0.327 C  
ENDROOT
BRANCH   2   3
HETATM    3  C   UNL     1      -9.195  18.342  68.208  1.00  0.00    -0.333 C  
BRANCH   3   4
HETATM    4  C   UNL     1     -10.175  18.232  67.039  1.00  0.00    -0.392 C  
BRANCH   4   5
HETATM    5  C   UNL     1     -10.550  16.784  66.724  1.00  0.00    -0.203 C  
BRANCH   5   6
HETATM    6  C   UNL     1     -10.046  16.311  65.349  1.00  0.00    -0.145 C  
HETATM    7  O   UNL     1     -11.012  16.722  64.386  1.00  0.00    -1.098 OA 
HETATM    8  H   UNL     1     -10.700  16.431  63.538  1.00  0.00     0.000 HD 
BRANCH   6   9
HETATM    9  C   UNL     1      -9.824  14.814  65.281  1.00  0.00    -0.235 C  
HETATM   10  C   UNL     1     -10.673  13.897  64.784  1.00  0.00    -0.437 C  
BRANCH  10  11
HETATM   11  C   UNL     1     -10.497  12.396  64.904  1.00  0.00    -0.327 C  
HETATM   12  C   UNL     1     -10.438  11.769  63.494  1.00  0.00    -0.449 C  
HETATM   13  O   UNL     1     -11.730  11.629  62.920  1.00  0.00    -0.791 OA 
HETATM   14  C   UNL     1      -9.784  10.416  63.677  1.00  0.00    -0.338 C  
HETATM   15  H   UNL     1     -11.693  11.242  62.052  1.00  0.00     0.000 HD 
HETATM   16  C   UNL     1      -8.823  10.704  64.787  1.00  0.00    -0.182 C  
HETATM   17  O   UNL     1      -7.854   9.989  65.012  1.00  0.00    -0.127 OA 
HETATM   18  C   UNL     1      -9.196  11.935  65.602  1.00  0.00    -0.060 C  
BRANCH  18  19
HETATM   19  C   UNL     1      -9.455  11.577  67.074  1.00  0.00    -0.193 C  
BRANCH  19  20
HETATM   20  C   UNL     1      -8.658  12.391  68.061  1.00  0.00    -0.180 C  
HETATM   21  C   UNL     1      -9.079  13.426  68.805  1.00  0.00     0.115 C  
BRANCH  21  22
HETATM   22  C   UNL     1     -10.454  14.018  68.792  1.00  0.00    -0.238 C  
BRANCH  22  23
HETATM   23  C   UNL     1     -11.551  12.958  68.701  1.00  0.00    -0.353 C  
BRANCH  23  24
HETATM   24  C   UNL     1     -12.082  12.650  70.102  1.00  0.00    -0.368 C  
HETATM   25  C   UNL     1     -11.986  11.187  70.452  1.00  0.00    -0.378 C  
HETATM   26  O   UNL     1     -11.543  10.312  69.728  1.00  0.00    -0.249 OA 
HETATM   27  O   UNL     1     -12.459  10.934  71.696  1.00  0.00    -0.335 OA 
ENDBRANCH  23  24
ENDBRANCH  22  23
ENDBRANCH  21  22
ENDBRANCH  19  20
ENDBRANCH  18  19
ENDBRANCH  10  11
ENDBRANCH   6   9
ENDBRANCH   5   6
ENDBRANCH   4   5
ENDBRANCH   3   4
ENDBRANCH   2   3
TORSDOF 11
ENDMDL
MODEL      144
REMARK 921   NORMALIZED FREE ENERGY PREDICTED BY IDOCK:   -4.68 KCAL/MOL
REMARK 922        TOTAL FREE ENERGY PREDICTED BY IDOCK:   -9.50 KCAL/MOL
REMARK 923 INTER-LIGAND FREE ENERGY PREDICTED BY IDOCK:   -8.30 KCAL/MOL
REMARK 924 INTRA-LIGAND FREE ENERGY PREDICTED BY IDOCK:   -1.21 KCAL/MOL
REMARK 927      BINDING AFFINITY PREDICTED BY RF-SCORE:    0.00 PKD
ROOT
HETATM    1  C   UNL     1      -7.723   7.083  66.552  1.00  0.00    -0.104 C  
HETATM    2  C   UNL     1      -9.238   7.099  66.643  1.00  0.00    -0.193 C  
ENDROOT
BRANCH   2   3
HETATM    3  C   UNL     1      -9.804   8.517  66.544  1.00  0.00    -0.342 C  
BRANCH   3   4
HETATM    4  C   UNL     1     -10.910   8.716  67.582  1.00  0.00    -0.081 C  
BRANCH   4   5
HETATM    5  C   UNL     1     -10.420   9.461  68.825  1.00  0.00    -0.236 C  
BRANCH   5   6
HETATM    6  C   UNL     1     -11.083  10.838  69.008  1.00  0.00    -0.253 C  
HETATM    7  O   UNL     1     -12.482  10.611  69.151  1.00  0.00    -0.752 OA 
HETATM    8  H   UNL     1     -12.891  11.460  69.265  1.00  0.00     0.000 HD 
BRANCH   6   9
HETATM    9  C   UNL     1     -10.807  11.787  67.860  1.00  0.00    -0.255 C  
HETATM   10  C   UNL     1     -11.692  12.218  66.943  1.00  0.00    -0.404 C  
BRANCH  10  11
HETATM   11  C   UNL     1     -11.338  13.015  65.704  1.00  0.00    -0.330 C  
HETATM   12  C   UNL     1     -12.114  12.456  64.492  1.00  0.00    -0.417 C  
HETATM   13  O   UNL     1     -11.515  11.277  63.974  1.00  0.00    -0.383 OA 
HETATM   14  C   UNL     1     -12.104  13.561  63.457  1.00  0.00    -0.425 C  
HETATM   15  H   UNL     1     -11.992  10.934  63.228  1.00  0.00     0.000 HD 
HETATM   16  C   UNL     1     -12.163  14.776  64.327  1.00  0.00    -0.379 C  
HETATM   17  O   UNL     1     -12.525  15.867  63.899  1.00  0.00    -0.760 OA 
HETATM   18  C   UNL     1     -11.704  14.517  65.755  1.00  0.00    -0.344 C  
BRANCH  18  19
HETATM   19  C   UNL     1     -10.480  15.373  66.115  1.00  0.00    -0.325 C  
BRANCH  19  20
HETATM   20  C   UNL     1     -10.587  16.085  67.439  1.00  0.00    -0.316 C  
HETATM   21  C   UNL     1      -9.592  16.597  68.182  1.00  0.00    -0.228 C  
BRANCH  21  22
HETATM   22  C   UNL     1      -8.132  16.545  67.854  1.00  0.00    -0.168 C  
BRANCH  22  23
HETATM   23  C   UNL     1      -7.760  17.448  66.680  1.00  0.00    -0.293 C  
BRANCH  23  24
HETATM   24  C   UNL     1      -7.168  18.756  67.208  1.00  0.00    -0.216 C  
HETATM   25  C   UNL     1      -7.985  19.962  66.820  1.00  0.00    -0.310 C  
HETATM   26  O   UNL     1      -9.008  19.943  66.159  1.00  0.00    -0.369 OA 
HETATM   27  O   UNL     1      -7.447  21.110  67.299  1.00  0.00    -0.412 OA 
ENDBRANCH  23  24
ENDBRANCH  22  23
ENDBRANCH  21  22
ENDBRANCH  19  20
ENDBRANCH  18  19
ENDBRANCH  10  11
ENDBRANCH   6   9
ENDBRANCH   5   6
ENDBRANCH   4   5
ENDBRANCH   3   4
ENDBRANCH   2   3
TORSDOF 11
ENDMDL
MODEL      145
REMARK 921   NORMALIZED FREE ENERGY PREDICTED BY IDOCK:   -4.66 KCAL/MOL
REMARK 922        TOTAL FREE ENERGY PREDICTED BY IDOCK:   -9.47 KCAL/MOL
REMARK 923 INTER-LIGAND FREE ENERGY PREDICTED BY IDOCK:   -8.33 KCAL/MOL
REMARK 924 INTRA-LIGAND FREE ENERGY PREDICTED BY IDOCK:   -1.14 KCAL/MOL
REMARK 927      BINDING AFFINITY PREDICTED BY RF-SCORE:    0.00 PKD
ROOT
HETATM    1  C   UNL     1      -7.162  20.885  67.145  1.00  0.00    -0.395 C  
HETATM    2  C   UNL     1      -7.809  19.529  66.928  1.00  0.00    -0.289 C  
ENDROOT
BRANCH   2   3
HETATM    3  C   UNL     1      -7.563  18.581  68.102  1.00  0.00    -0.291 C  
BRANCH   3   4
HETATM    4  C   UNL     1      -8.284  17.252  67.867  1.00  0.00    -0.219 C  
BRANCH   4   5
HETATM    5  C   UNL     1      -8.513  16.965  66.383  1.00  0.00    -0.325 C  
BRANCH   5   6
HETATM    6  C   UNL     1     -10.002  16.867  66.006  1.00  0.00    -0.293 C  
HETATM    7  O   UNL     1     -10.750  17.219  67.166  1.00  0.00    -0.288 OA 
HETATM    8  H   UNL     1     -11.668  17.159  66.934  1.00  0.00     0.000 HD 
BRANCH   6   9
HETATM    9  C   UNL     1     -10.399  15.493  65.507  1.00  0.00    -0.419 C  
HETATM   10  C   UNL     1     -11.532  14.829  65.796  1.00  0.00    -0.322 C  
BRANCH  10  11
HETATM   11  C   UNL     1     -11.808  13.384  65.431  1.00  0.00    -0.381 C  
HETATM   12  C   UNL     1     -11.477  13.155  63.940  1.00  0.00    -0.401 C  
HETATM   13  O   UNL     1     -12.512  13.627  63.088  1.00  0.00    -1.033 OA 
HETATM   14  C   UNL     1     -11.298  11.661  63.787  1.00  0.00    -0.482 C  
HETATM   15  H   UNL     1     -12.308  13.486  62.170  1.00  0.00     0.000 HD 
HETATM   16  C   UNL     1     -10.694  11.302  65.108  1.00  0.00    -0.246 C  
HETATM   17  O   UNL     1     -10.070  10.261  65.278  1.00  0.00    -0.303 OA 
HETATM   18  C   UNL     1     -10.963  12.336  66.193  1.00  0.00    -0.328 C  
BRANCH  18  19
HETATM   19  C   UNL     1     -11.756  11.729  67.361  1.00  0.00    -0.304 C  
BRANCH  19  20
HETATM   20  C   UNL     1     -11.497  12.383  68.694  1.00  0.00    -0.348 C  
HETATM   21  C   UNL     1     -11.833  11.931  69.912  1.00  0.00    -0.418 C  
BRANCH  21  22
HETATM   22  C   UNL     1     -12.574  10.663  70.208  1.00  0.00    -0.333 C  
BRANCH  22  23
HETATM   23  C   UNL     1     -11.655   9.443  70.259  1.00  0.00    -0.181 C  
BRANCH  23  24
HETATM   24  C   UNL     1     -10.196   9.901  70.271  1.00  0.00    -0.322 C  
HETATM   25  C   UNL     1      -9.409   9.365  69.103  1.00  0.00    -0.159 C  
HETATM   26  O   UNL     1      -9.847   8.642  68.225  1.00  0.00    -0.156 OA 
HETATM   27  O   UNL     1      -8.121   9.783  69.129  1.00  0.00    -0.093 OA 
ENDBRANCH  23  24
ENDBRANCH  22  23
ENDBRANCH  21  22
ENDBRANCH  19  20
ENDBRANCH  18  19
ENDBRANCH  10  11
ENDBRANCH   6   9
ENDBRANCH   5   6
ENDBRANCH   4   5
ENDBRANCH   3   4
ENDBRANCH   2   3
TORSDOF 11
ENDMDL
MODEL      146
REMARK 921   NORMALIZED FREE ENERGY PREDICTED BY IDOCK:   -4.63 KCAL/MOL
REMARK 922        TOTAL FREE ENERGY PREDICTED BY IDOCK:   -9.43 KCAL/MOL
REMARK 923 INTER-LIGAND FREE ENERGY PREDICTED BY IDOCK:   -7.88 KCAL/MOL
REMARK 924 INTRA-LIGAND FREE ENERGY PREDICTED BY IDOCK:   -1.55 KCAL/MOL
REMARK 927      BINDING AFFINITY PREDICTED BY RF-SCORE:    0.00 PKD
ROOT
HETATM    1  C   UNL     1      -9.732  10.595  63.369  1.00  0.00    -0.387 C  
HETATM    2  C   UNL     1     -10.294  12.004  63.337  1.00  0.00    -0.468 C  
ENDROOT
BRANCH   2   3
HETATM    3  C   UNL     1     -10.981  12.379  64.651  1.00  0.00    -0.344 C  
BRANCH   3   4
HETATM    4  C   UNL     1     -10.043  12.117  65.830  1.00  0.00    -0.270 C  
BRANCH   4   5
HETATM    5  C   UNL     1     -10.782  11.591  67.061  1.00  0.00    -0.300 C  
BRANCH   5   6
HETATM    6  C   UNL     1      -9.878  10.795  68.019  1.00  0.00    -0.165 C  
HETATM    7  O   UNL     1      -8.710  10.434  67.287  1.00  0.00    -0.126 OA 
HETATM    8  H   UNL     1      -8.152   9.943  67.878  1.00  0.00     0.000 HD 
BRANCH   6   9
HETATM    9  C   UNL     1     -10.555   9.565  68.589  1.00  0.00    -0.239 C  
HETATM   10  C   UNL     1     -10.077   8.759  69.554  1.00  0.00    -0.202 C  
BRANCH  10  11
HETATM   11  C   UNL     1     -10.695   7.438  69.965  1.00  0.00    -0.258 C  
HETATM   12  C   UNL     1      -9.636   6.318  69.859  1.00  0.00    -0.156 C  
HETATM   13  O   UNL     1      -9.456   5.882  68.519  1.00  0.00    -0.119 OA 
HETATM   14  C   UNL     1     -10.149   5.188  70.725  1.00  0.00    -0.303 C  
HETATM   15  H   UNL     1      -8.804   5.193  68.454  1.00  0.00     0.000 HD 
HETATM   16  C   UNL     1     -10.833   5.946  71.818  1.00  0.00    -0.260 C  
HETATM   17  O   UNL     1     -11.081   5.438  72.906  1.00  0.00    -0.264 OA 
HETATM   18  C   UNL     1     -11.204   7.369  71.425  1.00  0.00    -0.272 C  
BRANCH  18  19
HETATM   19  C   UNL     1     -12.722   7.593  71.492  1.00  0.00    -0.373 C  
BRANCH  19  20
HETATM   20  C   UNL     1     -13.149   8.678  72.446  1.00  0.00    -0.396 C  
HETATM   21  C   UNL     1     -13.287   9.989  72.194  1.00  0.00    -0.469 C  
BRANCH  21  22
HETATM   22  C   UNL     1     -13.015  10.668  70.887  1.00  0.00    -0.429 C  
BRANCH  22  23
HETATM   23  C   UNL     1     -12.475  12.087  71.062  1.00  0.00    -0.376 C  
BRANCH  23  24
HETATM   24  C   UNL     1     -13.398  12.875  71.991  1.00  0.00    -0.579 C  
HETATM   25  C   UNL     1     -12.827  14.215  72.379  1.00  0.00    -0.337 C  
HETATM   26  O   UNL     1     -11.751  14.659  72.017  1.00  0.00    -0.271 OA 
HETATM   27  O   UNL     1     -13.659  14.899  73.200  1.00  0.00    -0.520 OA 
ENDBRANCH  23  24
ENDBRANCH  22  23
ENDBRANCH  21  22
ENDBRANCH  19  20
ENDBRANCH  18  19
ENDBRANCH  10  11
ENDBRANCH   6   9
ENDBRANCH   5   6
ENDBRANCH   4   5
ENDBRANCH   3   4
ENDBRANCH   2   3
TORSDOF 11
ENDMDL
MODEL      147
REMARK 921   NORMALIZED FREE ENERGY PREDICTED BY IDOCK:   -4.63 KCAL/MOL
REMARK 922        TOTAL FREE ENERGY PREDICTED BY IDOCK:   -9.42 KCAL/MOL
REMARK 923 INTER-LIGAND FREE ENERGY PREDICTED BY IDOCK:   -7.80 KCAL/MOL
REMARK 924 INTRA-LIGAND FREE ENERGY PREDICTED BY IDOCK:   -1.62 KCAL/MOL
REMARK 927      BINDING AFFINITY PREDICTED BY RF-SCORE:    0.00 PKD
ROOT
HETATM    1  C   UNL     1      -8.227  14.338  67.185  1.00  0.00    -0.184 C  
HETATM    2  C   UNL     1      -8.164  14.488  68.694  1.00  0.00    -0.152 C  
ENDROOT
BRANCH   2   3
HETATM    3  C   UNL     1      -8.513  15.907  69.146  1.00  0.00    -0.254 C  
BRANCH   3   4
HETATM    4  C   UNL     1      -9.901  16.297  68.635  1.00  0.00    -0.230 C  
BRANCH   4   5
HETATM    5  C   UNL     1     -10.940  16.360  69.755  1.00  0.00    -0.341 C  
BRANCH   5   6
HETATM    6  C   UNL     1     -11.824  15.102  69.835  1.00  0.00    -0.330 C  
HETATM    7  O   UNL     1     -11.323  14.308  70.907  1.00  0.00    -0.520 OA 
HETATM    8  H   UNL     1     -11.868  13.532  70.956  1.00  0.00     0.000 HD 
BRANCH   6   9
HETATM    9  C   UNL     1     -11.846  14.310  68.544  1.00  0.00    -0.382 C  
HETATM   10  C   UNL     1     -11.892  12.972  68.423  1.00  0.00    -0.370 C  
BRANCH  10  11
HETATM   11  C   UNL     1     -11.723  12.212  67.122  1.00  0.00    -0.372 C  
HETATM   12  C   UNL     1     -11.650  13.211  65.946  1.00  0.00    -0.354 C  
HETATM   13  O   UNL     1     -12.936  13.683  65.569  1.00  0.00    -0.625 OA 
HETATM   14  C   UNL     1     -11.003  12.453  64.807  1.00  0.00    -0.340 C  
HETATM   15  H   UNL     1     -12.891  14.297  64.846  1.00  0.00     0.000 HD 
HETATM   16  C   UNL     1     -10.053  11.567  65.549  1.00  0.00    -0.243 C  
HETATM   17  O   UNL     1      -9.089  11.044  65.002  1.00  0.00    -0.202 OA 
HETATM   18  C   UNL     1     -10.430  11.369  67.011  1.00  0.00    -0.271 C  
BRANCH  18  19
HETATM   19  C   UNL     1     -10.706   9.890  67.323  1.00  0.00    -0.304 C  
BRANCH  19  20
HETATM   20  C   UNL     1      -9.561   8.963  67.006  1.00  0.00    -0.232 C  
HETATM   21  C   UNL     1      -9.563   7.621  67.004  1.00  0.00    -0.228 C  
BRANCH  21  22
HETATM   22  C   UNL     1     -10.725   6.742  67.349  1.00  0.00    -0.405 C  
BRANCH  22  23
HETATM   23  C   UNL     1     -10.495   5.938  68.628  1.00  0.00    -0.302 C  
BRANCH  23  24
HETATM   24  C   UNL     1     -11.519   6.355  69.685  1.00  0.00    -0.446 C  
HETATM   25  C   UNL     1     -10.985   7.400  70.631  1.00  0.00    -0.256 C  
HETATM   26  O   UNL     1      -9.867   7.885  70.595  1.00  0.00    -0.184 OA 
HETATM   27  O   UNL     1     -11.906   7.759  71.558  1.00  0.00    -0.276 OA 
ENDBRANCH  23  24
ENDBRANCH  22  23
ENDBRANCH  21  22
ENDBRANCH  19  20
ENDBRANCH  18  19
ENDBRANCH  10  11
ENDBRANCH   6   9
ENDBRANCH   5   6
ENDBRANCH   4   5
ENDBRANCH   3   4
ENDBRANCH   2   3
TORSDOF 11
ENDMDL
MODEL      148
REMARK 921   NORMALIZED FREE ENERGY PREDICTED BY IDOCK:   -4.62 KCAL/MOL
REMARK 922        TOTAL FREE ENERGY PREDICTED BY IDOCK:   -9.40 KCAL/MOL
REMARK 923 INTER-LIGAND FREE ENERGY PREDICTED BY IDOCK:   -8.13 KCAL/MOL
REMARK 924 INTRA-LIGAND FREE ENERGY PREDICTED BY IDOCK:   -1.27 KCAL/MOL
REMARK 927      BINDING AFFINITY PREDICTED BY RF-SCORE:    0.00 PKD
ROOT
HETATM    1  C   UNL     1      -8.808   4.238  67.601  1.00  0.00    -0.124 C  
HETATM    2  C   UNL     1     -10.214   4.803  67.672  1.00  0.00    -0.096 C  
ENDROOT
BRANCH   2   3
HETATM    3  C   UNL     1     -10.527   5.716  66.485  1.00  0.00    -0.309 C  
BRANCH   3   4
HETATM    4  C   UNL     1     -10.979   7.091  66.981  1.00  0.00    -0.357 C  
BRANCH   4   5
HETATM    5  C   UNL     1     -10.358   7.460  68.329  1.00  0.00    -0.231 C  
BRANCH   5   6
HETATM    6  C   UNL     1     -10.257   8.979  68.556  1.00  0.00    -0.200 C  
HETATM    7  O   UNL     1     -11.336   9.345  69.412  1.00  0.00    -0.434 OA 
HETATM    8  H   UNL     1     -11.274  10.282  69.552  1.00  0.00     0.000 HD 
BRANCH   6   9
HETATM    9  C   UNL     1     -10.300   9.775  67.268  1.00  0.00    -0.308 C  
HETATM   10  C   UNL     1      -9.246  10.257  66.586  1.00  0.00    -0.179 C  
BRANCH  10  11
HETATM   11  C   UNL     1      -9.336  11.206  65.407  1.00  0.00    -0.243 C  
HETATM   12  C   UNL     1      -9.177  10.412  64.092  1.00  0.00    -0.259 C  
HETATM   13  O   UNL     1      -7.817  10.107  63.816  1.00  0.00    -0.152 OA 
HETATM   14  C   UNL     1      -9.758  11.296  63.010  1.00  0.00    -0.389 C  
HETATM   15  H   UNL     1      -7.720   9.619  63.006  1.00  0.00     0.000 HD 
HETATM   16  C   UNL     1     -10.867  11.974  63.751  1.00  0.00    -0.420 C  
HETATM   17  O   UNL     1     -11.808  12.505  63.172  1.00  0.00    -0.437 OA 
HETATM   18  C   UNL     1     -10.681  11.956  65.262  1.00  0.00    -0.331 C  
BRANCH  18  19
HETATM   19  C   UNL     1     -10.585  13.380  65.832  1.00  0.00    -0.286 C  
BRANCH  19  20
HETATM   20  C   UNL     1     -11.902  13.960  66.279  1.00  0.00    -0.431 C  
HETATM   21  C   UNL     1     -12.378  14.053  67.531  1.00  0.00    -0.112 C  
BRANCH  21  22
HETATM   22  C   UNL     1     -11.696  13.566  68.772  1.00  0.00    -0.373 C  
BRANCH  22  23
HETATM   23  C   UNL     1     -11.895  14.506  69.960  1.00  0.00    -0.372 C  
BRANCH  23  24
HETATM   24  C   UNL     1     -12.553  13.743  71.110  1.00  0.00    -0.452 C  
HETATM   25  C   UNL     1     -13.787  14.433  71.634  1.00  0.00    -0.413 C  
HETATM   26  O   UNL     1     -14.244  15.483  71.217  1.00  0.00    -0.544 OA 
HETATM   27  O   UNL     1     -14.357  13.742  72.651  1.00  0.00    -0.678 OA 
ENDBRANCH  23  24
ENDBRANCH  22  23
ENDBRANCH  21  22
ENDBRANCH  19  20
ENDBRANCH  18  19
ENDBRANCH  10  11
ENDBRANCH   6   9
ENDBRANCH   5   6
ENDBRANCH   4   5
ENDBRANCH   3   4
ENDBRANCH   2   3
TORSDOF 11
ENDMDL
MODEL      149
REMARK 921   NORMALIZED FREE ENERGY PREDICTED BY IDOCK:   -4.61 KCAL/MOL
REMARK 922        TOTAL FREE ENERGY PREDICTED BY IDOCK:   -9.40 KCAL/MOL
REMARK 923 INTER-LIGAND FREE ENERGY PREDICTED BY IDOCK:   -8.34 KCAL/MOL
REMARK 924 INTRA-LIGAND FREE ENERGY PREDICTED BY IDOCK:   -1.06 KCAL/MOL
REMARK 927      BINDING AFFINITY PREDICTED BY RF-SCORE:    0.00 PKD
ROOT
HETATM    1  C   UNL     1      -8.533   5.076  71.671  1.00  0.00    -0.124 C  
HETATM    2  C   UNL     1      -9.753   5.960  71.850  1.00  0.00    -0.173 C  
ENDROOT
BRANCH   2   3
HETATM    3  C   UNL     1      -9.473   7.146  72.775  1.00  0.00    -0.176 C  
BRANCH   3   4
HETATM    4  C   UNL     1     -10.705   8.048  72.865  1.00  0.00    -0.403 C  
BRANCH   4   5
HETATM    5  C   UNL     1     -11.438   8.174  71.528  1.00  0.00    -0.310 C  
BRANCH   5   6
HETATM    6  C   UNL     1     -12.139   9.531  71.345  1.00  0.00    -0.378 C  
HETATM    7  O   UNL     1     -13.482   9.257  70.954  1.00  0.00    -0.572 OA 
HETATM    8  H   UNL     1     -13.915  10.095  70.841  1.00  0.00     0.000 HD 
BRANCH   6   9
HETATM    9  C   UNL     1     -11.454  10.420  70.327  1.00  0.00    -0.406 C  
HETATM   10  C   UNL     1     -11.964  10.843  69.157  1.00  0.00    -0.359 C  
BRANCH  10  11
HETATM   11  C   UNL     1     -11.182  11.574  68.083  1.00  0.00    -0.335 C  
HETATM   12  C   UNL     1     -10.522  10.547  67.136  1.00  0.00    -0.249 C  
HETATM   13  O   UNL     1      -9.342   9.989  67.696  1.00  0.00    -0.143 OA 
HETATM   14  C   UNL     1     -10.205  11.309  65.868  1.00  0.00    -0.298 C  
HETATM   15  H   UNL     1      -8.936   9.358  67.113  1.00  0.00     0.000 HD 
HETATM   16  C   UNL     1     -11.349  12.271  65.811  1.00  0.00    -0.355 C  
HETATM   17  O   UNL     1     -11.676  12.834  64.772  1.00  0.00    -0.322 OA 
HETATM   18  C   UNL     1     -12.021  12.488  67.160  1.00  0.00    -0.285 C  
BRANCH  18  19
HETATM   19  C   UNL     1     -11.928  13.957  67.603  1.00  0.00    -0.403 C  
BRANCH  19  20
HETATM   20  C   UNL     1     -10.647  14.311  68.313  1.00  0.00    -0.247 C  
HETATM   21  C   UNL     1     -10.245  15.522  68.731  1.00  0.00    -0.212 C  
BRANCH  21  22
HETATM   22  C   UNL     1     -10.993  16.808  68.555  1.00  0.00    -0.312 C  
BRANCH  22  23
HETATM   23  C   UNL     1     -10.088  18.034  68.669  1.00  0.00    -0.401 C  
BRANCH  23  24
HETATM   24  C   UNL     1     -10.639  19.159  67.792  1.00  0.00    -0.498 C  
HETATM   25  C   UNL     1     -10.153  19.078  66.368  1.00  0.00    -0.415 C  
HETATM   26  O   UNL     1      -9.402  18.227  65.922  1.00  0.00    -0.506 OA 
HETATM   27  O   UNL     1     -10.652  20.080  65.606  1.00  0.00    -0.460 OA 
ENDBRANCH  23  24
ENDBRANCH  22  23
ENDBRANCH  21  22
ENDBRANCH  19  20
ENDBRANCH  18  19
ENDBRANCH  10  11
ENDBRANCH   6   9
ENDBRANCH   5   6
ENDBRANCH   4   5
ENDBRANCH   3   4
ENDBRANCH   2   3
TORSDOF 11
ENDMDL
MODEL      150
REMARK 921   NORMALIZED FREE ENERGY PREDICTED BY IDOCK:   -4.61 KCAL/MOL
REMARK 922        TOTAL FREE ENERGY PREDICTED BY IDOCK:   -9.40 KCAL/MOL
REMARK 923 INTER-LIGAND FREE ENERGY PREDICTED BY IDOCK:   -7.50 KCAL/MOL
REMARK 924 INTRA-LIGAND FREE ENERGY PREDICTED BY IDOCK:   -1.90 KCAL/MOL
REMARK 927      BINDING AFFINITY PREDICTED BY RF-SCORE:    0.00 PKD
ROOT
HETATM    1  C   UNL     1      -6.598  19.913  69.498  1.00  0.00    -0.372 C  
HETATM    2  C   UNL     1      -7.560  19.034  68.720  1.00  0.00    -0.375 C  
ENDROOT
BRANCH   2   3
HETATM    3  C   UNL     1      -6.970  18.577  67.385  1.00  0.00    -0.208 C  
BRANCH   3   4
HETATM    4  C   UNL     1      -6.406  17.162  67.514  1.00  0.00    -0.166 C  
BRANCH   4   5
HETATM    5  C   UNL     1      -7.222  16.291  68.470  1.00  0.00    -0.159 C  
BRANCH   5   6
HETATM    6  C   UNL     1      -7.391  14.842  67.977  1.00  0.00    -0.130 C  
HETATM    7  O   UNL     1      -6.432  14.639  66.944  1.00  0.00    -0.179 OA 
HETATM    8  H   UNL     1      -6.536  13.745  66.640  1.00  0.00     0.000 HD 
BRANCH   6   9
HETATM    9  C   UNL     1      -8.790  14.546  67.477  1.00  0.00    -0.193 C  
HETATM   10  C   UNL     1      -9.435  15.170  66.476  1.00  0.00    -0.308 C  
BRANCH  10  11
HETATM   11  C   UNL     1     -10.897  14.972  66.130  1.00  0.00    -0.329 C  
HETATM   12  C   UNL     1     -11.120  15.282  64.633  1.00  0.00    -0.332 C  
HETATM   13  O   UNL     1     -11.191  16.679  64.384  1.00  0.00    -1.158 OA 
HETATM   14  C   UNL     1     -12.423  14.605  64.267  1.00  0.00    -0.267 C  
HETATM   15  H   UNL     1     -11.328  16.868  63.463  1.00  0.00     0.000 HD 
HETATM   16  C   UNL     1     -12.376  13.389  65.137  1.00  0.00    -0.456 C  
HETATM   17  O   UNL     1     -13.056  12.396  64.905  1.00  0.00    -0.765 OA 
HETATM   18  C   UNL     1     -11.436  13.535  66.326  1.00  0.00    -0.350 C  
BRANCH  18  19
HETATM   19  C   UNL     1     -12.192  13.405  67.657  1.00  0.00    -0.202 C  
BRANCH  19  20
HETATM   20  C   UNL     1     -11.364  12.855  68.790  1.00  0.00    -0.333 C  
HETATM   21  C   UNL     1     -10.813  11.635  68.891  1.00  0.00    -0.264 C  
BRANCH  21  22
HETATM   22  C   UNL     1     -10.930  10.530  67.887  1.00  0.00    -0.352 C  
BRANCH  22  23
HETATM   23  C   UNL     1      -9.593   9.844  67.608  1.00  0.00    -0.172 C  
BRANCH  23  24
HETATM   24  C   UNL     1      -8.666  10.812  66.871  1.00  0.00    -0.141 C  
HETATM   25  C   UNL     1      -7.227  10.679  67.300  1.00  0.00    -0.091 C  
HETATM   26  O   UNL     1      -6.806   9.902  68.139  1.00  0.00    -0.064 OA 
HETATM   27  O   UNL     1      -6.421  11.542  66.635  1.00  0.00    -0.136 OA 
ENDBRANCH  23  24
ENDBRANCH  22  23
ENDBRANCH  21  22
ENDBRANCH  19  20
ENDBRANCH  18  19
ENDBRANCH  10  11
ENDBRANCH   6   9
ENDBRANCH   5   6
ENDBRANCH   4   5
ENDBRANCH   3   4
ENDBRANCH   2   3
TORSDOF 11
ENDMDL
MODEL      151
REMARK 921   NORMALIZED FREE ENERGY PREDICTED BY IDOCK:   -4.60 KCAL/MOL
REMARK 922        TOTAL FREE ENERGY PREDICTED BY IDOCK:   -9.37 KCAL/MOL
REMARK 923 INTER-LIGAND FREE ENERGY PREDICTED BY IDOCK:   -7.23 KCAL/MOL
REMARK 924 INTRA-LIGAND FREE ENERGY PREDICTED BY IDOCK:   -2.14 KCAL/MOL
REMARK 927      BINDING AFFINITY PREDICTED BY RF-SCORE:    0.00 PKD
ROOT
HETATM    1  C   UNL     1     -12.369  12.810  65.461  1.00  0.00    -0.495 C  
HETATM    2  C   UNL     1     -12.400  14.327  65.435  1.00  0.00    -0.421 C  
ENDROOT
BRANCH   2   3
HETATM    3  C   UNL     1     -11.151  14.916  64.777  1.00  0.00    -0.395 C  
BRANCH   3   4
HETATM    4  C   UNL     1     -10.565  16.023  65.655  1.00  0.00    -0.392 C  
BRANCH   4   5
HETATM    5  C   UNL     1     -10.687  15.713  67.148  1.00  0.00    -0.314 C  
BRANCH   5   6
HETATM    6  C   UNL     1      -9.397  15.134  67.755  1.00  0.00    -0.189 C  
HETATM    7  O   UNL     1      -8.311  15.624  66.974  1.00  0.00    -0.187 OA 
HETATM    8  H   UNL     1      -7.515  15.267  67.349  1.00  0.00     0.000 HD 
BRANCH   6   9
HETATM    9  C   UNL     1      -9.389  13.619  67.795  1.00  0.00    -0.218 C  
HETATM   10  C   UNL     1      -8.822  12.794  66.897  1.00  0.00    -0.194 C  
BRANCH  10  11
HETATM   11  C   UNL     1      -8.995  11.289  66.871  1.00  0.00    -0.163 C  
HETATM   12  C   UNL     1      -7.614  10.612  66.739  1.00  0.00    -0.120 C  
HETATM   13  O   UNL     1      -7.135  10.637  65.402  1.00  0.00    -0.282 OA 
HETATM   14  C   UNL     1      -7.811   9.188  67.211  1.00  0.00    -0.099 C  
HETATM   15  H   UNL     1      -6.285  10.220  65.321  1.00  0.00     0.000 HD 
HETATM   16  C   UNL     1      -8.839   9.374  68.282  1.00  0.00    -0.128 C  
HETATM   17  O   UNL     1      -9.028   8.537  69.156  1.00  0.00    -0.144 OA 
HETATM   18  C   UNL     1      -9.623  10.672  68.144  1.00  0.00    -0.165 C  
BRANCH  18  19
HETATM   19  C   UNL     1     -11.123  10.404  67.947  1.00  0.00    -0.363 C  
BRANCH  19  20
HETATM   20  C   UNL     1     -12.023  11.243  68.817  1.00  0.00    -0.350 C  
HETATM   21  C   UNL     1     -12.219  11.139  70.140  1.00  0.00    -0.417 C  
BRANCH  21  22
HETATM   22  C   UNL     1     -11.588  10.129  71.048  1.00  0.00    -0.462 C  
BRANCH  22  23
HETATM   23  C   UNL     1     -12.618   9.262  71.770  1.00  0.00    -0.461 C  
BRANCH  23  24
HETATM   24  C   UNL     1     -12.427   7.799  71.369  1.00  0.00    -0.342 C  
HETATM   25  C   UNL     1     -11.488   7.062  72.290  1.00  0.00    -0.270 C  
HETATM   26  O   UNL     1     -10.921   7.541  73.257  1.00  0.00    -0.393 OA 
HETATM   27  O   UNL     1     -11.332   5.768  71.920  1.00  0.00    -0.266 OA 
ENDBRANCH  23  24
ENDBRANCH  22  23
ENDBRANCH  21  22
ENDBRANCH  19  20
ENDBRANCH  18  19
ENDBRANCH  10  11
ENDBRANCH   6   9
ENDBRANCH   5   6
ENDBRANCH   4   5
ENDBRANCH   3   4
ENDBRANCH   2   3
TORSDOF 11
ENDMDL
MODEL      152
REMARK 921   NORMALIZED FREE ENERGY PREDICTED BY IDOCK:   -4.59 KCAL/MOL
REMARK 922        TOTAL FREE ENERGY PREDICTED BY IDOCK:   -9.36 KCAL/MOL
REMARK 923 INTER-LIGAND FREE ENERGY PREDICTED BY IDOCK:   -7.55 KCAL/MOL
REMARK 924 INTRA-LIGAND FREE ENERGY PREDICTED BY IDOCK:   -1.81 KCAL/MOL
REMARK 927      BINDING AFFINITY PREDICTED BY RF-SCORE:    0.00 PKD
ROOT
HETATM    1  C   UNL     1      -6.079   9.682  69.301  1.00  0.00    -0.037 C  
HETATM    2  C   UNL     1      -6.779   9.761  67.957  1.00  0.00    -0.061 C  
ENDROOT
BRANCH   2   3
HETATM    3  C   UNL     1      -6.037   8.974  66.875  1.00  0.00    -0.058 C  
BRANCH   3   4
HETATM    4  C   UNL     1      -6.851   8.961  65.580  1.00  0.00    -0.076 C  
BRANCH   4   5
HETATM    5  C   UNL     1      -7.378  10.346  65.205  1.00  0.00    -0.108 C  
BRANCH   5   6
HETATM    6  C   UNL     1      -8.839  10.331  64.723  1.00  0.00    -0.196 C  
HETATM    7  O   UNL     1      -9.169  11.666  64.350  1.00  0.00    -0.421 OA 
HETATM    8  H   UNL     1     -10.071  11.657  64.053  1.00  0.00     0.000 HD 
BRANCH   6   9
HETATM    9  C   UNL     1      -9.803   9.812  65.771  1.00  0.00    -0.360 C  
HETATM   10  C   UNL     1     -10.084  10.380  66.957  1.00  0.00    -0.264 C  
BRANCH  10  11
HETATM   11  C   UNL     1     -10.909   9.737  68.053  1.00  0.00    -0.276 C  
HETATM   12  C   UNL     1     -10.363   8.322  68.347  1.00  0.00    -0.199 C  
HETATM   13  O   UNL     1     -10.799   7.373  67.384  1.00  0.00    -0.439 OA 
HETATM   14  C   UNL     1     -10.879   7.964  69.724  1.00  0.00    -0.202 C  
HETATM   15  H   UNL     1     -10.463   6.503  67.565  1.00  0.00     0.000 HD 
HETATM   16  C   UNL     1     -10.871   9.300  70.396  1.00  0.00    -0.254 C  
HETATM   17  O   UNL     1     -10.880   9.416  71.616  1.00  0.00    -0.368 OA 
HETATM   18  C   UNL     1     -10.883  10.467  69.417  1.00  0.00    -0.287 C  
BRANCH  18  19
HETATM   19  C   UNL     1     -12.133  11.341  69.601  1.00  0.00    -0.391 C  
BRANCH  19  20
HETATM   20  C   UNL     1     -11.849  12.817  69.709  1.00  0.00    -0.380 C  
HETATM   21  C   UNL     1     -11.873  13.734  68.730  1.00  0.00    -0.398 C  
BRANCH  21  22
HETATM   22  C   UNL     1     -12.170  13.473  67.285  1.00  0.00    -0.305 C  
BRANCH  22  23
HETATM   23  C   UNL     1     -11.038  13.920  66.361  1.00  0.00    -0.309 C  
BRANCH  23  24
HETATM   24  C   UNL     1     -11.622  14.664  65.160  1.00  0.00    -0.371 C  
HETATM   25  C   UNL     1     -10.834  15.898  64.801  1.00  0.00    -0.324 C  
HETATM   26  O   UNL     1      -9.838  16.296  65.379  1.00  0.00    -0.496 OA 
HETATM   27  O   UNL     1     -11.364  16.542  63.734  1.00  0.00    -0.966 OA 
ENDBRANCH  23  24
ENDBRANCH  22  23
ENDBRANCH  21  22
ENDBRANCH  19  20
ENDBRANCH  18  19
ENDBRANCH  10  11
ENDBRANCH   6   9
ENDBRANCH   5   6
ENDBRANCH   4   5
ENDBRANCH   3   4
ENDBRANCH   2   3
TORSDOF 11
ENDMDL
MODEL      153
REMARK 921   NORMALIZED FREE ENERGY PREDICTED BY IDOCK:   -4.58 KCAL/MOL
REMARK 922        TOTAL FREE ENERGY PREDICTED BY IDOCK:   -9.35 KCAL/MOL
REMARK 923 INTER-LIGAND FREE ENERGY PREDICTED BY IDOCK:   -8.53 KCAL/MOL
REMARK 924 INTRA-LIGAND FREE ENERGY PREDICTED BY IDOCK:   -0.82 KCAL/MOL
REMARK 927      BINDING AFFINITY PREDICTED BY RF-SCORE:    0.00 PKD
ROOT
HETATM    1  C   UNL     1      -6.436  18.787  69.399  1.00  0.00    -0.285 C  
HETATM    2  C   UNL     1      -7.498  17.971  68.685  1.00  0.00    -0.291 C  
ENDROOT
BRANCH   2   3
HETATM    3  C   UNL     1      -8.055  18.698  67.460  1.00  0.00    -0.262 C  
BRANCH   3   4
HETATM    4  C   UNL     1      -9.488  19.162  67.728  1.00  0.00    -0.362 C  
BRANCH   4   5
HETATM    5  C   UNL     1     -10.522  18.079  67.415  1.00  0.00    -0.399 C  
BRANCH   5   6
HETATM    6  C   UNL     1     -10.261  17.357  66.082  1.00  0.00    -0.328 C  
HETATM    7  O   UNL     1     -10.932  18.100  65.067  1.00  0.00    -0.726 OA 
HETATM    8  H   UNL     1     -10.771  17.654  64.244  1.00  0.00     0.000 HD 
BRANCH   6   9
HETATM    9  C   UNL     1     -10.726  15.915  66.087  1.00  0.00    -0.273 C  
HETATM   10  C   UNL     1     -10.120  14.873  65.491  1.00  0.00    -0.400 C  
BRANCH  10  11
HETATM   11  C   UNL     1     -10.713  13.484  65.361  1.00  0.00    -0.308 C  
HETATM   12  C   UNL     1     -11.713  13.457  64.185  1.00  0.00    -0.419 C  
HETATM   13  O   UNL     1     -12.968  14.021  64.541  1.00  0.00    -0.586 OA 
HETATM   14  C   UNL     1     -11.868  11.998  63.813  1.00  0.00    -0.581 C  
HETATM   15  H   UNL     1     -13.584  14.004  63.818  1.00  0.00     0.000 HD 
HETATM   16  C   UNL     1     -10.492  11.480  64.090  1.00  0.00    -0.353 C  
HETATM   17  O   UNL     1     -10.079  10.435  63.601  1.00  0.00    -0.247 OA 
HETATM   18  C   UNL     1      -9.699  12.358  65.048  1.00  0.00    -0.042 C  
BRANCH  18  19
HETATM   19  C   UNL     1      -9.313  11.592  66.323  1.00  0.00    -0.227 C  
BRANCH  19  20
HETATM   20  C   UNL     1     -10.284  10.507  66.714  1.00  0.00    -0.288 C  
HETATM   21  C   UNL     1     -10.599  10.091  67.950  1.00  0.00    -0.298 C  
BRANCH  21  22
HETATM   22  C   UNL     1     -10.020  10.612  69.230  1.00  0.00    -0.215 C  
BRANCH  22  23
HETATM   23  C   UNL     1     -10.340   9.718  70.427  1.00  0.00    -0.354 C  
BRANCH  23  24
HETATM   24  C   UNL     1     -11.847   9.468  70.490  1.00  0.00    -0.246 C  
HETATM   25  C   UNL     1     -12.281   8.860  71.800  1.00  0.00    -0.359 C  
HETATM   26  O   UNL     1     -11.545   8.580  72.730  1.00  0.00    -0.312 OA 
HETATM   27  O   UNL     1     -13.619   8.648  71.839  1.00  0.00    -0.366 OA 
ENDBRANCH  23  24
ENDBRANCH  22  23
ENDBRANCH  21  22
ENDBRANCH  19  20
ENDBRANCH  18  19
ENDBRANCH  10  11
ENDBRANCH   6   9
ENDBRANCH   5   6
ENDBRANCH   4   5
ENDBRANCH   3   4
ENDBRANCH   2   3
TORSDOF 11
ENDMDL
MODEL      154
REMARK 921   NORMALIZED FREE ENERGY PREDICTED BY IDOCK:   -4.56 KCAL/MOL
REMARK 922        TOTAL FREE ENERGY PREDICTED BY IDOCK:   -9.31 KCAL/MOL
REMARK 923 INTER-LIGAND FREE ENERGY PREDICTED BY IDOCK:   -7.57 KCAL/MOL
REMARK 924 INTRA-LIGAND FREE ENERGY PREDICTED BY IDOCK:   -1.74 KCAL/MOL
REMARK 927      BINDING AFFINITY PREDICTED BY RF-SCORE:    0.00 PKD
ROOT
HETATM    1  C   UNL     1      -6.351  19.996  70.197  1.00  0.00    -0.368 C  
HETATM    2  C   UNL     1      -5.577  18.767  69.758  1.00  0.00    -0.235 C  
ENDROOT
BRANCH   2   3
HETATM    3  C   UNL     1      -6.154  18.148  68.484  1.00  0.00    -0.192 C  
BRANCH   3   4
HETATM    4  C   UNL     1      -7.660  18.405  68.409  1.00  0.00    -0.307 C  
BRANCH   4   5
HETATM    5  C   UNL     1      -8.459  17.127  68.146  1.00  0.00    -0.227 C  
BRANCH   5   6
HETATM    6  C   UNL     1      -8.471  16.713  66.664  1.00  0.00    -0.259 C  
HETATM    7  O   UNL     1      -9.138  17.748  65.947  1.00  0.00    -0.516 OA 
HETATM    8  H   UNL     1      -9.145  17.492  65.032  1.00  0.00     0.000 HD 
BRANCH   6   9
HETATM    9  C   UNL     1      -9.143  15.376  66.427  1.00  0.00    -0.350 C  
HETATM   10  C   UNL     1     -10.027  15.081  65.457  1.00  0.00    -0.390 C  
BRANCH  10  11
HETATM   11  C   UNL     1     -10.817  13.791  65.367  1.00  0.00    -0.312 C  
HETATM   12  C   UNL     1     -12.297  14.067  65.713  1.00  0.00    -0.480 C  
HETATM   13  O   UNL     1     -12.506  14.163  67.115  1.00  0.00    -0.566 OA 
HETATM   14  C   UNL     1     -13.074  12.904  65.135  1.00  0.00     0.148 C  
HETATM   15  H   UNL     1     -13.416  14.333  67.328  1.00  0.00     0.000 HD 
HETATM   16  C   UNL     1     -12.277  12.603  63.905  1.00  0.00    -0.481 C  
HETATM   17  O   UNL     1     -12.744  11.969  62.966  1.00  0.00    -0.492 OA 
HETATM   18  C   UNL     1     -10.850  13.130  63.968  1.00  0.00    -0.348 C  
BRANCH  18  19
HETATM   19  C   UNL     1      -9.825  11.990  63.871  1.00  0.00    -0.266 C  
BRANCH  19  20
HETATM   20  C   UNL     1     -10.211  10.742  64.623  1.00  0.00    -0.419 C  
HETATM   21  C   UNL     1      -9.871  10.396  65.874  1.00  0.00    -0.294 C  
BRANCH  21  22
HETATM   22  C   UNL     1      -8.996  11.185  66.799  1.00  0.00    -0.169 C  
BRANCH  22  23
HETATM   23  C   UNL     1      -9.377  11.003  68.267  1.00  0.00    -0.172 C  
BRANCH  23  24
HETATM   24  C   UNL     1     -10.805  10.462  68.362  1.00  0.00    -0.289 C  
HETATM   25  C   UNL     1     -11.753  11.436  69.014  1.00  0.00    -0.343 C  
HETATM   26  O   UNL     1     -11.456  12.541  69.435  1.00  0.00    -0.270 OA 
HETATM   27  O   UNL     1     -13.012  10.942  69.086  1.00  0.00     0.026 OA 
ENDBRANCH  23  24
ENDBRANCH  22  23
ENDBRANCH  21  22
ENDBRANCH  19  20
ENDBRANCH  18  19
ENDBRANCH  10  11
ENDBRANCH   6   9
ENDBRANCH   5   6
ENDBRANCH   4   5
ENDBRANCH   3   4
ENDBRANCH   2   3
TORSDOF 11
ENDMDL
MODEL      155
REMARK 921   NORMALIZED FREE ENERGY PREDICTED BY IDOCK:   -4.55 KCAL/MOL
REMARK 922        TOTAL FREE ENERGY PREDICTED BY IDOCK:   -9.30 KCAL/MOL
REMARK 923 INTER-LIGAND FREE ENERGY PREDICTED BY IDOCK:   -7.18 KCAL/MOL
REMARK 924 INTRA-LIGAND FREE ENERGY PREDICTED BY IDOCK:   -2.11 KCAL/MOL
REMARK 927      BINDING AFFINITY PREDICTED BY RF-SCORE:    0.00 PKD
ROOT
HETATM    1  C   UNL     1      -8.121   8.566  71.387  1.00  0.00    -0.176 C  
HETATM    2  C   UNL     1      -8.904   8.219  72.640  1.00  0.00    -0.304 C  
ENDROOT
BRANCH   2   3
HETATM    3  C   UNL     1     -10.089   7.299  72.341  1.00  0.00    -0.218 C  
BRANCH   3   4
HETATM    4  C   UNL     1     -11.404   8.007  72.674  1.00  0.00    -0.469 C  
BRANCH   4   5
HETATM    5  C   UNL     1     -12.274   8.237  71.437  1.00  0.00    -0.328 C  
BRANCH   5   6
HETATM    6  C   UNL     1     -12.271   9.699  70.956  1.00  0.00    -0.323 C  
HETATM    7  O   UNL     1     -13.560   9.960  70.409  1.00  0.00    -0.547 OA 
HETATM    8  H   UNL     1     -13.559  10.862  70.112  1.00  0.00     0.000 HD 
BRANCH   6   9
HETATM    9  C   UNL     1     -11.187   9.986  69.938  1.00  0.00    -0.327 C  
HETATM   10  C   UNL     1     -11.178  10.980  69.031  1.00  0.00    -0.320 C  
BRANCH  10  11
HETATM   11  C   UNL     1     -10.169  11.122  67.909  1.00  0.00    -0.202 C  
HETATM   12  C   UNL     1      -8.817  10.520  68.352  1.00  0.00    -0.140 C  
HETATM   13  O   UNL     1      -8.091  11.405  69.193  1.00  0.00    -0.344 OA 
HETATM   14  C   UNL     1      -8.054  10.249  67.073  1.00  0.00    -0.121 C  
HETATM   15  H   UNL     1      -7.259  11.035  69.465  1.00  0.00     0.000 HD 
HETATM   16  C   UNL     1      -9.165   9.876  66.143  1.00  0.00    -0.168 C  
HETATM   17  O   UNL     1      -8.966   9.248  65.110  1.00  0.00    -0.197 OA 
HETATM   18  C   UNL     1     -10.527  10.381  66.599  1.00  0.00    -0.279 C  
BRANCH  18  19
HETATM   19  C   UNL     1     -11.142  11.342  65.571  1.00  0.00    -0.203 C  
BRANCH  19  20
HETATM   20  C   UNL     1     -10.252  12.498  65.191  1.00  0.00    -0.299 C  
HETATM   21  C   UNL     1     -10.523  13.810  65.282  1.00  0.00    -0.376 C  
BRANCH  21  22
HETATM   22  C   UNL     1     -11.804  14.414  65.769  1.00  0.00    -0.365 C  
BRANCH  22  23
HETATM   23  C   UNL     1     -12.026  14.196  67.265  1.00  0.00    -0.449 C  
BRANCH  23  24
HETATM   24  C   UNL     1     -11.533  15.420  68.038  1.00  0.00    -0.333 C  
HETATM   25  C   UNL     1     -10.205  15.186  68.711  1.00  0.00    -0.235 C  
HETATM   26  O   UNL     1      -9.562  14.151  68.672  1.00  0.00    -0.215 OA 
HETATM   27  O   UNL     1      -9.783  16.280  69.389  1.00  0.00    -0.244 OA 
ENDBRANCH  23  24
ENDBRANCH  22  23
ENDBRANCH  21  22
ENDBRANCH  19  20
ENDBRANCH  18  19
ENDBRANCH  10  11
ENDBRANCH   6   9
ENDBRANCH   5   6
ENDBRANCH   4   5
ENDBRANCH   3   4
ENDBRANCH   2   3
TORSDOF 11
ENDMDL
MODEL      156
REMARK 921   NORMALIZED FREE ENERGY PREDICTED BY IDOCK:   -4.55 KCAL/MOL
REMARK 922        TOTAL FREE ENERGY PREDICTED BY IDOCK:   -9.29 KCAL/MOL
REMARK 923 INTER-LIGAND FREE ENERGY PREDICTED BY IDOCK:   -8.48 KCAL/MOL
REMARK 924 INTRA-LIGAND FREE ENERGY PREDICTED BY IDOCK:   -0.82 KCAL/MOL
REMARK 927      BINDING AFFINITY PREDICTED BY RF-SCORE:    0.00 PKD
ROOT
HETATM    1  C   UNL     1     -10.443  11.514  63.472  1.00  0.00    -0.486 C  
HETATM    2  C   UNL     1     -11.455  12.643  63.529  1.00  0.00    -0.557 C  
ENDROOT
BRANCH   2   3
HETATM    3  C   UNL     1     -12.518  12.408  64.603  1.00  0.00    -0.500 C  
BRANCH   3   4
HETATM    4  C   UNL     1     -12.435  13.498  65.674  1.00  0.00    -0.528 C  
BRANCH   4   5
HETATM    5  C   UNL     1     -11.544  13.096  66.850  1.00  0.00    -0.417 C  
BRANCH   5   6
HETATM    6  C   UNL     1     -11.967  13.742  68.181  1.00  0.00    -0.358 C  
HETATM    7  O   UNL     1     -11.250  14.968  68.296  1.00  0.00    -0.273 OA 
HETATM    8  H   UNL     1     -11.512  15.366  69.118  1.00  0.00     0.000 HD 
BRANCH   6   9
HETATM    9  C   UNL     1     -11.707  12.853  69.380  1.00  0.00    -0.382 C  
HETATM   10  C   UNL     1     -11.958  11.535  69.474  1.00  0.00    -0.402 C  
BRANCH  10  11
HETATM   11  C   UNL     1     -11.859  10.722  70.749  1.00  0.00    -0.443 C  
HETATM   12  C   UNL     1     -13.230  10.709  71.461  1.00  0.00    -0.360 C  
HETATM   13  O   UNL     1     -13.468  11.911  72.179  1.00  0.00    -0.522 OA 
HETATM   14  C   UNL     1     -13.190   9.523  72.400  1.00  0.00    -0.451 C  
HETATM   15  H   UNL     1     -14.311  11.903  72.616  1.00  0.00     0.000 HD 
HETATM   16  C   UNL     1     -12.355   8.559  71.618  1.00  0.00    -0.326 C  
HETATM   17  O   UNL     1     -12.363   7.355  71.848  1.00  0.00    -0.305 OA 
HETATM   18  C   UNL     1     -11.494   9.231  70.557  1.00  0.00    -0.296 C  
BRANCH  18  19
HETATM   19  C   UNL     1      -9.998   8.990  70.814  1.00  0.00    -0.307 C  
BRANCH  19  20
HETATM   20  C   UNL     1      -9.671   8.554  72.219  1.00  0.00    -0.380 C  
HETATM   21  C   UNL     1      -8.931   7.502  72.602  1.00  0.00    -0.188 C  
BRANCH  21  22
HETATM   22  C   UNL     1      -8.281   6.503  71.695  1.00  0.00    -0.112 C  
BRANCH  22  23
HETATM   23  C   UNL     1      -9.109   5.229  71.532  1.00  0.00    -0.165 C  
BRANCH  23  24
HETATM   24  C   UNL     1     -10.145   5.430  70.426  1.00  0.00    -0.314 C  
HETATM   25  C   UNL     1      -9.568   5.232  69.047  1.00  0.00    -0.144 C  
HETATM   26  O   UNL     1      -8.410   4.946  68.797  1.00  0.00    -0.083 OA 
HETATM   27  O   UNL     1     -10.500   5.412  68.080  1.00  0.00    -0.178 OA 
ENDBRANCH  23  24
ENDBRANCH  22  23
ENDBRANCH  21  22
ENDBRANCH  19  20
ENDBRANCH  18  19
ENDBRANCH  10  11
ENDBRANCH   6   9
ENDBRANCH   5   6
ENDBRANCH   4   5
ENDBRANCH   3   4
ENDBRANCH   2   3
TORSDOF 11
ENDMDL
MODEL      157
REMARK 921   NORMALIZED FREE ENERGY PREDICTED BY IDOCK:   -4.55 KCAL/MOL
REMARK 922        TOTAL FREE ENERGY PREDICTED BY IDOCK:   -9.28 KCAL/MOL
REMARK 923 INTER-LIGAND FREE ENERGY PREDICTED BY IDOCK:   -7.10 KCAL/MOL
REMARK 924 INTRA-LIGAND FREE ENERGY PREDICTED BY IDOCK:   -2.18 KCAL/MOL
REMARK 927      BINDING AFFINITY PREDICTED BY RF-SCORE:    0.00 PKD
ROOT
HETATM    1  C   UNL     1      -8.712  11.585  68.809  1.00  0.00    -0.048 C  
HETATM    2  C   UNL     1      -8.525  11.811  67.321  1.00  0.00    -0.160 C  
ENDROOT
BRANCH   2   3
HETATM    3  C   UNL     1      -9.504  10.985  66.485  1.00  0.00    -0.211 C  
BRANCH   3   4
HETATM    4  C   UNL     1     -10.944  11.375  66.822  1.00  0.00    -0.347 C  
BRANCH   4   5
HETATM    5  C   UNL     1     -11.534  12.363  65.814  1.00  0.00    -0.416 C  
BRANCH   5   6
HETATM    6  C   UNL     1     -11.782  13.761  66.408  1.00  0.00    -0.379 C  
HETATM    7  O   UNL     1     -10.657  14.565  66.067  1.00  0.00    -0.290 OA 
HETATM    8  H   UNL     1     -10.810  15.427  66.433  1.00  0.00     0.000 HD 
BRANCH   6   9
HETATM    9  C   UNL     1     -11.991  13.739  67.908  1.00  0.00    -0.391 C  
HETATM   10  C   UNL     1     -12.163  14.804  68.712  1.00  0.00    -0.135 C  
BRANCH  10  11
HETATM   11  C   UNL     1     -12.181  14.754  70.226  1.00  0.00    -0.394 C  
HETATM   12  C   UNL     1     -11.112  15.716  70.788  1.00  0.00    -0.352 C  
HETATM   13  O   UNL     1      -9.808  15.155  70.728  1.00  0.00    -0.200 OA 
HETATM   14  C   UNL     1     -11.515  15.982  72.222  1.00  0.00    -0.308 C  
HETATM   15  H   UNL     1      -9.150  15.747  71.074  1.00  0.00     0.000 HD 
HETATM   16  C   UNL     1     -13.007  15.947  72.117  1.00  0.00    -0.398 C  
HETATM   17  O   UNL     1     -13.731  16.457  72.964  1.00  0.00    -0.225 OA 
HETATM   18  C   UNL     1     -13.507  15.200  70.888  1.00  0.00    -0.432 C  
BRANCH  18  19
HETATM   19  C   UNL     1     -14.365  13.987  71.280  1.00  0.00     0.144 C  
BRANCH  19  20
HETATM   20  C   UNL     1     -13.771  13.132  72.370  1.00  0.00    -0.640 C  
HETATM   21  C   UNL     1     -13.072  11.994  72.235  1.00  0.00    -0.162 C  
BRANCH  21  22
HETATM   22  C   UNL     1     -12.750  11.306  70.945  1.00  0.00    -0.412 C  
BRANCH  22  23
HETATM   23  C   UNL     1     -12.580   9.796  71.110  1.00  0.00    -0.438 C  
BRANCH  23  24
HETATM   24  C   UNL     1     -11.401   9.318  70.262  1.00  0.00    -0.238 C  
HETATM   25  C   UNL     1     -10.335   8.636  71.080  1.00  0.00    -0.230 C  
HETATM   26  O   UNL     1     -10.368   8.465  72.287  1.00  0.00    -0.287 OA 
HETATM   27  O   UNL     1      -9.300   8.217  70.313  1.00  0.00    -0.157 OA 
ENDBRANCH  23  24
ENDBRANCH  22  23
ENDBRANCH  21  22
ENDBRANCH  19  20
ENDBRANCH  18  19
ENDBRANCH  10  11
ENDBRANCH   6   9
ENDBRANCH   5   6
ENDBRANCH   4   5
ENDBRANCH   3   4
ENDBRANCH   2   3
TORSDOF 11
ENDMDL
MODEL      158
REMARK 921   NORMALIZED FREE ENERGY PREDICTED BY IDOCK:   -4.54 KCAL/MOL
REMARK 922        TOTAL FREE ENERGY PREDICTED BY IDOCK:   -9.27 KCAL/MOL
REMARK 923 INTER-LIGAND FREE ENERGY PREDICTED BY IDOCK:   -7.52 KCAL/MOL
REMARK 924 INTRA-LIGAND FREE ENERGY PREDICTED BY IDOCK:   -1.75 KCAL/MOL
REMARK 927      BINDING AFFINITY PREDICTED BY RF-SCORE:    0.00 PKD
ROOT
HETATM    1  C   UNL     1      -7.650  13.447  67.806  1.00  0.00    -0.157 C  
HETATM    2  C   UNL     1      -7.349  14.932  67.872  1.00  0.00    -0.159 C  
ENDROOT
BRANCH   2   3
HETATM    3  C   UNL     1      -8.025  15.604  69.068  1.00  0.00    -0.208 C  
BRANCH   3   4
HETATM    4  C   UNL     1      -7.865  17.123  68.981  1.00  0.00    -0.151 C  
BRANCH   4   5
HETATM    5  C   UNL     1      -8.436  17.698  67.684  1.00  0.00    -0.224 C  
BRANCH   5   6
HETATM    6  C   UNL     1      -9.944  17.995  67.764  1.00  0.00    -0.326 C  
HETATM    7  O   UNL     1     -10.228  18.351  69.115  1.00  0.00    -0.458 OA 
HETATM    8  H   UNL     1     -11.158  18.534  69.164  1.00  0.00     0.000 HD 
BRANCH   6   9
HETATM    9  C   UNL     1     -10.803  16.827  67.325  1.00  0.00    -0.137 C  
HETATM   10  C   UNL     1     -10.468  15.871  66.440  1.00  0.00    -0.311 C  
BRANCH  10  11
HETATM   11  C   UNL     1     -11.420  14.829  65.887  1.00  0.00    -0.319 C  
HETATM   12  C   UNL     1     -11.303  14.788  64.348  1.00  0.00    -0.213 C  
HETATM   13  O   UNL     1     -12.017  15.850  63.731  1.00  0.00    -1.238 OA 
HETATM   14  C   UNL     1     -11.870  13.448  63.931  1.00  0.00    -0.492 C  
HETATM   15  H   UNL     1     -11.944  15.824  62.784  1.00  0.00     0.000 HD 
HETATM   16  C   UNL     1     -11.460  12.586  65.083  1.00  0.00    -0.328 C  
HETATM   17  O   UNL     1     -11.408  11.365  64.996  1.00  0.00    -0.161 OA 
HETATM   18  C   UNL     1     -11.153  13.377  66.348  1.00  0.00    -0.312 C  
BRANCH  18  19
HETATM   19  C   UNL     1     -12.091  12.980  67.498  1.00  0.00    -0.279 C  
BRANCH  19  20
HETATM   20  C   UNL     1     -11.659  13.480  68.853  1.00  0.00    -0.364 C  
HETATM   21  C   UNL     1     -11.590  12.790  70.002  1.00  0.00    -0.194 C  
BRANCH  21  22
HETATM   22  C   UNL     1     -11.962  11.351  70.189  1.00  0.00    -0.460 C  
BRANCH  22  23
HETATM   23  C   UNL     1     -11.099  10.407  69.352  1.00  0.00    -0.304 C  
BRANCH  23  24
HETATM   24  C   UNL     1     -10.818   9.131  70.146  1.00  0.00    -0.269 C  
HETATM   25  C   UNL     1      -9.595   8.399  69.656  1.00  0.00    -0.163 C  
HETATM   26  O   UNL     1      -8.882   8.749  68.732  1.00  0.00    -0.133 OA 
HETATM   27  O   UNL     1      -9.361   7.274  70.373  1.00  0.00    -0.158 OA 
ENDBRANCH  23  24
ENDBRANCH  22  23
ENDBRANCH  21  22
ENDBRANCH  19  20
ENDBRANCH  18  19
ENDBRANCH  10  11
ENDBRANCH   6   9
ENDBRANCH   5   6
ENDBRANCH   4   5
ENDBRANCH   3   4
ENDBRANCH   2   3
TORSDOF 11
ENDMDL
MODEL      159
REMARK 921   NORMALIZED FREE ENERGY PREDICTED BY IDOCK:   -4.54 KCAL/MOL
REMARK 922        TOTAL FREE ENERGY PREDICTED BY IDOCK:   -9.27 KCAL/MOL
REMARK 923 INTER-LIGAND FREE ENERGY PREDICTED BY IDOCK:   -7.71 KCAL/MOL
REMARK 924 INTRA-LIGAND FREE ENERGY PREDICTED BY IDOCK:   -1.56 KCAL/MOL
REMARK 927      BINDING AFFINITY PREDICTED BY RF-SCORE:    0.00 PKD
ROOT
HETATM    1  C   UNL     1      -9.954   5.065  68.883  1.00  0.00    -0.236 C  
HETATM    2  C   UNL     1     -11.054   6.019  68.457  1.00  0.00    -0.279 C  
ENDROOT
BRANCH   2   3
HETATM    3  C   UNL     1     -10.716   6.741  67.152  1.00  0.00    -0.441 C  
BRANCH   3   4
HETATM    4  C   UNL     1     -10.610   8.247  67.395  1.00  0.00    -0.324 C  
BRANCH   4   5
HETATM    5  C   UNL     1      -9.228   8.663  67.901  1.00  0.00    -0.148 C  
BRANCH   5   6
HETATM    6  C   UNL     1      -9.266   9.340  69.283  1.00  0.00    -0.152 C  
HETATM    7  O   UNL     1      -8.903   8.350  70.242  1.00  0.00    -0.136 OA 
HETATM    8  H   UNL     1      -8.926   8.767  71.094  1.00  0.00     0.000 HD 
BRANCH   6   9
HETATM    9  C   UNL     1     -10.618   9.937  69.615  1.00  0.00    -0.273 C  
HETATM   10  C   UNL     1     -10.940  11.243  69.625  1.00  0.00    -0.214 C  
BRANCH  10  11
HETATM   11  C   UNL     1     -12.246  11.811  70.143  1.00  0.00    -0.342 C  
HETATM   12  C   UNL     1     -12.833  10.864  71.212  1.00  0.00    -0.433 C  
HETATM   13  O   UNL     1     -13.485   9.743  70.630  1.00  0.00    -0.619 OA 
HETATM   14  C   UNL     1     -13.813  11.701  72.005  1.00  0.00     0.259 C  
HETATM   15  H   UNL     1     -13.846   9.161  71.289  1.00  0.00     0.000 HD 
HETATM   16  C   UNL     1     -13.143  13.038  71.978  1.00  0.00    -0.379 C  
HETATM   17  O   UNL     1     -13.413  13.919  72.787  1.00  0.00    -0.600 OA 
HETATM   18  C   UNL     1     -12.140  13.187  70.842  1.00  0.00    -0.209 C  
BRANCH  18  19
HETATM   19  C   UNL     1     -12.536  14.324  69.888  1.00  0.00    -0.315 C  
BRANCH  19  20
HETATM   20  C   UNL     1     -11.399  14.861  69.056  1.00  0.00    -0.310 C  
HETATM   21  C   UNL     1     -11.258  14.806  67.723  1.00  0.00    -0.323 C  
BRANCH  21  22
HETATM   22  C   UNL     1     -12.209  14.163  66.761  1.00  0.00    -0.429 C  
BRANCH  22  23
HETATM   23  C   UNL     1     -11.632  12.903  66.118  1.00  0.00    -0.423 C  
BRANCH  23  24
HETATM   24  C   UNL     1     -12.605  12.376  65.062  1.00  0.00    -0.305 C  
HETATM   25  C   UNL     1     -11.918  11.994  63.777  1.00  0.00    -0.490 C  
HETATM   26  O   UNL     1     -10.722  12.081  63.559  1.00  0.00    -0.397 OA 
HETATM   27  O   UNL     1     -12.795  11.528  62.855  1.00  0.00    -0.195 OA 
ENDBRANCH  23  24
ENDBRANCH  22  23
ENDBRANCH  21  22
ENDBRANCH  19  20
ENDBRANCH  18  19
ENDBRANCH  10  11
ENDBRANCH   6   9
ENDBRANCH   5   6
ENDBRANCH   4   5
ENDBRANCH   3   4
ENDBRANCH   2   3
TORSDOF 11
ENDMDL
MODEL      160
REMARK 921   NORMALIZED FREE ENERGY PREDICTED BY IDOCK:   -4.53 KCAL/MOL
REMARK 922        TOTAL FREE ENERGY PREDICTED BY IDOCK:   -9.26 KCAL/MOL
REMARK 923 INTER-LIGAND FREE ENERGY PREDICTED BY IDOCK:   -7.12 KCAL/MOL
REMARK 924 INTRA-LIGAND FREE ENERGY PREDICTED BY IDOCK:   -2.14 KCAL/MOL
REMARK 927      BINDING AFFINITY PREDICTED BY RF-SCORE:    0.00 PKD
ROOT
HETATM    1  C   UNL     1     -11.981  13.675  68.702  1.00  0.00    -0.395 C  
HETATM    2  C   UNL     1     -11.094  13.655  67.471  1.00  0.00    -0.296 C  
ENDROOT
BRANCH   2   3
HETATM    3  C   UNL     1     -11.718  14.418  66.301  1.00  0.00    -0.394 C  
BRANCH   3   4
HETATM    4  C   UNL     1     -12.480  13.455  65.389  1.00  0.00    -0.543 C  
BRANCH   4   5
HETATM    5  C   UNL     1     -12.039  13.560  63.928  1.00  0.00    -0.493 C  
BRANCH   5   6
HETATM    6  C   UNL     1     -11.429  12.256  63.383  1.00  0.00    -0.430 C  
HETATM    7  O   UNL     1     -12.509  11.460  62.902  1.00  0.00    -0.949 OA 
HETATM    8  H   UNL     1     -12.133  10.656  62.566  1.00  0.00     0.000 HD 
BRANCH   6   9
HETATM    9  C   UNL     1     -10.624  11.499  64.419  1.00  0.00    -0.392 C  
HETATM   10  C   UNL     1      -9.877  10.400  64.211  1.00  0.00    -0.388 C  
BRANCH  10  11
HETATM   11  C   UNL     1      -9.239   9.565  65.304  1.00  0.00    -0.307 C  
HETATM   12  C   UNL     1      -7.990   8.850  64.744  1.00  0.00    -0.129 C  
HETATM   13  O   UNL     1      -8.332   7.699  63.985  1.00  0.00    -0.353 OA 
HETATM   14  C   UNL     1      -7.163   8.469  65.953  1.00  0.00    -0.076 C  
HETATM   15  H   UNL     1      -7.563   7.259  63.641  1.00  0.00     0.000 HD 
HETATM   16  C   UNL     1      -7.447   9.613  66.874  1.00  0.00    -0.091 C  
HETATM   17  O   UNL     1      -6.716   9.886  67.819  1.00  0.00    -0.070 OA 
HETATM   18  C   UNL     1      -8.730  10.358  66.531  1.00  0.00    -0.143 C  
BRANCH  18  19
HETATM   19  C   UNL     1      -9.740  10.296  67.687  1.00  0.00    -0.189 C  
BRANCH  19  20
HETATM   20  C   UNL     1     -10.689   9.127  67.621  1.00  0.00    -0.257 C  
HETATM   21  C   UNL     1     -10.535   7.910  68.167  1.00  0.00    -0.227 C  
BRANCH  21  22
HETATM   22  C   UNL     1      -9.350   7.441  68.954  1.00  0.00    -0.145 C  
BRANCH  22  23
HETATM   23  C   UNL     1      -9.470   7.756  70.444  1.00  0.00    -0.164 C  
BRANCH  23  24
HETATM   24  C   UNL     1      -8.616   8.979  70.779  1.00  0.00    -0.259 C  
HETATM   25  C   UNL     1      -7.228   8.610  71.237  1.00  0.00    -0.089 C  
HETATM   26  O   UNL     1      -6.794   7.476  71.345  1.00  0.00    -0.049 OA 
HETATM   27  O   UNL     1      -6.485   9.706  71.527  1.00  0.00    -0.291 OA 
ENDBRANCH  23  24
ENDBRANCH  22  23
ENDBRANCH  21  22
ENDBRANCH  19  20
ENDBRANCH  18  19
ENDBRANCH  10  11
ENDBRANCH   6   9
ENDBRANCH   5   6
ENDBRANCH   4   5
ENDBRANCH   3   4
ENDBRANCH   2   3
TORSDOF 11
ENDMDL
MODEL      161
REMARK 921   NORMALIZED FREE ENERGY PREDICTED BY IDOCK:   -4.53 KCAL/MOL
REMARK 922        TOTAL FREE ENERGY PREDICTED BY IDOCK:   -9.26 KCAL/MOL
REMARK 923 INTER-LIGAND FREE ENERGY PREDICTED BY IDOCK:   -7.18 KCAL/MOL
REMARK 924 INTRA-LIGAND FREE ENERGY PREDICTED BY IDOCK:   -2.08 KCAL/MOL
REMARK 927      BINDING AFFINITY PREDICTED BY RF-SCORE:    0.00 PKD
ROOT
HETATM    1  C   UNL     1      -8.282  10.203  64.394  1.00  0.00    -0.165 C  
HETATM    2  C   UNL     1      -9.752  10.129  64.761  1.00  0.00    -0.389 C  
ENDROOT
BRANCH   2   3
HETATM    3  C   UNL     1     -10.334  11.506  65.084  1.00  0.00    -0.329 C  
BRANCH   3   4
HETATM    4  C   UNL     1     -11.094  11.460  66.411  1.00  0.00    -0.301 C  
BRANCH   4   5
HETATM    5  C   UNL     1     -10.434  10.533  67.432  1.00  0.00    -0.291 C  
BRANCH   5   6
HETATM    6  C   UNL     1      -9.856  11.281  68.646  1.00  0.00    -0.202 C  
HETATM    7  O   UNL     1     -10.709  11.002  69.753  1.00  0.00    -0.417 OA 
HETATM    8  H   UNL     1     -10.352  11.463  70.502  1.00  0.00     0.000 HD 
BRANCH   6   9
HETATM    9  C   UNL     1      -9.739  12.775  68.423  1.00  0.00    -0.186 C  
HETATM   10  C   UNL     1      -8.685  13.430  67.905  1.00  0.00    -0.187 C  
BRANCH  10  11
HETATM   11  C   UNL     1      -8.532  14.938  67.872  1.00  0.00    -0.154 C  
HETATM   12  C   UNL     1      -7.103  15.322  68.315  1.00  0.00    -0.115 C  
HETATM   13  O   UNL     1      -6.956  15.282  69.728  1.00  0.00    -0.184 OA 
HETATM   14  C   UNL     1      -6.878  16.724  67.793  1.00  0.00    -0.156 C  
HETATM   15  H   UNL     1      -6.077  15.519  70.001  1.00  0.00     0.000 HD 
HETATM   16  C   UNL     1      -7.652  16.688  66.514  1.00  0.00    -0.292 C  
HETATM   17  O   UNL     1      -7.454  17.490  65.609  1.00  0.00    -0.462 OA 
HETATM   18  C   UNL     1      -8.707  15.590  66.480  1.00  0.00    -0.340 C  
BRANCH  18  19
HETATM   19  C   UNL     1     -10.119  16.174  66.317  1.00  0.00    -0.337 C  
BRANCH  19  20
HETATM   20  C   UNL     1     -10.700  16.758  67.579  1.00  0.00    -0.275 C  
HETATM   21  C   UNL     1     -10.889  18.053  67.876  1.00  0.00    -0.227 C  
BRANCH  21  22
HETATM   22  C   UNL     1     -10.533  19.218  67.004  1.00  0.00    -0.556 C  
BRANCH  22  23
HETATM   23  C   UNL     1      -9.601  20.209  67.700  1.00  0.00    -0.534 C  
BRANCH  23  24
HETATM   24  C   UNL     1      -8.362  20.442  66.833  1.00  0.00    -0.313 C  
HETATM   25  C   UNL     1      -7.079  20.359  67.618  1.00  0.00    -0.307 C  
HETATM   26  O   UNL     1      -6.992  20.135  68.813  1.00  0.00    -0.292 OA 
HETATM   27  O   UNL     1      -5.994  20.564  66.834  1.00  0.00    -0.173 OA 
ENDBRANCH  23  24
ENDBRANCH  22  23
ENDBRANCH  21  22
ENDBRANCH  19  20
ENDBRANCH  18  19
ENDBRANCH  10  11
ENDBRANCH   6   9
ENDBRANCH   5   6
ENDBRANCH   4   5
ENDBRANCH   3   4
ENDBRANCH   2   3
TORSDOF 11
ENDMDL
MODEL      162
REMARK 921   NORMALIZED FREE ENERGY PREDICTED BY IDOCK:   -4.53 KCAL/MOL
REMARK 922        TOTAL FREE ENERGY PREDICTED BY IDOCK:   -9.25 KCAL/MOL
REMARK 923 INTER-LIGAND FREE ENERGY PREDICTED BY IDOCK:   -7.19 KCAL/MOL
REMARK 924 INTRA-LIGAND FREE ENERGY PREDICTED BY IDOCK:   -2.06 KCAL/MOL
REMARK 927      BINDING AFFINITY PREDICTED BY RF-SCORE:    0.00 PKD
ROOT
HETATM    1  C   UNL     1      -8.001   7.034  72.759  1.00  0.00    -0.110 C  
HETATM    2  C   UNL     1      -9.097   8.049  73.024  1.00  0.00    -0.331 C  
ENDROOT
BRANCH   2   3
HETATM    3  C   UNL     1     -10.361   7.396  73.587  1.00  0.00    -0.367 C  
BRANCH   3   4
HETATM    4  C   UNL     1     -11.532   7.596  72.622  1.00  0.00    -0.403 C  
BRANCH   4   5
HETATM    5  C   UNL     1     -11.790   6.366  71.751  1.00  0.00    -0.374 C  
BRANCH   5   6
HETATM    6  C   UNL     1     -11.258   6.517  70.315  1.00  0.00    -0.374 C  
HETATM    7  O   UNL     1     -10.025   5.806  70.250  1.00  0.00    -0.178 OA 
HETATM    8  H   UNL     1      -9.697   5.899  69.364  1.00  0.00     0.000 HD 
BRANCH   6   9
HETATM    9  C   UNL     1     -11.067   7.962  69.902  1.00  0.00    -0.123 C  
HETATM   10  C   UNL     1      -9.964   8.503  69.355  1.00  0.00    -0.194 C  
BRANCH  10  11
HETATM   11  C   UNL     1      -9.744   9.985  69.130  1.00  0.00    -0.217 C  
HETATM   12  C   UNL     1      -8.230  10.285  69.100  1.00  0.00    -0.152 C  
HETATM   13  O   UNL     1      -7.673  10.343  70.407  1.00  0.00    -0.442 OA 
HETATM   14  C   UNL     1      -8.091  11.619  68.400  1.00  0.00    -0.153 C  
HETATM   15  H   UNL     1      -6.741  10.527  70.388  1.00  0.00     0.000 HD 
HETATM   16  C   UNL     1      -9.211  11.546  67.410  1.00  0.00    -0.166 C  
HETATM   17  O   UNL     1      -9.245  12.257  66.412  1.00  0.00    -0.227 OA 
HETATM   18  C   UNL     1     -10.287  10.540  67.791  1.00  0.00    -0.248 C  
BRANCH  18  19
HETATM   19  C   UNL     1     -11.650  11.223  67.988  1.00  0.00    -0.343 C  
BRANCH  19  20
HETATM   20  C   UNL     1     -11.793  11.959  69.295  1.00  0.00    -0.379 C  
HETATM   21  C   UNL     1     -11.847  13.285  69.492  1.00  0.00    -0.388 C  
BRANCH  21  22
HETATM   22  C   UNL     1     -11.749  14.338  68.431  1.00  0.00    -0.373 C  
BRANCH  22  23
HETATM   23  C   UNL     1     -11.830  15.754  68.998  1.00  0.00    -0.367 C  
BRANCH  23  24
HETATM   24  C   UNL     1     -10.421  16.263  69.305  1.00  0.00    -0.285 C  
HETATM   25  C   UNL     1     -10.011  17.411  68.418  1.00  0.00    -0.329 C  
HETATM   26  O   UNL     1     -10.695  17.907  67.539  1.00  0.00    -0.389 OA 
HETATM   27  O   UNL     1      -8.762  17.850  68.706  1.00  0.00    -0.279 OA 
ENDBRANCH  23  24
ENDBRANCH  22  23
ENDBRANCH  21  22
ENDBRANCH  19  20
ENDBRANCH  18  19
ENDBRANCH  10  11
ENDBRANCH   6   9
ENDBRANCH   5   6
ENDBRANCH   4   5
ENDBRANCH   3   4
ENDBRANCH   2   3
TORSDOF 11
ENDMDL
MODEL      163
REMARK 921   NORMALIZED FREE ENERGY PREDICTED BY IDOCK:   -4.52 KCAL/MOL
REMARK 922        TOTAL FREE ENERGY PREDICTED BY IDOCK:   -9.24 KCAL/MOL
REMARK 923 INTER-LIGAND FREE ENERGY PREDICTED BY IDOCK:   -8.28 KCAL/MOL
REMARK 924 INTRA-LIGAND FREE ENERGY PREDICTED BY IDOCK:   -0.95 KCAL/MOL
REMARK 927      BINDING AFFINITY PREDICTED BY RF-SCORE:    0.00 PKD
ROOT
HETATM    1  C   UNL     1      -9.601   4.309  70.327  1.00  0.00    -0.269 C  
HETATM    2  C   UNL     1      -9.931   4.485  71.798  1.00  0.00    -0.264 C  
ENDROOT
BRANCH   2   3
HETATM    3  C   UNL     1     -10.908   5.638  72.034  1.00  0.00    -0.300 C  
BRANCH   3   4
HETATM    4  C   UNL     1     -10.730   6.200  73.446  1.00  0.00    -0.280 C  
BRANCH   4   5
HETATM    5  C   UNL     1      -9.543   7.158  73.549  1.00  0.00    -0.266 C  
BRANCH   5   6
HETATM    6  C   UNL     1      -9.368   8.046  72.304  1.00  0.00    -0.197 C  
HETATM    7  O   UNL     1      -8.161   8.781  72.482  1.00  0.00    -0.381 OA 
HETATM    8  H   UNL     1      -8.053   9.328  71.713  1.00  0.00     0.000 HD 
BRANCH   6   9
HETATM    9  C   UNL     1     -10.538   8.981  72.074  1.00  0.00    -0.321 C  
HETATM   10  C   UNL     1     -11.059   9.341  70.888  1.00  0.00    -0.374 C  
BRANCH  10  11
HETATM   11  C   UNL     1     -12.103  10.421  70.690  1.00  0.00    -0.443 C  
HETATM   12  C   UNL     1     -12.793  10.725  72.038  1.00  0.00    -0.252 C  
HETATM   13  O   UNL     1     -13.777   9.753  72.363  1.00  0.00    -0.606 OA 
HETATM   14  C   UNL     1     -13.423  12.091  71.875  1.00  0.00    -0.305 C  
HETATM   15  H   UNL     1     -14.201   9.941  73.192  1.00  0.00     0.000 HD 
HETATM   16  C   UNL     1     -12.433  12.764  70.977  1.00  0.00    -0.277 C  
HETATM   17  O   UNL     1     -12.369  13.984  70.876  1.00  0.00    -0.331 OA 
HETATM   18  C   UNL     1     -11.561  11.785  70.202  1.00  0.00    -0.281 C  
BRANCH  18  19
HETATM   19  C   UNL     1     -11.751  11.945  68.686  1.00  0.00    -0.380 C  
BRANCH  19  20
HETATM   20  C   UNL     1     -10.476  12.205  67.924  1.00  0.00    -0.224 C  
HETATM   21  C   UNL     1     -10.149  11.775  66.696  1.00  0.00    -0.231 C  
BRANCH  21  22
HETATM   22  C   UNL     1     -10.991  10.906  65.813  1.00  0.00    -0.045 C  
BRANCH  22  23
HETATM   23  C   UNL     1     -10.722  11.141  64.327  1.00  0.00    -0.403 C  
BRANCH  23  24
HETATM   24  C   UNL     1     -11.911  11.872  63.702  1.00  0.00    -0.573 C  
HETATM   25  C   UNL     1     -11.790  13.371  63.801  1.00  0.00    -0.431 C  
HETATM   26  O   UNL     1     -10.865  13.975  64.317  1.00  0.00    -0.313 OA 
HETATM   27  O   UNL     1     -12.850  14.001  63.240  1.00  0.00    -0.538 OA 
ENDBRANCH  23  24
ENDBRANCH  22  23
ENDBRANCH  21  22
ENDBRANCH  19  20
ENDBRANCH  18  19
ENDBRANCH  10  11
ENDBRANCH   6   9
ENDBRANCH   5   6
ENDBRANCH   4   5
ENDBRANCH   3   4
ENDBRANCH   2   3
TORSDOF 11
ENDMDL
MODEL      164
REMARK 921   NORMALIZED FREE ENERGY PREDICTED BY IDOCK:   -4.51 KCAL/MOL
REMARK 922        TOTAL FREE ENERGY PREDICTED BY IDOCK:   -9.22 KCAL/MOL
REMARK 923 INTER-LIGAND FREE ENERGY PREDICTED BY IDOCK:   -7.87 KCAL/MOL
REMARK 924 INTRA-LIGAND FREE ENERGY PREDICTED BY IDOCK:   -1.35 KCAL/MOL
REMARK 927      BINDING AFFINITY PREDICTED BY RF-SCORE:    0.00 PKD
ROOT
HETATM    1  C   UNL     1     -11.841   8.599  71.827  1.00  0.00    -0.404 C  
HETATM    2  C   UNL     1     -13.076   9.395  72.205  1.00  0.00    -0.509 C  
ENDROOT
BRANCH   2   3
HETATM    3  C   UNL     1     -13.212  10.674  71.378  1.00  0.00    -0.420 C  
BRANCH   3   4
HETATM    4  C   UNL     1     -12.733  11.880  72.188  1.00  0.00     0.086 C  
BRANCH   4   5
HETATM    5  C   UNL     1     -13.477  13.165  71.821  1.00  0.00    -0.420 C  
BRANCH   5   6
HETATM    6  C   UNL     1     -12.540  14.357  71.562  1.00  0.00    -0.350 C  
HETATM    7  O   UNL     1     -13.340  15.535  71.612  1.00  0.00    -0.454 OA 
HETATM    8  H   UNL     1     -12.761  16.271  71.452  1.00  0.00     0.000 HD 
BRANCH   6   9
HETATM    9  C   UNL     1     -11.809  14.260  70.238  1.00  0.00    -0.377 C  
HETATM   10  C   UNL     1     -11.908  13.269  69.335  1.00  0.00    -0.386 C  
BRANCH  10  11
HETATM   11  C   UNL     1     -11.024  13.115  68.115  1.00  0.00    -0.275 C  
HETATM   12  C   UNL     1      -9.596  12.727  68.557  1.00  0.00    -0.110 C  
HETATM   13  O   UNL     1      -8.859  13.850  69.020  1.00  0.00    -0.377 OA 
HETATM   14  C   UNL     1      -8.940  12.123  67.335  1.00  0.00    -0.180 C  
HETATM   15  H   UNL     1      -7.980  13.611  69.292  1.00  0.00     0.000 HD 
HETATM   16  C   UNL     1     -10.104  11.447  66.683  1.00  0.00    -0.212 C  
HETATM   17  O   UNL     1      -9.959  10.550  65.860  1.00  0.00    -0.229 OA 
HETATM   18  C   UNL     1     -11.450  12.006  67.123  1.00  0.00    -0.401 C  
BRANCH  18  19
HETATM   19  C   UNL     1     -12.228  12.595  65.936  1.00  0.00    -0.375 C  
BRANCH  19  20
HETATM   20  C   UNL     1     -11.409  12.771  64.683  1.00  0.00    -0.362 C  
HETATM   21  C   UNL     1     -10.934  13.914  64.164  1.00  0.00    -0.084 C  
BRANCH  21  22
HETATM   22  C   UNL     1     -11.141  15.289  64.721  1.00  0.00    -0.407 C  
BRANCH  22  23
HETATM   23  C   UNL     1     -10.084  15.670  65.755  1.00  0.00    -0.394 C  
BRANCH  23  24
HETATM   24  C   UNL     1     -10.279  17.128  66.172  1.00  0.00    -0.343 C  
HETATM   25  C   UNL     1     -10.077  17.342  67.651  1.00  0.00    -0.313 C  
HETATM   26  O   UNL     1      -9.792  16.476  68.460  1.00  0.00    -0.226 OA 
HETATM   27  O   UNL     1     -10.252  18.639  68.001  1.00  0.00    -0.352 OA 
ENDBRANCH  23  24
ENDBRANCH  22  23
ENDBRANCH  21  22
ENDBRANCH  19  20
ENDBRANCH  18  19
ENDBRANCH  10  11
ENDBRANCH   6   9
ENDBRANCH   5   6
ENDBRANCH   4   5
ENDBRANCH   3   4
ENDBRANCH   2   3
TORSDOF 11
ENDMDL
MODEL      165
REMARK 921   NORMALIZED FREE ENERGY PREDICTED BY IDOCK:   -4.51 KCAL/MOL
REMARK 922        TOTAL FREE ENERGY PREDICTED BY IDOCK:   -9.22 KCAL/MOL
REMARK 923 INTER-LIGAND FREE ENERGY PREDICTED BY IDOCK:   -7.49 KCAL/MOL
REMARK 924 INTRA-LIGAND FREE ENERGY PREDICTED BY IDOCK:   -1.73 KCAL/MOL
REMARK 927      BINDING AFFINITY PREDICTED BY RF-SCORE:    0.00 PKD
ROOT
HETATM    1  C   UNL     1      -7.484   9.208  62.584  1.00  0.00    -0.097 C  
HETATM    2  C   UNL     1      -8.381  10.406  62.331  1.00  0.00    -0.214 C  
ENDROOT
BRANCH   2   3
HETATM    3  C   UNL     1      -9.571  10.445  63.291  1.00  0.00    -0.353 C  
BRANCH   3   4
HETATM    4  C   UNL     1      -9.090  10.302  64.735  1.00  0.00    -0.256 C  
BRANCH   4   5
HETATM    5  C   UNL     1     -10.099   9.569  65.620  1.00  0.00    -0.157 C  
BRANCH   5   6
HETATM    6  C   UNL     1      -9.448   8.534  66.555  1.00  0.00    -0.218 C  
HETATM    7  O   UNL     1      -9.150   7.387  65.763  1.00  0.00    -0.355 OA 
HETATM    8  H   UNL     1      -8.749   6.749  66.340  1.00  0.00     0.000 HD 
BRANCH   6   9
HETATM    9  C   UNL     1     -10.328   8.161  67.731  1.00  0.00    -0.295 C  
HETATM   10  C   UNL     1      -9.941   8.019  69.011  1.00  0.00    -0.186 C  
BRANCH  10  11
HETATM   11  C   UNL     1     -10.808   7.464  70.123  1.00  0.00    -0.270 C  
HETATM   12  C   UNL     1     -10.206   6.137  70.634  1.00  0.00    -0.199 C  
HETATM   13  O   UNL     1     -10.512   5.048  69.774  1.00  0.00    -0.263 OA 
HETATM   14  C   UNL     1     -10.804   5.920  72.007  1.00  0.00    -0.303 C  
HETATM   15  H   UNL     1     -10.141   4.231  70.089  1.00  0.00     0.000 HD 
HETATM   16  C   UNL     1     -10.924   7.327  72.499  1.00  0.00    -0.282 C  
HETATM   17  O   UNL     1     -11.033   7.594  73.690  1.00  0.00    -0.301 OA 
HETATM   18  C   UNL     1     -10.928   8.359  71.379  1.00  0.00    -0.311 C  
BRANCH  18  19
HETATM   19  C   UNL     1     -12.237   9.163  71.362  1.00  0.00    -0.407 C  
BRANCH  19  20
HETATM   20  C   UNL     1     -12.047  10.658  71.359  1.00  0.00    -0.342 C  
HETATM   21  C   UNL     1     -12.009  11.482  70.300  1.00  0.00    -0.455 C  
BRANCH  21  22
HETATM   22  C   UNL     1     -12.125  11.075  68.863  1.00  0.00    -0.239 C  
BRANCH  22  23
HETATM   23  C   UNL     1     -11.036  11.694  67.987  1.00  0.00    -0.299 C  
BRANCH  23  24
HETATM   24  C   UNL     1     -11.418  13.133  67.638  1.00  0.00    -0.366 C  
HETATM   25  C   UNL     1     -12.048  13.252  66.274  1.00  0.00    -0.414 C  
HETATM   26  O   UNL     1     -12.248  12.331  65.501  1.00  0.00    -0.577 OA 
HETATM   27  O   UNL     1     -12.381  14.533  65.983  1.00  0.00    -0.332 OA 
ENDBRANCH  23  24
ENDBRANCH  22  23
ENDBRANCH  21  22
ENDBRANCH  19  20
ENDBRANCH  18  19
ENDBRANCH  10  11
ENDBRANCH   6   9
ENDBRANCH   5   6
ENDBRANCH   4   5
ENDBRANCH   3   4
ENDBRANCH   2   3
TORSDOF 11
ENDMDL
MODEL      166
REMARK 921   NORMALIZED FREE ENERGY PREDICTED BY IDOCK:   -4.51 KCAL/MOL
REMARK 922        TOTAL FREE ENERGY PREDICTED BY IDOCK:   -9.22 KCAL/MOL
REMARK 923 INTER-LIGAND FREE ENERGY PREDICTED BY IDOCK:   -7.38 KCAL/MOL
REMARK 924 INTRA-LIGAND FREE ENERGY PREDICTED BY IDOCK:   -1.84 KCAL/MOL
REMARK 927      BINDING AFFINITY PREDICTED BY RF-SCORE:    0.00 PKD
ROOT
HETATM    1  C   UNL     1      -7.463  13.111  67.491  1.00  0.00    -0.164 C  
HETATM    2  C   UNL     1      -6.046  13.228  68.020  1.00  0.00    -0.122 C  
ENDROOT
BRANCH   2   3
HETATM    3  C   UNL     1      -5.372  11.863  68.166  1.00  0.00    -0.046 C  
BRANCH   3   4
HETATM    4  C   UNL     1      -6.300  10.759  67.656  1.00  0.00    -0.056 C  
BRANCH   4   5
HETATM    5  C   UNL     1      -6.564   9.683  68.710  1.00  0.00    -0.047 C  
BRANCH   5   6
HETATM    6  C   UNL     1      -7.190  10.238  70.002  1.00  0.00    -0.158 C  
HETATM    7  O   UNL     1      -6.374   9.796  71.083  1.00  0.00    -0.210 OA 
HETATM    8  H   UNL     1      -6.759  10.139  71.880  1.00  0.00     0.000 HD 
BRANCH   6   9
HETATM    9  C   UNL     1      -8.627   9.801  70.200  1.00  0.00    -0.214 C  
HETATM   10  C   UNL     1      -9.666  10.062  69.388  1.00  0.00    -0.240 C  
BRANCH  10  11
HETATM   11  C   UNL     1     -11.117   9.770  69.715  1.00  0.00    -0.272 C  
HETATM   12  C   UNL     1     -11.225   8.389  70.398  1.00  0.00    -0.213 C  
HETATM   13  O   UNL     1     -11.162   7.324  69.460  1.00  0.00    -0.433 OA 
HETATM   14  C   UNL     1     -12.557   8.392  71.117  1.00  0.00    -0.156 C  
HETATM   15  H   UNL     1     -11.229   6.475  69.881  1.00  0.00     0.000 HD 
HETATM   16  C   UNL     1     -12.663   9.827  71.527  1.00  0.00    -0.406 C  
HETATM   17  O   UNL     1     -13.411  10.193  72.427  1.00  0.00    -0.347 OA 
HETATM   18  C   UNL     1     -11.786  10.757  70.700  1.00  0.00    -0.460 C  
BRANCH  18  19
HETATM   19  C   UNL     1     -12.627  11.802  69.951  1.00  0.00     0.040 C  
BRANCH  19  20
HETATM   20  C   UNL     1     -11.915  13.105  69.695  1.00  0.00    -0.370 C  
HETATM   21  C   UNL     1     -11.625  13.667  68.511  1.00  0.00    -0.371 C  
BRANCH  21  22
HETATM   22  C   UNL     1     -11.936  13.091  67.163  1.00  0.00    -0.389 C  
BRANCH  22  23
HETATM   23  C   UNL     1     -10.940  13.533  66.092  1.00  0.00    -0.289 C  
BRANCH  23  24
HETATM   24  C   UNL     1     -11.653  14.409  65.060  1.00  0.00    -0.374 C  
HETATM   25  C   UNL     1     -10.978  15.742  64.864  1.00  0.00    -0.427 C  
HETATM   26  O   UNL     1      -9.976  16.122  65.444  1.00  0.00    -0.482 OA 
HETATM   27  O   UNL     1     -11.622  16.502  63.946  1.00  0.00    -1.175 OA 
ENDBRANCH  23  24
ENDBRANCH  22  23
ENDBRANCH  21  22
ENDBRANCH  19  20
ENDBRANCH  18  19
ENDBRANCH  10  11
ENDBRANCH   6   9
ENDBRANCH   5   6
ENDBRANCH   4   5
ENDBRANCH   3   4
ENDBRANCH   2   3
TORSDOF 11
ENDMDL
MODEL      167
REMARK 921   NORMALIZED FREE ENERGY PREDICTED BY IDOCK:   -4.49 KCAL/MOL
REMARK 922        TOTAL FREE ENERGY PREDICTED BY IDOCK:   -9.20 KCAL/MOL
REMARK 923 INTER-LIGAND FREE ENERGY PREDICTED BY IDOCK:   -6.06 KCAL/MOL
REMARK 924 INTRA-LIGAND FREE ENERGY PREDICTED BY IDOCK:   -3.14 KCAL/MOL
REMARK 927      BINDING AFFINITY PREDICTED BY RF-SCORE:    0.00 PKD
ROOT
HETATM    1  C   UNL     1     -12.027  13.325  63.702  1.00  0.00    -0.547 C  
HETATM    2  C   UNL     1     -10.702  12.745  64.161  1.00  0.00    -0.441 C  
ENDROOT
BRANCH   2   3
HETATM    3  C   UNL     1     -10.214  11.626  63.239  1.00  0.00    -0.445 C  
BRANCH   3   4
HETATM    4  C   UNL     1      -9.787  10.411  64.065  1.00  0.00    -0.355 C  
BRANCH   4   5
HETATM    5  C   UNL     1      -8.270  10.217  64.080  1.00  0.00    -0.165 C  
BRANCH   5   6
HETATM    6  C   UNL     1      -7.683  10.138  65.501  1.00  0.00    -0.145 C  
HETATM    7  O   UNL     1      -8.095   8.891  66.053  1.00  0.00    -0.106 OA 
HETATM    8  H   UNL     1      -7.733   8.842  66.930  1.00  0.00     0.000 HD 
BRANCH   6   9
HETATM    9  C   UNL     1      -8.116  11.287  66.387  1.00  0.00    -0.138 C  
HETATM   10  C   UNL     1      -7.341  11.981  67.240  1.00  0.00    -0.151 C  
BRANCH  10  11
HETATM   11  C   UNL     1      -7.850  12.997  68.243  1.00  0.00    -0.143 C  
HETATM   12  C   UNL     1      -6.746  13.294  69.282  1.00  0.00    -0.066 C  
HETATM   13  O   UNL     1      -6.658  12.276  70.270  1.00  0.00    -0.439 OA 
HETATM   14  C   UNL     1      -7.122  14.618  69.909  1.00  0.00    -0.056 C  
HETATM   15  H   UNL     1      -5.979  12.460  70.909  1.00  0.00     0.000 HD 
HETATM   16  C   UNL     1      -7.749  15.323  68.748  1.00  0.00    -0.147 C  
HETATM   17  O   UNL     1      -7.875  16.542  68.717  1.00  0.00    -0.210 OA 
HETATM   18  C   UNL     1      -8.227  14.377  67.656  1.00  0.00    -0.185 C  
BRANCH  18  19
HETATM   19  C   UNL     1      -9.744  14.490  67.440  1.00  0.00    -0.222 C  
BRANCH  19  20
HETATM   20  C   UNL     1     -10.573  14.086  68.633  1.00  0.00    -0.263 C  
HETATM   21  C   UNL     1     -11.392  13.029  68.746  1.00  0.00    -0.332 C  
BRANCH  21  22
HETATM   22  C   UNL     1     -11.679  12.018  67.678  1.00  0.00    -0.365 C  
BRANCH  22  23
HETATM   23  C   UNL     1     -11.265  10.603  68.081  1.00  0.00    -0.366 C  
BRANCH  23  24
HETATM   24  C   UNL     1     -10.374  10.665  69.322  1.00  0.00    -0.240 C  
HETATM   25  C   UNL     1      -9.399   9.518  69.394  1.00  0.00    -0.180 C  
HETATM   26  O   UNL     1      -9.299   8.619  68.577  1.00  0.00    -0.138 OA 
HETATM   27  O   UNL     1      -8.616   9.590  70.497  1.00  0.00    -0.213 OA 
ENDBRANCH  23  24
ENDBRANCH  22  23
ENDBRANCH  21  22
ENDBRANCH  19  20
ENDBRANCH  18  19
ENDBRANCH  10  11
ENDBRANCH   6   9
ENDBRANCH   5   6
ENDBRANCH   4   5
ENDBRANCH   3   4
ENDBRANCH   2   3
TORSDOF 11
ENDMDL
MODEL      168
REMARK 921   NORMALIZED FREE ENERGY PREDICTED BY IDOCK:   -4.49 KCAL/MOL
REMARK 922        TOTAL FREE ENERGY PREDICTED BY IDOCK:   -9.19 KCAL/MOL
REMARK 923 INTER-LIGAND FREE ENERGY PREDICTED BY IDOCK:   -6.53 KCAL/MOL
REMARK 924 INTRA-LIGAND FREE ENERGY PREDICTED BY IDOCK:   -2.67 KCAL/MOL
REMARK 927      BINDING AFFINITY PREDICTED BY RF-SCORE:    0.00 PKD
ROOT
HETATM    1  C   UNL     1      -8.261   9.718  66.366  1.00  0.00    -0.120 C  
HETATM    2  C   UNL     1      -8.632   8.820  67.533  1.00  0.00    -0.127 C  
ENDROOT
BRANCH   2   3
HETATM    3  C   UNL     1     -10.145   8.748  67.744  1.00  0.00    -0.261 C  
BRANCH   3   4
HETATM    4  C   UNL     1     -10.497   9.143  69.179  1.00  0.00    -0.230 C  
BRANCH   4   5
HETATM    5  C   UNL     1     -10.303  10.637  69.440  1.00  0.00    -0.234 C  
BRANCH   5   6
HETATM    6  C   UNL     1     -11.590  11.459  69.249  1.00  0.00    -0.317 C  
HETATM    7  O   UNL     1     -12.685  10.568  69.438  1.00  0.00    -0.692 OA 
HETATM    8  H   UNL     1     -13.480  11.076  69.321  1.00  0.00     0.000 HD 
BRANCH   6   9
HETATM    9  C   UNL     1     -11.670  12.129  67.892  1.00  0.00    -0.403 C  
HETATM   10  C   UNL     1     -10.795  12.000  66.879  1.00  0.00    -0.302 C  
BRANCH  10  11
HETATM   11  C   UNL     1     -10.809  12.829  65.610  1.00  0.00    -0.300 C  
HETATM   12  C   UNL     1     -11.414  11.998  64.458  1.00  0.00    -0.319 C  
HETATM   13  O   UNL     1     -10.476  11.080  63.915  1.00  0.00    -0.357 OA 
HETATM   14  C   UNL     1     -11.845  13.004  63.412  1.00  0.00    -0.543 C  
HETATM   15  H   UNL     1     -10.849  10.569  63.205  1.00  0.00     0.000 HD 
HETATM   16  C   UNL     1     -12.269  14.154  64.271  1.00  0.00    -0.420 C  
HETATM   17  O   UNL     1     -13.008  15.039  63.856  1.00  0.00    -0.531 OA 
HETATM   18  C   UNL     1     -11.667  14.116  65.669  1.00  0.00    -0.357 C  
BRANCH  18  19
HETATM   19  C   UNL     1     -10.794  15.351  65.938  1.00  0.00    -0.328 C  
BRANCH  19  20
HETATM   20  C   UNL     1      -9.311  15.080  65.916  1.00  0.00    -0.249 C  
HETATM   21  C   UNL     1      -8.500  14.857  66.962  1.00  0.00    -0.260 C  
BRANCH  21  22
HETATM   22  C   UNL     1      -8.902  14.854  68.405  1.00  0.00    -0.178 C  
BRANCH  22  23
HETATM   23  C   UNL     1      -8.335  13.660  69.171  1.00  0.00     0.412 C  
BRANCH  23  24
HETATM   24  C   UNL     1      -7.382  12.877  68.266  1.00  0.00    -0.118 C  
HETATM   25  C   UNL     1      -6.541  11.885  69.028  1.00  0.00    -0.091 C  
HETATM   26  O   UNL     1      -6.583  11.696  70.231  1.00  0.00    -0.154 OA 
HETATM   27  O   UNL     1      -5.706  11.200  68.211  1.00  0.00    -0.046 OA 
ENDBRANCH  23  24
ENDBRANCH  22  23
ENDBRANCH  21  22
ENDBRANCH  19  20
ENDBRANCH  18  19
ENDBRANCH  10  11
ENDBRANCH   6   9
ENDBRANCH   5   6
ENDBRANCH   4   5
ENDBRANCH   3   4
ENDBRANCH   2   3
TORSDOF 11
ENDMDL
MODEL      169
REMARK 921   NORMALIZED FREE ENERGY PREDICTED BY IDOCK:   -4.49 KCAL/MOL
REMARK 922        TOTAL FREE ENERGY PREDICTED BY IDOCK:   -9.19 KCAL/MOL
REMARK 923 INTER-LIGAND FREE ENERGY PREDICTED BY IDOCK:   -7.32 KCAL/MOL
REMARK 924 INTRA-LIGAND FREE ENERGY PREDICTED BY IDOCK:   -1.86 KCAL/MOL
REMARK 927      BINDING AFFINITY PREDICTED BY RF-SCORE:    0.00 PKD
ROOT
HETATM    1  C   UNL     1     -12.385  15.742  74.538  1.00  0.00    -0.776 C  
HETATM    2  C   UNL     1     -12.831  15.569  73.098  1.00  0.00    -0.610 C  
ENDROOT
BRANCH   2   3
HETATM    3  C   UNL     1     -11.664  15.695  72.116  1.00  0.00    -0.576 C  
BRANCH   3   4
HETATM    4  C   UNL     1     -11.961  14.903  70.841  1.00  0.00    -0.374 C  
BRANCH   4   5
HETATM    5  C   UNL     1     -11.922  15.777  69.587  1.00  0.00    -0.332 C  
BRANCH   5   6
HETATM    6  C   UNL     1     -11.475  15.013  68.327  1.00  0.00    -0.332 C  
HETATM    7  O   UNL     1     -12.654  14.703  67.589  1.00  0.00    -0.454 OA 
HETATM    8  H   UNL     1     -12.378  14.231  66.812  1.00  0.00     0.000 HD 
BRANCH   6   9
HETATM    9  C   UNL     1     -10.692  13.755  68.643  1.00  0.00    -0.270 C  
HETATM   10  C   UNL     1     -10.147  12.904  67.757  1.00  0.00    -0.229 C  
BRANCH  10  11
HETATM   11  C   UNL     1      -9.536  11.562  68.106  1.00  0.00    -0.184 C  
HETATM   12  C   UNL     1     -10.276  10.442  67.341  1.00  0.00    -0.214 C  
HETATM   13  O   UNL     1     -11.510  10.104  67.958  1.00  0.00    -0.587 OA 
HETATM   14  C   UNL     1      -9.335   9.257  67.342  1.00  0.00    -0.153 C  
HETATM   15  H   UNL     1     -11.965   9.415  67.487  1.00  0.00     0.000 HD 
HETATM   16  C   UNL     1      -8.006   9.940  67.265  1.00  0.00    -0.109 C  
HETATM   17  O   UNL     1      -6.994   9.356  66.891  1.00  0.00    -0.080 OA 
HETATM   18  C   UNL     1      -8.047  11.392  67.721  1.00  0.00    -0.121 C  
BRANCH  18  19
HETATM   19  C   UNL     1      -7.132  11.625  68.933  1.00  0.00    -0.115 C  
BRANCH  19  20
HETATM   20  C   UNL     1      -6.003  12.591  68.682  1.00  0.00    -0.064 C  
HETATM   21  C   UNL     1      -6.061  13.932  68.638  1.00  0.00    -0.088 C  
BRANCH  21  22
HETATM   22  C   UNL     1      -7.292  14.767  68.809  1.00  0.00    -0.129 C  
BRANCH  22  23
HETATM   23  C   UNL     1      -7.293  16.003  67.912  1.00  0.00    -0.145 C  
BRANCH  23  24
HETATM   24  C   UNL     1      -8.215  15.766  66.715  1.00  0.00    -0.302 C  
HETATM   25  C   UNL     1      -9.104  16.948  66.422  1.00  0.00    -0.283 C  
HETATM   26  O   UNL     1      -9.121  17.994  67.047  1.00  0.00    -0.248 OA 
HETATM   27  O   UNL     1      -9.910  16.721  65.358  1.00  0.00    -0.547 OA 
ENDBRANCH  23  24
ENDBRANCH  22  23
ENDBRANCH  21  22
ENDBRANCH  19  20
ENDBRANCH  18  19
ENDBRANCH  10  11
ENDBRANCH   6   9
ENDBRANCH   5   6
ENDBRANCH   4   5
ENDBRANCH   3   4
ENDBRANCH   2   3
TORSDOF 11
ENDMDL
MODEL      170
REMARK 921   NORMALIZED FREE ENERGY PREDICTED BY IDOCK:   -4.46 KCAL/MOL
REMARK 922        TOTAL FREE ENERGY PREDICTED BY IDOCK:   -9.14 KCAL/MOL
REMARK 923 INTER-LIGAND FREE ENERGY PREDICTED BY IDOCK:   -7.51 KCAL/MOL
REMARK 924 INTRA-LIGAND FREE ENERGY PREDICTED BY IDOCK:   -1.63 KCAL/MOL
REMARK 927      BINDING AFFINITY PREDICTED BY RF-SCORE:    0.00 PKD
ROOT
HETATM    1  C   UNL     1     -12.445   9.023  72.371  1.00  0.00    -0.375 C  
HETATM    2  C   UNL     1     -12.664   9.685  71.023  1.00  0.00    -0.354 C  
ENDROOT
BRANCH   2   3
HETATM    3  C   UNL     1     -12.430  11.196  71.079  1.00  0.00    -0.506 C  
BRANCH   3   4
HETATM    4  C   UNL     1     -11.823  11.685  69.763  1.00  0.00    -0.428 C  
BRANCH   4   5
HETATM    5  C   UNL     1     -12.082  13.172  69.516  1.00  0.00    -0.296 C  
BRANCH   5   6
HETATM    6  C   UNL     1     -11.485  13.681  68.192  1.00  0.00    -0.313 C  
HETATM    7  O   UNL     1     -12.523  14.377  67.507  1.00  0.00    -0.599 OA 
HETATM    8  H   UNL     1     -12.154  14.691  66.690  1.00  0.00     0.000 HD 
BRANCH   6   9
HETATM    9  C   UNL     1     -10.924  12.569  67.328  1.00  0.00    -0.300 C  
HETATM   10  C   UNL     1     -11.110  12.406  66.007  1.00  0.00    -0.344 C  
BRANCH  10  11
HETATM   11  C   UNL     1     -10.690  11.183  65.216  1.00  0.00    -0.271 C  
HETATM   12  C   UNL     1     -10.627  11.536  63.714  1.00  0.00    -0.406 C  
HETATM   13  O   UNL     1     -11.915  11.550  63.116  1.00  0.00    -0.901 OA 
HETATM   14  C   UNL     1      -9.754  10.473  63.082  1.00  0.00    -0.351 C  
HETATM   15  H   UNL     1     -11.876  11.767  62.192  1.00  0.00     0.000 HD 
HETATM   16  C   UNL     1      -8.779  10.203  64.183  1.00  0.00    -0.204 C  
HETATM   17  O   UNL     1      -7.695   9.669  63.977  1.00  0.00    -0.117 OA 
HETATM   18  C   UNL     1      -9.287  10.625  65.555  1.00  0.00    -0.245 C  
BRANCH  18  19
HETATM   19  C   UNL     1      -9.385   9.425  66.510  1.00  0.00    -0.222 C  
BRANCH  19  20
HETATM   20  C   UNL     1      -8.589   9.577  67.781  1.00  0.00    -0.115 C  
HETATM   21  C   UNL     1      -7.733   8.698  68.326  1.00  0.00    -0.101 C  
BRANCH  21  22
HETATM   22  C   UNL     1      -7.400   7.342  67.785  1.00  0.00    -0.093 C  
BRANCH  22  23
HETATM   23  C   UNL     1      -7.925   6.211  68.669  1.00  0.00    -0.101 C  
BRANCH  23  24
HETATM   24  C   UNL     1      -9.434   6.062  68.465  1.00  0.00    -0.127 C  
HETATM   25  C   UNL     1     -10.231   6.551  69.647  1.00  0.00    -0.187 C  
HETATM   26  O   UNL     1      -9.766   7.019  70.672  1.00  0.00    -0.172 OA 
HETATM   27  O   UNL     1     -11.564   6.413  69.448  1.00  0.00    -0.382 OA 
ENDBRANCH  23  24
ENDBRANCH  22  23
ENDBRANCH  21  22
ENDBRANCH  19  20
ENDBRANCH  18  19
ENDBRANCH  10  11
ENDBRANCH   6   9
ENDBRANCH   5   6
ENDBRANCH   4   5
ENDBRANCH   3   4
ENDBRANCH   2   3
TORSDOF 11
ENDMDL
MODEL      171
REMARK 921   NORMALIZED FREE ENERGY PREDICTED BY IDOCK:   -4.45 KCAL/MOL
REMARK 922        TOTAL FREE ENERGY PREDICTED BY IDOCK:   -9.12 KCAL/MOL
REMARK 923 INTER-LIGAND FREE ENERGY PREDICTED BY IDOCK:   -8.02 KCAL/MOL
REMARK 924 INTRA-LIGAND FREE ENERGY PREDICTED BY IDOCK:   -1.10 KCAL/MOL
REMARK 927      BINDING AFFINITY PREDICTED BY RF-SCORE:    0.00 PKD
ROOT
HETATM    1  C   UNL     1     -10.676  16.598  67.818  1.00  0.00    -0.327 C  
HETATM    2  C   UNL     1     -10.128  16.719  66.408  1.00  0.00    -0.327 C  
ENDROOT
BRANCH   2   3
HETATM    3  C   UNL     1      -9.882  15.353  65.767  1.00  0.00    -0.399 C  
BRANCH   3   4
HETATM    4  C   UNL     1     -10.952  15.063  64.713  1.00  0.00    -0.389 C  
BRANCH   4   5
HETATM    5  C   UNL     1     -12.101  14.217  65.263  1.00  0.00    -0.400 C  
BRANCH   5   6
HETATM    6  C   UNL     1     -11.674  12.790  65.651  1.00  0.00    -0.399 C  
HETATM    7  O   UNL     1     -12.449  11.894  64.861  1.00  0.00    -0.312 OA 
HETATM    8  H   UNL     1     -12.185  11.013  65.100  1.00  0.00     0.000 HD 
BRANCH   6   9
HETATM    9  C   UNL     1     -11.853  12.498  67.127  1.00  0.00    -0.386 C  
HETATM   10  C   UNL     1     -10.879  12.269  68.025  1.00  0.00    -0.253 C  
BRANCH  10  11
HETATM   11  C   UNL     1     -11.105  11.796  69.447  1.00  0.00    -0.245 C  
HETATM   12  C   UNL     1     -12.118  12.729  70.147  1.00  0.00    -0.298 C  
HETATM   13  O   UNL     1     -11.513  13.938  70.584  1.00  0.00    -0.513 OA 
HETATM   14  C   UNL     1     -12.652  11.941  71.323  1.00  0.00    -0.383 C  
HETATM   15  H   UNL     1     -12.137  14.511  71.015  1.00  0.00     0.000 HD 
HETATM   16  C   UNL     1     -12.646  10.551  70.771  1.00  0.00    -0.382 C  
HETATM   17  O   UNL     1     -13.324   9.653  71.259  1.00  0.00    -0.373 OA 
HETATM   18  C   UNL     1     -11.705  10.377  69.587  1.00  0.00    -0.283 C  
BRANCH  18  19
HETATM   19  C   UNL     1     -10.612   9.341  69.887  1.00  0.00    -0.246 C  
BRANCH  19  20
HETATM   20  C   UNL     1     -10.358   9.113  71.355  1.00  0.00    -0.409 C  
HETATM   21  C   UNL     1     -10.219   7.941  71.994  1.00  0.00    -0.270 C  
BRANCH  21  22
HETATM   22  C   UNL     1     -10.313   6.581  71.372  1.00  0.00    -0.234 C  
BRANCH  22  23
HETATM   23  C   UNL     1      -9.400   5.561  72.049  1.00  0.00    -0.164 C  
BRANCH  23  24
HETATM   24  C   UNL     1     -10.131   4.223  72.174  1.00  0.00    -0.255 C  
HETATM   25  C   UNL     1     -10.890   4.095  73.470  1.00  0.00    -0.254 C  
HETATM   26  O   UNL     1     -10.941   4.938  74.349  1.00  0.00    -0.311 OA 
HETATM   27  O   UNL     1     -11.533   2.907  73.562  1.00  0.00    -0.214 OA 
ENDBRANCH  23  24
ENDBRANCH  22  23
ENDBRANCH  21  22
ENDBRANCH  19  20
ENDBRANCH  18  19
ENDBRANCH  10  11
ENDBRANCH   6   9
ENDBRANCH   5   6
ENDBRANCH   4   5
ENDBRANCH   3   4
ENDBRANCH   2   3
TORSDOF 11
ENDMDL
MODEL      172
REMARK 921   NORMALIZED FREE ENERGY PREDICTED BY IDOCK:   -4.44 KCAL/MOL
REMARK 922        TOTAL FREE ENERGY PREDICTED BY IDOCK:   -9.12 KCAL/MOL
REMARK 923 INTER-LIGAND FREE ENERGY PREDICTED BY IDOCK:   -7.09 KCAL/MOL
REMARK 924 INTRA-LIGAND FREE ENERGY PREDICTED BY IDOCK:   -2.03 KCAL/MOL
REMARK 927      BINDING AFFINITY PREDICTED BY RF-SCORE:    0.00 PKD
ROOT
HETATM    1  C   UNL     1      -6.885   8.474  64.802  1.00  0.00    -0.072 C  
HETATM    2  C   UNL     1      -8.042   7.497  64.708  1.00  0.00    -0.112 C  
ENDROOT
BRANCH   2   3
HETATM    3  C   UNL     1      -7.568   6.042  64.710  1.00  0.00    -0.090 C  
BRANCH   3   4
HETATM    4  C   UNL     1      -8.707   5.116  64.280  1.00  0.00    -0.071 C  
BRANCH   4   5
HETATM    5  C   UNL     1      -8.991   4.021  65.310  1.00  0.00    -0.132 C  
BRANCH   5   6
HETATM    6  C   UNL     1     -10.361   4.171  65.994  1.00  0.00     0.034 C  
HETATM    7  O   UNL     1     -11.310   4.453  64.970  1.00  0.00    -1.040 OA 
HETATM    8  H   UNL     1     -12.155   4.546  65.392  1.00  0.00     0.000 HD 
BRANCH   6   9
HETATM    9  C   UNL     1     -10.378   5.253  67.055  1.00  0.00    -0.286 C  
HETATM   10  C   UNL     1     -10.978   6.454  66.968  1.00  0.00    -0.463 C  
BRANCH  10  11
HETATM   11  C   UNL     1     -10.816   7.579  67.971  1.00  0.00    -0.097 C  
HETATM   12  C   UNL     1     -10.697   6.990  69.393  1.00  0.00    -0.238 C  
HETATM   13  O   UNL     1     -11.963   6.623  69.924  1.00  0.00    -0.652 OA 
HETATM   14  C   UNL     1     -10.058   8.075  70.232  1.00  0.00    -0.192 C  
HETATM   15  H   UNL     1     -11.889   6.261  70.800  1.00  0.00     0.000 HD 
HETATM   16  C   UNL     1      -9.146   8.717  69.235  1.00  0.00    -0.149 C  
HETATM   17  O   UNL     1      -8.191   9.406  69.574  1.00  0.00    -0.106 OA 
HETATM   18  C   UNL     1      -9.549   8.449  67.791  1.00  0.00    -0.185 C  
BRANCH  18  19
HETATM   19  C   UNL     1      -9.874   9.753  67.048  1.00  0.00    -0.245 C  
BRANCH  19  20
HETATM   20  C   UNL     1     -10.957  10.581  67.691  1.00  0.00    -0.375 C  
HETATM   21  C   UNL     1     -11.052  11.919  67.737  1.00  0.00    -0.295 C  
BRANCH  21  22
HETATM   22  C   UNL     1     -10.068  12.893  67.167  1.00  0.00    -0.243 C  
BRANCH  22  23
HETATM   23  C   UNL     1     -10.720  13.907  66.228  1.00  0.00    -0.285 C  
BRANCH  23  24
HETATM   24  C   UNL     1     -11.883  13.245  65.488  1.00  0.00    -0.405 C  
HETATM   25  C   UNL     1     -11.499  12.768  64.111  1.00  0.00    -0.393 C  
HETATM   26  O   UNL     1     -10.396  12.879  63.603  1.00  0.00    -0.346 OA 
HETATM   27  O   UNL     1     -12.539  12.182  63.472  1.00  0.00    -0.647 OA 
ENDBRANCH  23  24
ENDBRANCH  22  23
ENDBRANCH  21  22
ENDBRANCH  19  20
ENDBRANCH  18  19
ENDBRANCH  10  11
ENDBRANCH   6   9
ENDBRANCH   5   6
ENDBRANCH   4   5
ENDBRANCH   3   4
ENDBRANCH   2   3
TORSDOF 11
ENDMDL
MODEL      173
REMARK 921   NORMALIZED FREE ENERGY PREDICTED BY IDOCK:   -4.42 KCAL/MOL
REMARK 922        TOTAL FREE ENERGY PREDICTED BY IDOCK:   -9.08 KCAL/MOL
REMARK 923 INTER-LIGAND FREE ENERGY PREDICTED BY IDOCK:   -7.80 KCAL/MOL
REMARK 924 INTRA-LIGAND FREE ENERGY PREDICTED BY IDOCK:   -1.28 KCAL/MOL
REMARK 927      BINDING AFFINITY PREDICTED BY RF-SCORE:    0.00 PKD
ROOT
HETATM    1  C   UNL     1      -9.525   8.083  66.587  1.00  0.00    -0.273 C  
HETATM    2  C   UNL     1     -10.011   6.752  67.131  1.00  0.00    -0.220 C  
ENDROOT
BRANCH   2   3
HETATM    3  C   UNL     1     -11.142   6.924  68.146  1.00  0.00    -0.165 C  
BRANCH   3   4
HETATM    4  C   UNL     1     -10.662   6.526  69.543  1.00  0.00    -0.322 C  
BRANCH   4   5
HETATM    5  C   UNL     1      -9.594   7.476  70.088  1.00  0.00    -0.168 C  
BRANCH   5   6
HETATM    6  C   UNL     1     -10.052   8.254  71.335  1.00  0.00    -0.200 C  
HETATM    7  O   UNL     1     -10.571   7.297  72.255  1.00  0.00    -0.211 OA 
HETATM    8  H   UNL     1     -10.853   7.777  73.024  1.00  0.00     0.000 HD 
BRANCH   6   9
HETATM    9  C   UNL     1     -11.086   9.316  71.025  1.00  0.00    -0.396 C  
HETATM   10  C   UNL     1     -10.999  10.273  70.083  1.00  0.00    -0.377 C  
BRANCH  10  11
HETATM   11  C   UNL     1     -11.966  11.429  69.929  1.00  0.00    -0.434 C  
HETATM   12  C   UNL     1     -12.505  11.840  71.317  1.00  0.00    -0.246 C  
HETATM   13  O   UNL     1     -13.532  10.967  71.768  1.00  0.00    -0.313 OA 
HETATM   14  C   UNL     1     -13.035  13.247  71.148  1.00  0.00    -0.297 C  
HETATM   15  H   UNL     1     -13.864  11.220  72.622  1.00  0.00     0.000 HD 
HETATM   16  C   UNL     1     -12.079  13.800  70.140  1.00  0.00    -0.359 C  
HETATM   17  O   UNL     1     -11.926  15.006  69.979  1.00  0.00    -0.293 OA 
HETATM   18  C   UNL     1     -11.362  12.724  69.336  1.00  0.00    -0.267 C  
BRANCH  18  19
HETATM   19  C   UNL     1     -11.673  12.843  67.836  1.00  0.00    -0.405 C  
BRANCH  19  20
HETATM   20  C   UNL     1     -11.631  11.536  67.087  1.00  0.00    -0.249 C  
HETATM   21  C   UNL     1     -10.780  11.170  66.116  1.00  0.00    -0.285 C  
BRANCH  21  22
HETATM   22  C   UNL     1      -9.684  12.013  65.541  1.00  0.00    -0.221 C  
BRANCH  22  23
HETATM   23  C   UNL     1     -10.115  12.759  64.279  1.00  0.00    -0.277 C  
BRANCH  23  24
HETATM   24  C   UNL     1     -10.569  14.171  64.650  1.00  0.00    -0.391 C  
HETATM   25  C   UNL     1     -11.928  14.510  64.093  1.00  0.00    -0.321 C  
HETATM   26  O   UNL     1     -12.622  13.771  63.416  1.00  0.00    -0.842 OA 
HETATM   27  O   UNL     1     -12.315  15.763  64.433  1.00  0.00    -0.274 OA 
ENDBRANCH  23  24
ENDBRANCH  22  23
ENDBRANCH  21  22
ENDBRANCH  19  20
ENDBRANCH  18  19
ENDBRANCH  10  11
ENDBRANCH   6   9
ENDBRANCH   5   6
ENDBRANCH   4   5
ENDBRANCH   3   4
ENDBRANCH   2   3
TORSDOF 11
ENDMDL
MODEL      174
REMARK 921   NORMALIZED FREE ENERGY PREDICTED BY IDOCK:   -4.42 KCAL/MOL
REMARK 922        TOTAL FREE ENERGY PREDICTED BY IDOCK:   -9.08 KCAL/MOL
REMARK 923 INTER-LIGAND FREE ENERGY PREDICTED BY IDOCK:   -6.83 KCAL/MOL
REMARK 924 INTRA-LIGAND FREE ENERGY PREDICTED BY IDOCK:   -2.25 KCAL/MOL
REMARK 927      BINDING AFFINITY PREDICTED BY RF-SCORE:    0.00 PKD
ROOT
HETATM    1  C   UNL     1      -9.521  14.795  69.033  1.00  0.00    -0.167 C  
HETATM    2  C   UNL     1      -8.531  14.141  68.088  1.00  0.00    -0.173 C  
ENDROOT
BRANCH   2   3
HETATM    3  C   UNL     1      -7.488  15.133  67.570  1.00  0.00    -0.223 C  
BRANCH   3   4
HETATM    4  C   UNL     1      -8.081  16.543  67.519  1.00  0.00    -0.171 C  
BRANCH   4   5
HETATM    5  C   UNL     1      -8.479  16.959  66.102  1.00  0.00    -0.281 C  
BRANCH   5   6
HETATM    6  C   UNL     1     -10.000  16.946  65.870  1.00  0.00    -0.252 C  
HETATM    7  O   UNL     1     -10.615  17.259  67.117  1.00  0.00    -0.324 OA 
HETATM    8  H   UNL     1     -11.554  17.251  66.973  1.00  0.00     0.000 HD 
BRANCH   6   9
HETATM    9  C   UNL     1     -10.508  15.621  65.338  1.00  0.00    -0.435 C  
HETATM   10  C   UNL     1     -11.459  14.846  65.887  1.00  0.00    -0.276 C  
BRANCH  10  11
HETATM   11  C   UNL     1     -11.806  13.443  65.430  1.00  0.00    -0.381 C  
HETATM   12  C   UNL     1     -11.522  13.308  63.918  1.00  0.00    -0.362 C  
HETATM   13  O   UNL     1     -12.556  13.881  63.129  1.00  0.00    -1.057 OA 
HETATM   14  C   UNL     1     -11.410  11.822  63.655  1.00  0.00    -0.525 C  
HETATM   15  H   UNL     1     -12.381  13.797  62.199  1.00  0.00     0.000 HD 
HETATM   16  C   UNL     1     -10.790  11.346  64.931  1.00  0.00    -0.257 C  
HETATM   17  O   UNL     1     -10.208  10.270  65.011  1.00  0.00    -0.320 OA 
HETATM   18  C   UNL     1     -10.988  12.309  66.093  1.00  0.00    -0.328 C  
BRANCH  18  19
HETATM   19  C   UNL     1     -11.778  11.654  67.237  1.00  0.00    -0.255 C  
BRANCH  19  20
HETATM   20  C   UNL     1     -10.992  11.474  68.511  1.00  0.00    -0.268 C  
HETATM   21  C   UNL     1     -10.092  10.520  68.795  1.00  0.00    -0.202 C  
BRANCH  21  22
HETATM   22  C   UNL     1      -9.689   9.393  67.895  1.00  0.00    -0.177 C  
BRANCH  22  23
HETATM   23  C   UNL     1      -8.316   8.821  68.248  1.00  0.00    -0.126 C  
BRANCH  23  24
HETATM   24  C   UNL     1      -7.225   9.680  67.607  1.00  0.00    -0.089 C  
HETATM   25  C   UNL     1      -6.416  10.445  68.623  1.00  0.00    -0.051 C  
HETATM   26  O   UNL     1      -6.581  10.414  69.830  1.00  0.00    -0.090 OA 
HETATM   27  O   UNL     1      -5.453  11.197  68.038  1.00  0.00    -0.043 OA 
ENDBRANCH  23  24
ENDBRANCH  22  23
ENDBRANCH  21  22
ENDBRANCH  19  20
ENDBRANCH  18  19
ENDBRANCH  10  11
ENDBRANCH   6   9
ENDBRANCH   5   6
ENDBRANCH   4   5
ENDBRANCH   3   4
ENDBRANCH   2   3
TORSDOF 11
ENDMDL
MODEL      175
REMARK 921   NORMALIZED FREE ENERGY PREDICTED BY IDOCK:   -4.41 KCAL/MOL
REMARK 922        TOTAL FREE ENERGY PREDICTED BY IDOCK:   -9.06 KCAL/MOL
REMARK 923 INTER-LIGAND FREE ENERGY PREDICTED BY IDOCK:   -7.58 KCAL/MOL
REMARK 924 INTRA-LIGAND FREE ENERGY PREDICTED BY IDOCK:   -1.48 KCAL/MOL
REMARK 927      BINDING AFFINITY PREDICTED BY RF-SCORE:    0.00 PKD
ROOT
HETATM    1  C   UNL     1      -6.529  19.988  70.765  1.00  0.00    -0.118 C  
HETATM    2  C   UNL     1      -5.502  18.895  70.536  1.00  0.00    -0.236 C  
ENDROOT
BRANCH   2   3
HETATM    3  C   UNL     1      -5.200  18.692  69.050  1.00  0.00    -0.189 C  
BRANCH   3   4
HETATM    4  C   UNL     1      -5.778  19.848  68.232  1.00  0.00    -0.246 C  
BRANCH   4   5
HETATM    5  C   UNL     1      -6.831  19.384  67.224  1.00  0.00    -0.216 C  
BRANCH   5   6
HETATM    6  C   UNL     1      -6.569  17.967  66.682  1.00  0.00    -0.198 C  
HETATM    7  O   UNL     1      -6.281  18.100  65.293  1.00  0.00    -0.212 OA 
HETATM    8  H   UNL     1      -6.119  17.226  64.958  1.00  0.00     0.000 HD 
BRANCH   6   9
HETATM    9  C   UNL     1      -7.734  17.024  66.901  1.00  0.00    -0.251 C  
HETATM   10  C   UNL     1      -8.316  16.237  65.979  1.00  0.00    -0.099 C  
BRANCH  10  11
HETATM   11  C   UNL     1      -9.595  15.451  66.192  1.00  0.00    -0.362 C  
HETATM   12  C   UNL     1     -10.330  15.287  64.844  1.00  0.00    -0.238 C  
HETATM   13  O   UNL     1     -11.045  16.461  64.482  1.00  0.00    -0.873 OA 
HETATM   14  C   UNL     1     -11.276  14.122  65.034  1.00  0.00    -0.356 C  
HETATM   15  H   UNL     1     -11.498  16.360  63.653  1.00  0.00     0.000 HD 
HETATM   16  C   UNL     1     -10.486  13.253  65.961  1.00  0.00    -0.286 C  
HETATM   17  O   UNL     1     -10.722  12.058  66.094  1.00  0.00    -0.256 OA 
HETATM   18  C   UNL     1      -9.405  14.010  66.721  1.00  0.00    -0.289 C  
BRANCH  18  19
HETATM   19  C   UNL     1      -9.636  13.944  68.239  1.00  0.00    -0.218 C  
BRANCH  19  20
HETATM   20  C   UNL     1     -11.048  14.254  68.667  1.00  0.00    -0.273 C  
HETATM   21  C   UNL     1     -11.553  15.441  69.038  1.00  0.00    -0.361 C  
BRANCH  21  22
HETATM   22  C   UNL     1     -10.797  16.730  69.131  1.00  0.00    -0.287 C  
BRANCH  22  23
HETATM   23  C   UNL     1     -10.903  17.568  67.857  1.00  0.00    -0.255 C  
BRANCH  23  24
HETATM   24  C   UNL     1     -10.398  18.984  68.133  1.00  0.00    -0.446 C  
HETATM   25  C   UNL     1     -10.334  19.831  66.887  1.00  0.00    -0.476 C  
HETATM   26  O   UNL     1     -10.638  19.466  65.765  1.00  0.00    -0.496 OA 
HETATM   27  O   UNL     1      -9.887  21.083  67.151  1.00  0.00    -0.342 OA 
ENDBRANCH  23  24
ENDBRANCH  22  23
ENDBRANCH  21  22
ENDBRANCH  19  20
ENDBRANCH  18  19
ENDBRANCH  10  11
ENDBRANCH   6   9
ENDBRANCH   5   6
ENDBRANCH   4   5
ENDBRANCH   3   4
ENDBRANCH   2   3
TORSDOF 11
ENDMDL
MODEL      176
REMARK 921   NORMALIZED FREE ENERGY PREDICTED BY IDOCK:   -4.40 KCAL/MOL
REMARK 922        TOTAL FREE ENERGY PREDICTED BY IDOCK:   -9.04 KCAL/MOL
REMARK 923 INTER-LIGAND FREE ENERGY PREDICTED BY IDOCK:   -7.36 KCAL/MOL
REMARK 924 INTRA-LIGAND FREE ENERGY PREDICTED BY IDOCK:   -1.68 KCAL/MOL
REMARK 927      BINDING AFFINITY PREDICTED BY RF-SCORE:    0.00 PKD
ROOT
HETATM    1  C   UNL     1      -8.141   7.721  71.829  1.00  0.00    -0.118 C  
HETATM    2  C   UNL     1      -9.272   8.657  72.214  1.00  0.00    -0.297 C  
ENDROOT
BRANCH   2   3
HETATM    3  C   UNL     1     -10.427   7.915  72.889  1.00  0.00    -0.422 C  
BRANCH   3   4
HETATM    4  C   UNL     1     -11.751   8.269  72.210  1.00  0.00    -0.453 C  
BRANCH   4   5
HETATM    5  C   UNL     1     -12.492   7.035  71.692  1.00  0.00    -0.413 C  
BRANCH   5   6
HETATM    6  C   UNL     1     -11.901   6.475  70.386  1.00  0.00    -0.313 C  
HETATM    7  O   UNL     1     -10.888   5.544  70.753  1.00  0.00    -0.250 OA 
HETATM    8  H   UNL     1     -10.523   5.198  69.947  1.00  0.00     0.000 HD 
BRANCH   6   9
HETATM    9  C   UNL     1     -11.339   7.552  69.480  1.00  0.00     0.127 C  
HETATM   10  C   UNL     1     -10.432   7.386  68.502  1.00  0.00    -0.215 C  
BRANCH  10  11
HETATM   11  C   UNL     1      -9.756   8.512  67.745  1.00  0.00    -0.199 C  
HETATM   12  C   UNL     1      -9.460   8.057  66.299  1.00  0.00    -0.172 C  
HETATM   13  O   UNL     1      -8.301   7.237  66.226  1.00  0.00    -0.116 OA 
HETATM   14  C   UNL     1      -9.266   9.329  65.503  1.00  0.00    -0.292 C  
HETATM   15  H   UNL     1      -8.119   6.958  65.337  1.00  0.00     0.000 HD 
HETATM   16  C   UNL     1     -10.229  10.249  66.184  1.00  0.00    -0.217 C  
HETATM   17  O   UNL     1     -10.649  11.268  65.646  1.00  0.00    -0.258 OA 
HETATM   18  C   UNL     1     -10.593   9.804  67.593  1.00  0.00    -0.333 C  
BRANCH  18  19
HETATM   19  C   UNL     1     -10.183  10.854  68.637  1.00  0.00    -0.201 C  
BRANCH  19  20
HETATM   20  C   UNL     1     -11.074  12.069  68.679  1.00  0.00    -0.298 C  
HETATM   21  C   UNL     1     -12.017  12.368  69.586  1.00  0.00    -0.341 C  
BRANCH  21  22
HETATM   22  C   UNL     1     -12.408  11.524  70.761  1.00  0.00    -0.472 C  
BRANCH  22  23
HETATM   23  C   UNL     1     -13.128  12.324  71.846  1.00  0.00    -0.469 C  
BRANCH  23  24
HETATM   24  C   UNL     1     -13.083  13.813  71.498  1.00  0.00    -0.435 C  
HETATM   25  C   UNL     1     -12.957  14.691  72.716  1.00  0.00    -0.470 C  
HETATM   26  O   UNL     1     -12.897  14.300  73.869  1.00  0.00    -0.285 OA 
HETATM   27  O   UNL     1     -12.917  16.005  72.389  1.00  0.00    -0.451 OA 
ENDBRANCH  23  24
ENDBRANCH  22  23
ENDBRANCH  21  22
ENDBRANCH  19  20
ENDBRANCH  18  19
ENDBRANCH  10  11
ENDBRANCH   6   9
ENDBRANCH   5   6
ENDBRANCH   4   5
ENDBRANCH   3   4
ENDBRANCH   2   3
TORSDOF 11
ENDMDL
MODEL      177
REMARK 921   NORMALIZED FREE ENERGY PREDICTED BY IDOCK:   -4.39 KCAL/MOL
REMARK 922        TOTAL FREE ENERGY PREDICTED BY IDOCK:   -9.03 KCAL/MOL
REMARK 923 INTER-LIGAND FREE ENERGY PREDICTED BY IDOCK:   -7.36 KCAL/MOL
REMARK 924 INTRA-LIGAND FREE ENERGY PREDICTED BY IDOCK:   -1.67 KCAL/MOL
REMARK 927      BINDING AFFINITY PREDICTED BY RF-SCORE:    0.00 PKD
ROOT
HETATM    1  C   UNL     1      -8.369   7.176  73.194  1.00  0.00    -0.134 C  
HETATM    2  C   UNL     1      -9.439   8.239  73.030  1.00  0.00    -0.298 C  
ENDROOT
BRANCH   2   3
HETATM    3  C   UNL     1     -10.850   7.654  73.119  1.00  0.00    -0.440 C  
BRANCH   3   4
HETATM    4  C   UNL     1     -11.677   8.084  71.907  1.00  0.00    -0.351 C  
BRANCH   4   5
HETATM    5  C   UNL     1     -12.244   6.894  71.133  1.00  0.00    -0.428 C  
BRANCH   5   6
HETATM    6  C   UNL     1     -11.394   6.503  69.911  1.00  0.00    -0.406 C  
HETATM    7  O   UNL     1     -10.385   5.609  70.373  1.00  0.00    -0.221 OA 
HETATM    8  H   UNL     1      -9.861   5.368  69.619  1.00  0.00     0.000 HD 
BRANCH   6   9
HETATM    9  C   UNL     1     -10.775   7.697  69.213  1.00  0.00    -0.169 C  
HETATM   10  C   UNL     1      -9.483   7.847  68.871  1.00  0.00    -0.150 C  
BRANCH  10  11
HETATM   11  C   UNL     1      -8.868   9.129  68.346  1.00  0.00    -0.129 C  
HETATM   12  C   UNL     1      -7.712   9.565  69.273  1.00  0.00    -0.086 C  
HETATM   13  O   UNL     1      -8.185  10.207  70.448  1.00  0.00    -0.392 OA 
HETATM   14  C   UNL     1      -6.864  10.511  68.450  1.00  0.00    -0.064 C  
HETATM   15  H   UNL     1      -7.473  10.474  71.018  1.00  0.00     0.000 HD 
HETATM   16  C   UNL     1      -7.007   9.918  67.084  1.00  0.00    -0.084 C  
HETATM   17  O   UNL     1      -6.211  10.159  66.183  1.00  0.00    -0.070 OA 
HETATM   18  C   UNL     1      -8.236   9.032  66.937  1.00  0.00    -0.116 C  
BRANCH  18  19
HETATM   19  C   UNL     1      -9.193   9.574  65.864  1.00  0.00    -0.260 C  
BRANCH  19  20
HETATM   20  C   UNL     1     -10.034  10.741  66.313  1.00  0.00    -0.272 C  
HETATM   21  C   UNL     1     -10.831  11.518  65.564  1.00  0.00    -0.313 C  
BRANCH  21  22
HETATM   22  C   UNL     1     -11.039  11.401  64.085  1.00  0.00    -0.382 C  
BRANCH  22  23
HETATM   23  C   UNL     1     -12.287  12.140  63.606  1.00  0.00    -0.673 C  
BRANCH  23  24
HETATM   24  C   UNL     1     -11.922  13.581  63.245  1.00  0.00    -0.182 C  
HETATM   25  C   UNL     1     -12.426  14.579  64.256  1.00  0.00    -0.264 C  
HETATM   26  O   UNL     1     -13.059  14.311  65.262  1.00  0.00    -0.707 OA 
HETATM   27  O   UNL     1     -12.091  15.848  63.921  1.00  0.00    -0.768 OA 
ENDBRANCH  23  24
ENDBRANCH  22  23
ENDBRANCH  21  22
ENDBRANCH  19  20
ENDBRANCH  18  19
ENDBRANCH  10  11
ENDBRANCH   6   9
ENDBRANCH   5   6
ENDBRANCH   4   5
ENDBRANCH   3   4
ENDBRANCH   2   3
TORSDOF 11
ENDMDL
MODEL      178
REMARK 921   NORMALIZED FREE ENERGY PREDICTED BY IDOCK:   -4.39 KCAL/MOL
REMARK 922        TOTAL FREE ENERGY PREDICTED BY IDOCK:   -9.03 KCAL/MOL
REMARK 923 INTER-LIGAND FREE ENERGY PREDICTED BY IDOCK:   -7.32 KCAL/MOL
REMARK 924 INTRA-LIGAND FREE ENERGY PREDICTED BY IDOCK:   -1.70 KCAL/MOL
REMARK 927      BINDING AFFINITY PREDICTED BY RF-SCORE:    0.00 PKD
ROOT
HETATM    1  C   UNL     1      -9.313   9.899  69.233  1.00  0.00    -0.215 C  
HETATM    2  C   UNL     1      -8.673   9.059  68.143  1.00  0.00    -0.130 C  
ENDROOT
BRANCH   2   3
HETATM    3  C   UNL     1      -9.683   8.637  67.075  1.00  0.00    -0.262 C  
BRANCH   3   4
HETATM    4  C   UNL     1     -10.532   9.836  66.648  1.00  0.00    -0.233 C  
BRANCH   4   5
HETATM    5  C   UNL     1     -10.009  10.500  65.373  1.00  0.00    -0.353 C  
BRANCH   5   6
HETATM    6  C   UNL     1     -10.714  11.828  65.047  1.00  0.00    -0.292 C  
HETATM    7  O   UNL     1     -10.196  12.279  63.798  1.00  0.00    -0.387 OA 
HETATM    8  H   UNL     1     -10.631  13.099  63.597  1.00  0.00     0.000 HD 
BRANCH   6   9
HETATM    9  C   UNL     1     -10.521  12.881  66.120  1.00  0.00    -0.283 C  
HETATM   10  C   UNL     1     -11.216  14.024  66.258  1.00  0.00    -0.320 C  
BRANCH  10  11
HETATM   11  C   UNL     1     -10.871  15.137  67.227  1.00  0.00    -0.316 C  
HETATM   12  C   UNL     1     -11.183  14.681  68.669  1.00  0.00    -0.275 C  
HETATM   13  O   UNL     1     -12.570  14.773  68.967  1.00  0.00    -0.568 OA 
HETATM   14  C   UNL     1     -10.380  15.594  69.569  1.00  0.00    -0.277 C  
HETATM   15  H   UNL     1     -12.762  14.493  69.855  1.00  0.00     0.000 HD 
HETATM   16  C   UNL     1      -9.159  15.825  68.736  1.00  0.00    -0.213 C  
HETATM   17  O   UNL     1      -8.104  16.217  69.221  1.00  0.00    -0.237 OA 
HETATM   18  C   UNL     1      -9.381  15.554  67.254  1.00  0.00    -0.220 C  
BRANCH  18  19
HETATM   19  C   UNL     1      -9.145  16.817  66.412  1.00  0.00    -0.321 C  
BRANCH  19  20
HETATM   20  C   UNL     1     -10.352  17.710  66.280  1.00  0.00    -0.342 C  
HETATM   21  C   UNL     1     -10.714  18.728  67.077  1.00  0.00    -0.435 C  
BRANCH  21  22
HETATM   22  C   UNL     1      -9.991  19.184  68.307  1.00  0.00    -0.482 C  
BRANCH  22  23
HETATM   23  C   UNL     1      -8.642  19.828  67.992  1.00  0.00    -0.340 C  
BRANCH  23  24
HETATM   24  C   UNL     1      -7.770  19.831  69.248  1.00  0.00    -0.109 C  
HETATM   25  C   UNL     1      -6.436  19.162  69.032  1.00  0.00    -0.283 C  
HETATM   26  O   UNL     1      -6.055  18.660  67.989  1.00  0.00    -0.192 OA 
HETATM   27  O   UNL     1      -5.678  19.177  70.154  1.00  0.00    -0.239 OA 
ENDBRANCH  23  24
ENDBRANCH  22  23
ENDBRANCH  21  22
ENDBRANCH  19  20
ENDBRANCH  18  19
ENDBRANCH  10  11
ENDBRANCH   6   9
ENDBRANCH   5   6
ENDBRANCH   4   5
ENDBRANCH   3   4
ENDBRANCH   2   3
TORSDOF 11
ENDMDL
MODEL      179
REMARK 921   NORMALIZED FREE ENERGY PREDICTED BY IDOCK:   -4.39 KCAL/MOL
REMARK 922        TOTAL FREE ENERGY PREDICTED BY IDOCK:   -9.02 KCAL/MOL
REMARK 923 INTER-LIGAND FREE ENERGY PREDICTED BY IDOCK:   -7.03 KCAL/MOL
REMARK 924 INTRA-LIGAND FREE ENERGY PREDICTED BY IDOCK:   -1.99 KCAL/MOL
REMARK 927      BINDING AFFINITY PREDICTED BY RF-SCORE:    0.00 PKD
ROOT
HETATM    1  C   UNL     1     -12.453  14.037  71.298  1.00  0.00    -0.448 C  
HETATM    2  C   UNL     1     -12.094  14.873  70.083  1.00  0.00    -0.379 C  
ENDROOT
BRANCH   2   3
HETATM    3  C   UNL     1     -11.231  14.098  69.087  1.00  0.00    -0.307 C  
BRANCH   3   4
HETATM    4  C   UNL     1     -12.080  13.630  67.904  1.00  0.00    -0.318 C  
BRANCH   4   5
HETATM    5  C   UNL     1     -11.504  14.071  66.558  1.00  0.00    -0.368 C  
BRANCH   5   6
HETATM    6  C   UNL     1     -11.262  12.900  65.588  1.00  0.00    -0.295 C  
HETATM    7  O   UNL     1     -12.541  12.390  65.222  1.00  0.00    -0.636 OA 
HETATM    8  H   UNL     1     -12.392  11.669  64.624  1.00  0.00     0.000 HD 
BRANCH   6   9
HETATM    9  C   UNL     1     -10.398  11.807  66.182  1.00  0.00    -0.266 C  
HETATM   10  C   UNL     1     -10.825  10.679  66.777  1.00  0.00    -0.233 C  
BRANCH  10  11
HETATM   11  C   UNL     1      -9.938   9.702  67.524  1.00  0.00    -0.231 C  
HETATM   12  C   UNL     1      -9.760   8.419  66.683  1.00  0.00    -0.251 C  
HETATM   13  O   UNL     1     -10.886   7.559  66.780  1.00  0.00    -0.464 OA 
HETATM   14  C   UNL     1      -8.521   7.743  67.228  1.00  0.00    -0.118 C  
HETATM   15  H   UNL     1     -10.776   6.770  66.263  1.00  0.00     0.000 HD 
HETATM   16  C   UNL     1      -7.687   8.925  67.609  1.00  0.00    -0.101 C  
HETATM   17  O   UNL     1      -6.474   8.844  67.764  1.00  0.00    -0.059 OA 
HETATM   18  C   UNL     1      -8.500  10.197  67.808  1.00  0.00    -0.114 C  
BRANCH  18  19
HETATM   19  C   UNL     1      -8.371  10.727  69.244  1.00  0.00    -0.072 C  
BRANCH  19  20
HETATM   20  C   UNL     1      -8.193   9.655  70.288  1.00  0.00    -0.217 C  
HETATM   21  C   UNL     1      -9.123   9.143  71.109  1.00  0.00    -0.275 C  
BRANCH  21  22
HETATM   22  C   UNL     1     -10.561   9.557  71.179  1.00  0.00    -0.388 C  
BRANCH  22  23
HETATM   23  C   UNL     1     -11.516   8.433  70.781  1.00  0.00    -0.277 C  
BRANCH  23  24
HETATM   24  C   UNL     1     -10.957   7.092  71.259  1.00  0.00    -0.264 C  
HETATM   25  C   UNL     1     -10.971   6.038  70.182  1.00  0.00    -0.359 C  
HETATM   26  O   UNL     1     -11.377   6.194  69.043  1.00  0.00    -0.390 OA 
HETATM   27  O   UNL     1     -10.471   4.860  70.622  1.00  0.00    -0.202 OA 
ENDBRANCH  23  24
ENDBRANCH  22  23
ENDBRANCH  21  22
ENDBRANCH  19  20
ENDBRANCH  18  19
ENDBRANCH  10  11
ENDBRANCH   6   9
ENDBRANCH   5   6
ENDBRANCH   4   5
ENDBRANCH   3   4
ENDBRANCH   2   3
TORSDOF 11
ENDMDL
MODEL      180
REMARK 921   NORMALIZED FREE ENERGY PREDICTED BY IDOCK:   -4.37 KCAL/MOL
REMARK 922        TOTAL FREE ENERGY PREDICTED BY IDOCK:   -8.99 KCAL/MOL
REMARK 923 INTER-LIGAND FREE ENERGY PREDICTED BY IDOCK:   -7.21 KCAL/MOL
REMARK 924 INTRA-LIGAND FREE ENERGY PREDICTED BY IDOCK:   -1.78 KCAL/MOL
REMARK 927      BINDING AFFINITY PREDICTED BY RF-SCORE:    0.00 PKD
ROOT
HETATM    1  C   UNL     1     -12.763  13.202  65.104  1.00  0.00    -0.468 C  
HETATM    2  C   UNL     1     -12.645  12.254  63.925  1.00  0.00    -0.544 C  
ENDROOT
BRANCH   2   3
HETATM    3  C   UNL     1     -11.269  11.589  63.858  1.00  0.00    -0.439 C  
BRANCH   3   4
HETATM    4  C   UNL     1     -10.311  12.257  64.846  1.00  0.00    -0.319 C  
BRANCH   4   5
HETATM    5  C   UNL     1      -9.442  11.245  65.594  1.00  0.00    -0.254 C  
BRANCH   5   6
HETATM    6  C   UNL     1      -9.036  11.716  67.002  1.00  0.00    -0.179 C  
HETATM    7  O   UNL     1      -7.825  12.452  66.862  1.00  0.00    -0.337 OA 
HETATM    8  H   UNL     1      -7.574  12.743  67.731  1.00  0.00     0.000 HD 
BRANCH   6   9
HETATM    9  C   UNL     1      -8.861  10.574  67.982  1.00  0.00    -0.131 C  
HETATM   10  C   UNL     1      -9.791   9.671  68.339  1.00  0.00    -0.170 C  
BRANCH  10  11
HETATM   11  C   UNL     1      -9.635   8.661  69.459  1.00  0.00    -0.170 C  
HETATM   12  C   UNL     1      -8.139   8.324  69.645  1.00  0.00    -0.116 C  
HETATM   13  O   UNL     1      -7.676   7.400  68.671  1.00  0.00    -0.114 OA 
HETATM   14  C   UNL     1      -8.024   7.739  71.036  1.00  0.00    -0.090 C  
HETATM   15  H   UNL     1      -6.756   7.193  68.786  1.00  0.00     0.000 HD 
HETATM   16  C   UNL     1      -9.069   8.519  71.769  1.00  0.00    -0.235 C  
HETATM   17  O   UNL     1      -9.073   8.615  72.991  1.00  0.00    -0.293 OA 
HETATM   18  C   UNL     1     -10.115   9.136  70.850  1.00  0.00    -0.356 C  
BRANCH  18  19
HETATM   19  C   UNL     1     -11.521   8.602  71.163  1.00  0.00    -0.332 C  
BRANCH  19  20
HETATM   20  C   UNL     1     -12.408   9.577  71.893  1.00  0.00    -0.450 C  
HETATM   21  C   UNL     1     -12.892  10.746  71.444  1.00  0.00    -0.557 C  
BRANCH  21  22
HETATM   22  C   UNL     1     -12.626  11.351  70.100  1.00  0.00    -0.174 C  
BRANCH  22  23
HETATM   23  C   UNL     1     -11.882  12.682  70.191  1.00  0.00    -0.326 C  
BRANCH  23  24
HETATM   24  C   UNL     1     -12.078  13.468  68.894  1.00  0.00    -0.315 C  
HETATM   25  C   UNL     1     -11.248  14.726  68.845  1.00  0.00    -0.266 C  
HETATM   26  O   UNL     1     -10.494  15.112  69.721  1.00  0.00    -0.250 OA 
HETATM   27  O   UNL     1     -11.433  15.407  67.689  1.00  0.00    -0.326 OA 
ENDBRANCH  23  24
ENDBRANCH  22  23
ENDBRANCH  21  22
ENDBRANCH  19  20
ENDBRANCH  18  19
ENDBRANCH  10  11
ENDBRANCH   6   9
ENDBRANCH   5   6
ENDBRANCH   4   5
ENDBRANCH   3   4
ENDBRANCH   2   3
TORSDOF 11
ENDMDL
MODEL      181
REMARK 921   NORMALIZED FREE ENERGY PREDICTED BY IDOCK:   -4.37 KCAL/MOL
REMARK 922        TOTAL FREE ENERGY PREDICTED BY IDOCK:   -8.99 KCAL/MOL
REMARK 923 INTER-LIGAND FREE ENERGY PREDICTED BY IDOCK:   -6.72 KCAL/MOL
REMARK 924 INTRA-LIGAND FREE ENERGY PREDICTED BY IDOCK:   -2.27 KCAL/MOL
REMARK 927      BINDING AFFINITY PREDICTED BY RF-SCORE:    0.00 PKD
ROOT
HETATM    1  C   UNL     1      -8.759   9.105  70.825  1.00  0.00    -0.285 C  
HETATM    2  C   UNL     1      -8.043   8.247  69.799  1.00  0.00    -0.118 C  
ENDROOT
BRANCH   2   3
HETATM    3  C   UNL     1      -7.131   9.075  68.892  1.00  0.00    -0.069 C  
BRANCH   3   4
HETATM    4  C   UNL     1      -7.130   8.497  67.476  1.00  0.00    -0.080 C  
BRANCH   4   5
HETATM    5  C   UNL     1      -8.454   7.820  67.118  1.00  0.00    -0.124 C  
BRANCH   5   6
HETATM    6  C   UNL     1      -9.255   8.582  66.048  1.00  0.00    -0.202 C  
HETATM    7  O   UNL     1      -8.323   9.024  65.065  1.00  0.00    -0.146 OA 
HETATM    8  H   UNL     1      -8.818   9.494  64.405  1.00  0.00     0.000 HD 
BRANCH   6   9
HETATM    9  C   UNL     1     -10.035   9.752  66.612  1.00  0.00    -0.292 C  
HETATM   10  C   UNL     1     -10.712   9.782  67.774  1.00  0.00    -0.329 C  
BRANCH  10  11
HETATM   11  C   UNL     1     -11.632  10.904  68.214  1.00  0.00    -0.335 C  
HETATM   12  C   UNL     1     -11.682  10.955  69.756  1.00  0.00    -0.338 C  
HETATM   13  O   UNL     1     -12.543   9.961  70.294  1.00  0.00    -0.510 OA 
HETATM   14  C   UNL     1     -12.183  12.341  70.102  1.00  0.00    -0.302 C  
HETATM   15  H   UNL     1     -12.574   9.994  71.243  1.00  0.00     0.000 HD 
HETATM   16  C   UNL     1     -11.579  13.153  69.000  1.00  0.00    -0.312 C  
HETATM   17  O   UNL     1     -11.438  14.367  69.087  1.00  0.00    -0.260 OA 
HETATM   18  C   UNL     1     -11.199  12.324  67.780  1.00  0.00    -0.331 C  
BRANCH  18  19
HETATM   19  C   UNL     1     -11.969  12.780  66.531  1.00  0.00    -0.428 C  
BRANCH  19  20
HETATM   20  C   UNL     1     -11.097  13.078  65.338  1.00  0.00    -0.300 C  
HETATM   21  C   UNL     1     -10.491  14.235  65.029  1.00  0.00    -0.458 C  
BRANCH  21  22
HETATM   22  C   UNL     1     -10.576  15.510  65.810  1.00  0.00    -0.370 C  
BRANCH  22  23
HETATM   23  C   UNL     1      -9.202  16.080  66.158  1.00  0.00    -0.388 C  
BRANCH  23  24
HETATM   24  C   UNL     1      -8.388  15.028  66.912  1.00  0.00    -0.247 C  
HETATM   25  C   UNL     1      -8.239  15.349  68.377  1.00  0.00    -0.142 C  
HETATM   26  O   UNL     1      -8.698  16.329  68.939  1.00  0.00    -0.231 OA 
HETATM   27  O   UNL     1      -7.517  14.406  69.029  1.00  0.00    -0.126 OA 
ENDBRANCH  23  24
ENDBRANCH  22  23
ENDBRANCH  21  22
ENDBRANCH  19  20
ENDBRANCH  18  19
ENDBRANCH  10  11
ENDBRANCH   6   9
ENDBRANCH   5   6
ENDBRANCH   4   5
ENDBRANCH   3   4
ENDBRANCH   2   3
TORSDOF 11
ENDMDL
MODEL      182
REMARK 921   NORMALIZED FREE ENERGY PREDICTED BY IDOCK:   -4.36 KCAL/MOL
REMARK 922        TOTAL FREE ENERGY PREDICTED BY IDOCK:   -8.98 KCAL/MOL
REMARK 923 INTER-LIGAND FREE ENERGY PREDICTED BY IDOCK:   -7.15 KCAL/MOL
REMARK 924 INTRA-LIGAND FREE ENERGY PREDICTED BY IDOCK:   -1.84 KCAL/MOL
REMARK 927      BINDING AFFINITY PREDICTED BY RF-SCORE:    0.00 PKD
ROOT
HETATM    1  C   UNL     1      -7.738   7.694  72.327  1.00  0.00    -0.106 C  
HETATM    2  C   UNL     1      -8.959   8.495  72.740  1.00  0.00    -0.205 C  
ENDROOT
BRANCH   2   3
HETATM    3  C   UNL     1     -10.032   7.616  73.385  1.00  0.00    -0.373 C  
BRANCH   3   4
HETATM    4  C   UNL     1     -11.339   7.714  72.596  1.00  0.00    -0.423 C  
BRANCH   4   5
HETATM    5  C   UNL     1     -11.887   6.342  72.199  1.00  0.00    -0.361 C  
BRANCH   5   6
HETATM    6  C   UNL     1     -11.360   5.848  70.840  1.00  0.00    -0.148 C  
HETATM    7  O   UNL     1     -10.206   5.055  71.105  1.00  0.00    -0.213 OA 
HETATM    8  H   UNL     1      -9.881   4.749  70.266  1.00  0.00     0.000 HD 
BRANCH   6   9
HETATM    9  C   UNL     1     -11.029   6.977  69.886  1.00  0.00    -0.296 C  
HETATM   10  C   UNL     1      -9.876   7.150  69.215  1.00  0.00    -0.161 C  
BRANCH  10  11
HETATM   11  C   UNL     1      -9.514   8.388  68.418  1.00  0.00    -0.145 C  
HETATM   12  C   UNL     1      -8.379   8.050  67.427  1.00  0.00    -0.123 C  
HETATM   13  O   UNL     1      -7.109   8.018  68.064  1.00  0.00    -0.081 OA 
HETATM   14  C   UNL     1      -8.423   9.133  66.372  1.00  0.00    -0.129 C  
HETATM   15  H   UNL     1      -6.411   7.811  67.453  1.00  0.00     0.000 HD 
HETATM   16  C   UNL     1      -9.891   9.411  66.299  1.00  0.00    -0.281 C  
HETATM   17  O   UNL     1     -10.402   9.965  65.333  1.00  0.00    -0.207 OA 
HETATM   18  C   UNL     1     -10.650   8.967  67.542  1.00  0.00    -0.306 C  
BRANCH  18  19
HETATM   19  C   UNL     1     -11.333  10.156  68.237  1.00  0.00    -0.183 C  
BRANCH  19  20
HETATM   20  C   UNL     1     -10.388  11.245  68.676  1.00  0.00    -0.217 C  
HETATM   21  C   UNL     1     -10.269  12.484  68.172  1.00  0.00    -0.231 C  
BRANCH  21  22
HETATM   22  C   UNL     1     -11.051  13.048  67.026  1.00  0.00    -0.311 C  
BRANCH  22  23
HETATM   23  C   UNL     1     -10.819  14.546  66.837  1.00  0.00    -0.305 C  
BRANCH  23  24
HETATM   24  C   UNL     1     -11.499  15.011  65.549  1.00  0.00    -0.265 C  
HETATM   25  C   UNL     1     -10.898  16.279  64.999  1.00  0.00    -0.320 C  
HETATM   26  O   UNL     1      -9.973  16.899  65.495  1.00  0.00    -0.572 OA 
HETATM   27  O   UNL     1     -11.511  16.674  63.857  1.00  0.00    -1.186 OA 
ENDBRANCH  23  24
ENDBRANCH  22  23
ENDBRANCH  21  22
ENDBRANCH  19  20
ENDBRANCH  18  19
ENDBRANCH  10  11
ENDBRANCH   6   9
ENDBRANCH   5   6
ENDBRANCH   4   5
ENDBRANCH   3   4
ENDBRANCH   2   3
TORSDOF 11
ENDMDL
MODEL      183
REMARK 921   NORMALIZED FREE ENERGY PREDICTED BY IDOCK:   -4.36 KCAL/MOL
REMARK 922        TOTAL FREE ENERGY PREDICTED BY IDOCK:   -8.98 KCAL/MOL
REMARK 923 INTER-LIGAND FREE ENERGY PREDICTED BY IDOCK:   -7.67 KCAL/MOL
REMARK 924 INTRA-LIGAND FREE ENERGY PREDICTED BY IDOCK:   -1.31 KCAL/MOL
REMARK 927      BINDING AFFINITY PREDICTED BY RF-SCORE:    0.00 PKD
ROOT
HETATM    1  C   UNL     1     -10.352  19.196  66.241  1.00  0.00    -0.553 C  
HETATM    2  C   UNL     1     -10.499  17.873  66.969  1.00  0.00    -0.345 C  
ENDROOT
BRANCH   2   3
HETATM    3  C   UNL     1     -10.369  16.678  66.023  1.00  0.00    -0.352 C  
BRANCH   3   4
HETATM    4  C   UNL     1     -10.296  15.377  66.823  1.00  0.00    -0.279 C  
BRANCH   4   5
HETATM    5  C   UNL     1     -11.652  14.678  66.931  1.00  0.00    -0.374 C  
BRANCH   5   6
HETATM    6  C   UNL     1     -12.151  14.112  65.589  1.00  0.00    -0.415 C  
HETATM    7  O   UNL     1     -13.560  14.323  65.547  1.00  0.00    -0.650 OA 
HETATM    8  H   UNL     1     -13.868  13.974  64.719  1.00  0.00     0.000 HD 
BRANCH   6   9
HETATM    9  C   UNL     1     -11.822  12.645  65.405  1.00  0.00    -0.473 C  
HETATM   10  C   UNL     1     -10.607  12.077  65.494  1.00  0.00    -0.313 C  
BRANCH  10  11
HETATM   11  C   UNL     1     -10.290  10.642  65.119  1.00  0.00    -0.331 C  
HETATM   12  C   UNL     1      -9.481  10.619  63.804  1.00  0.00    -0.290 C  
HETATM   13  O   UNL     1     -10.313  10.793  62.665  1.00  0.00    -0.761 OA 
HETATM   14  C   UNL     1      -8.800   9.268  63.768  1.00  0.00    -0.150 C  
HETATM   15  H   UNL     1      -9.814  10.778  61.856  1.00  0.00     0.000 HD 
HETATM   16  C   UNL     1      -8.531   9.038  65.222  1.00  0.00    -0.166 C  
HETATM   17  O   UNL     1      -7.689   8.237  65.610  1.00  0.00    -0.086 OA 
HETATM   18  C   UNL     1      -9.420   9.868  66.137  1.00  0.00    -0.254 C  
BRANCH  18  19
HETATM   19  C   UNL     1     -10.287   8.975  67.038  1.00  0.00    -0.339 C  
BRANCH  19  20
HETATM   20  C   UNL     1     -10.720   9.626  68.327  1.00  0.00    -0.262 C  
HETATM   21  C   UNL     1     -10.734   9.088  69.557  1.00  0.00    -0.215 C  
BRANCH  21  22
HETATM   22  C   UNL     1     -10.336   7.688  69.911  1.00  0.00    -0.225 C  
BRANCH  22  23
HETATM   23  C   UNL     1      -8.849   7.564  70.238  1.00  0.00    -0.146 C  
BRANCH  23  24
HETATM   24  C   UNL     1      -8.356   8.863  70.877  1.00  0.00    -0.219 C  
HETATM   25  C   UNL     1      -7.182   9.461  70.145  1.00  0.00    -0.096 C  
HETATM   26  O   UNL     1      -6.652   8.994  69.152  1.00  0.00    -0.049 OA 
HETATM   27  O   UNL     1      -6.760  10.611  70.724  1.00  0.00    -0.322 OA 
ENDBRANCH  23  24
ENDBRANCH  22  23
ENDBRANCH  21  22
ENDBRANCH  19  20
ENDBRANCH  18  19
ENDBRANCH  10  11
ENDBRANCH   6   9
ENDBRANCH   5   6
ENDBRANCH   4   5
ENDBRANCH   3   4
ENDBRANCH   2   3
TORSDOF 11
ENDMDL
MODEL      184
REMARK 921   NORMALIZED FREE ENERGY PREDICTED BY IDOCK:   -4.36 KCAL/MOL
REMARK 922        TOTAL FREE ENERGY PREDICTED BY IDOCK:   -8.98 KCAL/MOL
REMARK 923 INTER-LIGAND FREE ENERGY PREDICTED BY IDOCK:   -7.28 KCAL/MOL
REMARK 924 INTRA-LIGAND FREE ENERGY PREDICTED BY IDOCK:   -1.70 KCAL/MOL
REMARK 927      BINDING AFFINITY PREDICTED BY RF-SCORE:    0.00 PKD
ROOT
HETATM    1  C   UNL     1      -6.342  20.433  68.791  1.00  0.00    -0.338 C  
HETATM    2  C   UNL     1      -7.032  19.330  68.010  1.00  0.00    -0.282 C  
ENDROOT
BRANCH   2   3
HETATM    3  C   UNL     1      -7.013  17.997  68.760  1.00  0.00    -0.264 C  
BRANCH   3   4
HETATM    4  C   UNL     1      -8.304  17.221  68.490  1.00  0.00    -0.267 C  
BRANCH   4   5
HETATM    5  C   UNL     1      -8.338  16.610  67.088  1.00  0.00    -0.202 C  
BRANCH   5   6
HETATM    6  C   UNL     1      -9.709  16.742  66.401  1.00  0.00    -0.290 C  
HETATM    7  O   UNL     1     -10.635  17.170  67.397  1.00  0.00    -0.337 OA 
HETATM    8  H   UNL     1     -11.480  17.252  66.973  1.00  0.00     0.000 HD 
BRANCH   6   9
HETATM    9  C   UNL     1     -10.175  15.454  65.754  1.00  0.00    -0.378 C  
HETATM   10  C   UNL     1     -11.356  14.839  65.945  1.00  0.00    -0.331 C  
BRANCH  10  11
HETATM   11  C   UNL     1     -11.709  13.460  65.427  1.00  0.00    -0.354 C  
HETATM   12  C   UNL     1     -11.451  13.398  63.905  1.00  0.00    -0.309 C  
HETATM   13  O   UNL     1     -12.497  14.007  63.163  1.00  0.00    -1.137 OA 
HETATM   14  C   UNL     1     -11.343  11.926  63.570  1.00  0.00    -0.516 C  
HETATM   15  H   UNL     1     -12.338  13.969  62.227  1.00  0.00     0.000 HD 
HETATM   16  C   UNL     1     -10.701  11.390  64.811  1.00  0.00    -0.298 C  
HETATM   17  O   UNL     1     -10.118  10.312  64.829  1.00  0.00    -0.344 OA 
HETATM   18  C   UNL     1     -10.880  12.296  66.021  1.00  0.00    -0.310 C  
BRANCH  18  19
HETATM   19  C   UNL     1     -11.650  11.586  67.145  1.00  0.00    -0.249 C  
BRANCH  19  20
HETATM   20  C   UNL     1     -11.081  11.805  68.523  1.00  0.00    -0.288 C  
HETATM   21  C   UNL     1     -10.066  11.150  69.108  1.00  0.00    -0.134 C  
BRANCH  21  22
HETATM   22  C   UNL     1      -9.285  10.021  68.511  1.00  0.00    -0.141 C  
BRANCH  22  23
HETATM   23  C   UNL     1      -7.922  10.465  67.982  1.00  0.00    -0.105 C  
BRANCH  23  24
HETATM   24  C   UNL     1      -7.374  11.591  68.859  1.00  0.00    -0.116 C  
HETATM   25  C   UNL     1      -7.336  12.918  68.144  1.00  0.00    -0.119 C  
HETATM   26  O   UNL     1      -7.690  13.115  66.994  1.00  0.00    -0.069 OA 
HETATM   27  O   UNL     1      -6.851  13.904  68.937  1.00  0.00    -0.099 OA 
ENDBRANCH  23  24
ENDBRANCH  22  23
ENDBRANCH  21  22
ENDBRANCH  19  20
ENDBRANCH  18  19
ENDBRANCH  10  11
ENDBRANCH   6   9
ENDBRANCH   5   6
ENDBRANCH   4   5
ENDBRANCH   3   4
ENDBRANCH   2   3
TORSDOF 11
ENDMDL
MODEL      185
REMARK 921   NORMALIZED FREE ENERGY PREDICTED BY IDOCK:   -4.34 KCAL/MOL
REMARK 922        TOTAL FREE ENERGY PREDICTED BY IDOCK:   -8.94 KCAL/MOL
REMARK 923 INTER-LIGAND FREE ENERGY PREDICTED BY IDOCK:   -7.32 KCAL/MOL
REMARK 924 INTRA-LIGAND FREE ENERGY PREDICTED BY IDOCK:   -1.62 KCAL/MOL
REMARK 927      BINDING AFFINITY PREDICTED BY RF-SCORE:    0.00 PKD
ROOT
HETATM    1  C   UNL     1      -7.475  10.103  62.617  1.00  0.00    -0.143 C  
HETATM    2  C   UNL     1      -8.913   9.919  63.063  1.00  0.00    -0.273 C  
ENDROOT
BRANCH   2   3
HETATM    3  C   UNL     1      -9.584  11.250  63.408  1.00  0.00    -0.351 C  
BRANCH   3   4
HETATM    4  C   UNL     1     -10.445  11.097  64.663  1.00  0.00    -0.400 C  
BRANCH   4   5
HETATM    5  C   UNL     1     -10.018   9.909  65.526  1.00  0.00    -0.363 C  
BRANCH   5   6
HETATM    6  C   UNL     1     -10.207  10.154  67.033  1.00  0.00    -0.234 C  
HETATM    7  O   UNL     1     -11.532   9.742  67.359  1.00  0.00    -0.340 OA 
HETATM    8  H   UNL     1     -11.649   9.893  68.289  1.00  0.00     0.000 HD 
BRANCH   6   9
HETATM    9  C   UNL     1      -9.980  11.598  67.433  1.00  0.00    -0.200 C  
HETATM   10  C   UNL     1     -10.921  12.494  67.777  1.00  0.00    -0.270 C  
BRANCH  10  11
HETATM   11  C   UNL     1     -10.674  13.975  67.988  1.00  0.00    -0.253 C  
HETATM   12  C   UNL     1     -11.111  14.373  69.414  1.00  0.00    -0.261 C  
HETATM   13  O   UNL     1     -12.519  14.537  69.513  1.00  0.00    -0.526 OA 
HETATM   14  C   UNL     1     -10.398  15.675  69.710  1.00  0.00    -0.309 C  
HETATM   15  H   UNL     1     -12.787  14.783  70.391  1.00  0.00     0.000 HD 
HETATM   16  C   UNL     1      -9.110  15.476  68.977  1.00  0.00    -0.236 C  
HETATM   17  O   UNL     1      -8.106  16.130  69.235  1.00  0.00    -0.236 OA 
HETATM   18  C   UNL     1      -9.196  14.421  67.883  1.00  0.00    -0.195 C  
BRANCH  18  19
HETATM   19  C   UNL     1      -8.895  15.020  66.501  1.00  0.00    -0.286 C  
BRANCH  19  20
HETATM   20  C   UNL     1      -9.954  15.962  65.989  1.00  0.00    -0.360 C  
HETATM   21  C   UNL     1      -9.931  17.304  65.988  1.00  0.00    -0.249 C  
BRANCH  21  22
HETATM   22  C   UNL     1      -8.834  18.167  66.532  1.00  0.00    -0.286 C  
BRANCH  22  23
HETATM   23  C   UNL     1      -9.298  19.046  67.692  1.00  0.00    -0.342 C  
BRANCH  23  24
HETATM   24  C   UNL     1      -8.110  19.356  68.605  1.00  0.00    -0.402 C  
HETATM   25  C   UNL     1      -7.289  20.521  68.115  1.00  0.00    -0.103 C  
HETATM   26  O   UNL     1      -7.510  21.171  67.107  1.00  0.00    -0.380 OA 
HETATM   27  O   UNL     1      -6.244  20.783  68.936  1.00  0.00    -0.318 OA 
ENDBRANCH  23  24
ENDBRANCH  22  23
ENDBRANCH  21  22
ENDBRANCH  19  20
ENDBRANCH  18  19
ENDBRANCH  10  11
ENDBRANCH   6   9
ENDBRANCH   5   6
ENDBRANCH   4   5
ENDBRANCH   3   4
ENDBRANCH   2   3
TORSDOF 11
ENDMDL
MODEL      186
REMARK 921   NORMALIZED FREE ENERGY PREDICTED BY IDOCK:   -4.33 KCAL/MOL
REMARK 922        TOTAL FREE ENERGY PREDICTED BY IDOCK:   -8.93 KCAL/MOL
REMARK 923 INTER-LIGAND FREE ENERGY PREDICTED BY IDOCK:   -7.31 KCAL/MOL
REMARK 924 INTRA-LIGAND FREE ENERGY PREDICTED BY IDOCK:   -1.63 KCAL/MOL
REMARK 927      BINDING AFFINITY PREDICTED BY RF-SCORE:    0.00 PKD
ROOT
HETATM    1  C   UNL     1     -10.547  19.805  66.663  1.00  0.00    -0.578 C  
HETATM    2  C   UNL     1     -10.533  18.408  67.256  1.00  0.00    -0.434 C  
ENDROOT
BRANCH   2   3
HETATM    3  C   UNL     1      -9.830  18.366  68.614  1.00  0.00    -0.403 C  
BRANCH   3   4
HETATM    4  C   UNL     1      -8.345  18.695  68.450  1.00  0.00    -0.362 C  
BRANCH   4   5
HETATM    5  C   UNL     1      -7.723  18.003  67.236  1.00  0.00    -0.220 C  
BRANCH   5   6
HETATM    6  C   UNL     1      -6.752  16.871  67.613  1.00  0.00    -0.142 C  
HETATM    7  O   UNL     1      -5.853  16.711  66.520  1.00  0.00    -0.324 OA 
HETATM    8  H   UNL     1      -5.253  16.012  66.753  1.00  0.00     0.000 HD 
BRANCH   6   9
HETATM    9  C   UNL     1      -7.456  15.566  67.925  1.00  0.00    -0.150 C  
HETATM   10  C   UNL     1      -8.539  15.068  67.303  1.00  0.00    -0.226 C  
BRANCH  10  11
HETATM   11  C   UNL     1      -9.324  13.856  67.765  1.00  0.00    -0.204 C  
HETATM   12  C   UNL     1     -10.503  14.310  68.652  1.00  0.00    -0.249 C  
HETATM   13  O   UNL     1     -10.085  14.615  69.976  1.00  0.00    -0.424 OA 
HETATM   14  C   UNL     1     -11.482  13.157  68.652  1.00  0.00    -0.342 C  
HETATM   15  H   UNL     1     -10.811  14.894  70.522  1.00  0.00     0.000 HD 
HETATM   16  C   UNL     1     -11.300  12.620  67.267  1.00  0.00    -0.318 C  
HETATM   17  O   UNL     1     -12.141  11.910  66.728  1.00  0.00    -0.593 OA 
HETATM   18  C   UNL     1      -9.972  13.018  66.637  1.00  0.00    -0.250 C  
BRANCH  18  19
HETATM   19  C   UNL     1      -9.118  11.786  66.302  1.00  0.00    -0.209 C  
BRANCH  19  20
HETATM   20  C   UNL     1      -8.431  11.164  67.491  1.00  0.00    -0.126 C  
HETATM   21  C   UNL     1      -8.297   9.859  67.775  1.00  0.00    -0.114 C  
BRANCH  21  22
HETATM   22  C   UNL     1      -8.835   8.721  66.964  1.00  0.00    -0.139 C  
BRANCH  22  23
HETATM   23  C   UNL     1     -10.331   8.498  67.182  1.00  0.00    -0.377 C  
BRANCH  23  24
HETATM   24  C   UNL     1     -10.575   7.051  67.614  1.00  0.00    -0.327 C  
HETATM   25  C   UNL     1     -10.696   6.903  69.109  1.00  0.00    -0.234 C  
HETATM   26  O   UNL     1     -10.613   7.809  69.920  1.00  0.00    -0.231 OA 
HETATM   27  O   UNL     1     -10.914   5.617  69.472  1.00  0.00    -0.334 OA 
ENDBRANCH  23  24
ENDBRANCH  22  23
ENDBRANCH  21  22
ENDBRANCH  19  20
ENDBRANCH  18  19
ENDBRANCH  10  11
ENDBRANCH   6   9
ENDBRANCH   5   6
ENDBRANCH   4   5
ENDBRANCH   3   4
ENDBRANCH   2   3
TORSDOF 11
ENDMDL
MODEL      187
REMARK 921   NORMALIZED FREE ENERGY PREDICTED BY IDOCK:   -4.33 KCAL/MOL
REMARK 922        TOTAL FREE ENERGY PREDICTED BY IDOCK:   -8.92 KCAL/MOL
REMARK 923 INTER-LIGAND FREE ENERGY PREDICTED BY IDOCK:   -7.10 KCAL/MOL
REMARK 924 INTRA-LIGAND FREE ENERGY PREDICTED BY IDOCK:   -1.82 KCAL/MOL
REMARK 927      BINDING AFFINITY PREDICTED BY RF-SCORE:    0.00 PKD
ROOT
HETATM    1  C   UNL     1      -9.312  13.101  66.533  1.00  0.00    -0.222 C  
HETATM    2  C   UNL     1      -8.457  14.095  67.298  1.00  0.00    -0.228 C  
ENDROOT
BRANCH   2   3
HETATM    3  C   UNL     1      -7.051  13.555  67.569  1.00  0.00    -0.159 C  
BRANCH   3   4
HETATM    4  C   UNL     1      -6.948  12.099  67.110  1.00  0.00    -0.117 C  
BRANCH   4   5
HETATM    5  C   UNL     1      -6.503  11.162  68.234  1.00  0.00    -0.057 C  
BRANCH   5   6
HETATM    6  C   UNL     1      -7.334  11.318  69.520  1.00  0.00     0.032 C  
HETATM    7  O   UNL     1      -6.423  11.257  70.614  1.00  0.00    -0.502 OA 
HETATM    8  H   UNL     1      -6.935  11.354  71.408  1.00  0.00     0.000 HD 
BRANCH   6   9
HETATM    9  C   UNL     1      -8.414  10.265  69.661  1.00  0.00    -0.132 C  
HETATM   10  C   UNL     1      -9.692  10.365  69.255  1.00  0.00    -0.231 C  
BRANCH  10  11
HETATM   11  C   UNL     1     -10.786   9.368  69.581  1.00  0.00    -0.245 C  
HETATM   12  C   UNL     1     -10.179   7.952  69.689  1.00  0.00    -0.207 C  
HETATM   13  O   UNL     1      -9.952   7.372  68.412  1.00  0.00    -0.155 OA 
HETATM   14  C   UNL     1     -11.182   7.138  70.476  1.00  0.00    -0.321 C  
HETATM   15  H   UNL     1      -9.578   6.501  68.478  1.00  0.00     0.000 HD 
HETATM   16  C   UNL     1     -11.724   8.169  71.414  1.00  0.00    -0.285 C  
HETATM   17  O   UNL     1     -12.301   7.866  72.452  1.00  0.00    -0.287 OA 
HETATM   18  C   UNL     1     -11.511   9.596  70.929  1.00  0.00    -0.427 C  
BRANCH  18  19
HETATM   19  C   UNL     1     -12.848  10.324  70.722  1.00  0.00    -0.427 C  
BRANCH  19  20
HETATM   20  C   UNL     1     -13.198  11.303  71.813  1.00  0.00    -0.480 C  
HETATM   21  C   UNL     1     -13.019  12.634  71.813  1.00  0.00    -0.417 C  
BRANCH  21  22
HETATM   22  C   UNL     1     -12.399  13.440  70.714  1.00  0.00    -0.433 C  
BRANCH  22  23
HETATM   23  C   UNL     1     -12.828  14.906  70.745  1.00  0.00    -0.428 C  
BRANCH  23  24
HETATM   24  C   UNL     1     -11.591  15.803  70.684  1.00  0.00    -0.416 C  
HETATM   25  C   UNL     1     -11.172  16.119  69.271  1.00  0.00    -0.337 C  
HETATM   26  O   UNL     1     -11.728  15.723  68.261  1.00  0.00    -0.345 OA 
HETATM   27  O   UNL     1     -10.077  16.916  69.236  1.00  0.00    -0.272 OA 
ENDBRANCH  23  24
ENDBRANCH  22  23
ENDBRANCH  21  22
ENDBRANCH  19  20
ENDBRANCH  18  19
ENDBRANCH  10  11
ENDBRANCH   6   9
ENDBRANCH   5   6
ENDBRANCH   4   5
ENDBRANCH   3   4
ENDBRANCH   2   3
TORSDOF 11
ENDMDL
MODEL      188
REMARK 921   NORMALIZED FREE ENERGY PREDICTED BY IDOCK:   -4.32 KCAL/MOL
REMARK 922        TOTAL FREE ENERGY PREDICTED BY IDOCK:   -8.91 KCAL/MOL
REMARK 923 INTER-LIGAND FREE ENERGY PREDICTED BY IDOCK:   -7.87 KCAL/MOL
REMARK 924 INTRA-LIGAND FREE ENERGY PREDICTED BY IDOCK:   -1.04 KCAL/MOL
REMARK 927      BINDING AFFINITY PREDICTED BY RF-SCORE:    0.00 PKD
ROOT
HETATM    1  C   UNL     1      -9.728   4.678  67.179  1.00  0.00    -0.219 C  
HETATM    2  C   UNL     1     -10.370   5.879  66.510  1.00  0.00    -0.237 C  
ENDROOT
BRANCH   2   3
HETATM    3  C   UNL     1     -11.142   6.747  67.505  1.00  0.00    -0.340 C  
BRANCH   3   4
HETATM    4  C   UNL     1     -10.286   7.938  67.940  1.00  0.00    -0.281 C  
BRANCH   4   5
HETATM    5  C   UNL     1     -10.483   8.293  69.415  1.00  0.00    -0.224 C  
BRANCH   5   6
HETATM    6  C   UNL     1      -9.891   9.662  69.795  1.00  0.00    -0.229 C  
HETATM    7  O   UNL     1     -10.686  10.180  70.857  1.00  0.00    -0.367 OA 
HETATM    8  H   UNL     1     -10.321  11.024  71.092  1.00  0.00     0.000 HD 
BRANCH   6   9
HETATM    9  C   UNL     1      -9.849  10.633  68.633  1.00  0.00    -0.183 C  
HETATM   10  C   UNL     1     -10.719  11.628  68.385  1.00  0.00    -0.248 C  
BRANCH  10  11
HETATM   11  C   UNL     1     -10.751  12.456  67.116  1.00  0.00    -0.264 C  
HETATM   12  C   UNL     1     -10.803  11.519  65.889  1.00  0.00    -0.260 C  
HETATM   13  O   UNL     1      -9.526  10.983  65.575  1.00  0.00    -0.200 OA 
HETATM   14  C   UNL     1     -11.323  12.368  64.750  1.00  0.00    -0.360 C  
HETATM   15  H   UNL     1      -9.558  10.406  64.820  1.00  0.00     0.000 HD 
HETATM   16  C   UNL     1     -12.266  13.279  65.470  1.00  0.00    -0.457 C  
HETATM   17  O   UNL     1     -13.157  13.887  64.889  1.00  0.00    -0.704 OA 
HETATM   18  C   UNL     1     -11.979  13.385  66.962  1.00  0.00    -0.429 C  
BRANCH  18  19
HETATM   19  C   UNL     1     -11.635  14.827  67.366  1.00  0.00    -0.377 C  
BRANCH  19  20
HETATM   20  C   UNL     1     -11.608  15.065  68.854  1.00  0.00    -0.349 C  
HETATM   21  C   UNL     1     -10.787  15.872  69.544  1.00  0.00    -0.305 C  
BRANCH  21  22
HETATM   22  C   UNL     1      -9.682  16.705  68.969  1.00  0.00    -0.260 C  
BRANCH  22  23
HETATM   23  C   UNL     1     -10.155  18.093  68.541  1.00  0.00    -0.413 C  
BRANCH  23  24
HETATM   24  C   UNL     1      -9.484  18.477  67.222  1.00  0.00    -0.296 C  
HETATM   25  C   UNL     1      -8.335  19.435  67.411  1.00  0.00    -0.292 C  
HETATM   26  O   UNL     1      -7.951  19.880  68.478  1.00  0.00    -0.286 OA 
HETATM   27  O   UNL     1      -7.752  19.762  66.232  1.00  0.00    -0.288 OA 
ENDBRANCH  23  24
ENDBRANCH  22  23
ENDBRANCH  21  22
ENDBRANCH  19  20
ENDBRANCH  18  19
ENDBRANCH  10  11
ENDBRANCH   6   9
ENDBRANCH   5   6
ENDBRANCH   4   5
ENDBRANCH   3   4
ENDBRANCH   2   3
TORSDOF 11
ENDMDL
MODEL      189
REMARK 921   NORMALIZED FREE ENERGY PREDICTED BY IDOCK:   -4.31 KCAL/MOL
REMARK 922        TOTAL FREE ENERGY PREDICTED BY IDOCK:   -8.90 KCAL/MOL
REMARK 923 INTER-LIGAND FREE ENERGY PREDICTED BY IDOCK:   -7.76 KCAL/MOL
REMARK 924 INTRA-LIGAND FREE ENERGY PREDICTED BY IDOCK:   -1.15 KCAL/MOL
REMARK 927      BINDING AFFINITY PREDICTED BY RF-SCORE:    0.00 PKD
ROOT
HETATM    1  C   UNL     1     -10.127   5.100  69.038  1.00  0.00    -0.257 C  
HETATM    2  C   UNL     1     -11.019   6.247  68.597  1.00  0.00    -0.423 C  
ENDROOT
BRANCH   2   3
HETATM    3  C   UNL     1     -10.719   6.690  67.164  1.00  0.00    -0.440 C  
BRANCH   3   4
HETATM    4  C   UNL     1     -10.304   8.162  67.143  1.00  0.00    -0.391 C  
BRANCH   4   5
HETATM    5  C   UNL     1      -8.923   8.390  67.759  1.00  0.00    -0.140 C  
BRANCH   5   6
HETATM    6  C   UNL     1      -8.969   9.197  69.069  1.00  0.00    -0.143 C  
HETATM    7  O   UNL     1      -8.431   8.362  70.092  1.00  0.00    -0.120 OA 
HETATM    8  H   UNL     1      -8.459   8.860  70.900  1.00  0.00     0.000 HD 
BRANCH   6   9
HETATM    9  C   UNL     1     -10.365   9.659  69.433  1.00  0.00    -0.226 C  
HETATM   10  C   UNL     1     -10.785  10.931  69.554  1.00  0.00    -0.251 C  
BRANCH  10  11
HETATM   11  C   UNL     1     -12.134  11.351  70.100  1.00  0.00    -0.439 C  
HETATM   12  C   UNL     1     -12.586  10.349  71.186  1.00  0.00    -0.410 C  
HETATM   13  O   UNL     1     -13.121   9.160  70.622  1.00  0.00    -0.479 OA 
HETATM   14  C   UNL     1     -13.636  11.076  71.999  1.00  0.00    -0.147 C  
HETATM   15  H   UNL     1     -13.399   8.544  71.290  1.00  0.00     0.000 HD 
HETATM   16  C   UNL     1     -13.121  12.479  71.953  1.00  0.00    -0.368 C  
HETATM   17  O   UNL     1     -13.469  13.328  72.766  1.00  0.00    -0.575 OA 
HETATM   18  C   UNL     1     -12.167  12.734  70.794  1.00  0.00    -0.338 C  
BRANCH  18  19
HETATM   19  C   UNL     1     -12.711  13.815  69.847  1.00  0.00     0.008 C  
BRANCH  19  20
HETATM   20  C   UNL     1     -12.096  15.177  70.042  1.00  0.00    -0.384 C  
HETATM   21  C   UNL     1     -11.457  15.930  69.132  1.00  0.00    -0.377 C  
BRANCH  21  22
HETATM   22  C   UNL     1     -11.193  15.555  67.706  1.00  0.00    -0.302 C  
BRANCH  22  23
HETATM   23  C   UNL     1      -9.787  14.994  67.497  1.00  0.00    -0.217 C  
BRANCH  23  24
HETATM   24  C   UNL     1      -9.117  15.718  66.328  1.00  0.00    -0.373 C  
HETATM   25  C   UNL     1      -8.288  16.896  66.773  1.00  0.00    -0.235 C  
HETATM   26  O   UNL     1      -8.143  17.266  67.925  1.00  0.00    -0.201 OA 
HETATM   27  O   UNL     1      -7.701  17.523  65.726  1.00  0.00    -0.530 OA 
ENDBRANCH  23  24
ENDBRANCH  22  23
ENDBRANCH  21  22
ENDBRANCH  19  20
ENDBRANCH  18  19
ENDBRANCH  10  11
ENDBRANCH   6   9
ENDBRANCH   5   6
ENDBRANCH   4   5
ENDBRANCH   3   4
ENDBRANCH   2   3
TORSDOF 11
ENDMDL
MODEL      190
REMARK 921   NORMALIZED FREE ENERGY PREDICTED BY IDOCK:   -4.31 KCAL/MOL
REMARK 922        TOTAL FREE ENERGY PREDICTED BY IDOCK:   -8.90 KCAL/MOL
REMARK 923 INTER-LIGAND FREE ENERGY PREDICTED BY IDOCK:   -6.85 KCAL/MOL
REMARK 924 INTRA-LIGAND FREE ENERGY PREDICTED BY IDOCK:   -2.04 KCAL/MOL
REMARK 927      BINDING AFFINITY PREDICTED BY RF-SCORE:    0.00 PKD
ROOT
HETATM    1  C   UNL     1     -10.798  14.527  67.048  1.00  0.00    -0.297 C  
HETATM    2  C   UNL     1     -12.188  14.128  66.589  1.00  0.00    -0.450 C  
ENDROOT
BRANCH   2   3
HETATM    3  C   UNL     1     -12.263  13.947  65.072  1.00  0.00    -0.444 C  
BRANCH   3   4
HETATM    4  C   UNL     1     -12.693  12.519  64.732  1.00  0.00    -0.415 C  
BRANCH   4   5
HETATM    5  C   UNL     1     -12.043  12.003  63.447  1.00  0.00    -0.597 C  
BRANCH   5   6
HETATM    6  C   UNL     1     -10.587  11.548  63.644  1.00  0.00    -0.429 C  
HETATM    7  O   UNL     1     -10.216  10.820  62.476  1.00  0.00    -0.741 OA 
HETATM    8  H   UNL     1      -9.317  10.539  62.597  1.00  0.00     0.000 HD 
BRANCH   6   9
HETATM    9  C   UNL     1     -10.392  10.703  64.886  1.00  0.00    -0.347 C  
HETATM   10  C   UNL     1      -9.764  11.071  66.018  1.00  0.00    -0.265 C  
BRANCH  10  11
HETATM   11  C   UNL     1      -9.426  10.139  67.164  1.00  0.00    -0.185 C  
HETATM   12  C   UNL     1      -9.592  10.888  68.505  1.00  0.00    -0.187 C  
HETATM   13  O   UNL     1      -8.482  11.728  68.786  1.00  0.00    -0.309 OA 
HETATM   14  C   UNL     1      -9.729   9.811  69.559  1.00  0.00    -0.228 C  
HETATM   15  H   UNL     1      -8.585  12.189  69.610  1.00  0.00     0.000 HD 
HETATM   16  C   UNL     1     -10.463   8.751  68.800  1.00  0.00    -0.191 C  
HETATM   17  O   UNL     1     -11.082   7.856  69.364  1.00  0.00    -0.089 OA 
HETATM   18  C   UNL     1     -10.328   8.889  67.290  1.00  0.00    -0.350 C  
BRANCH  18  19
HETATM   19  C   UNL     1      -9.653   7.654  66.672  1.00  0.00    -0.271 C  
BRANCH  19  20
HETATM   20  C   UNL     1      -8.195   7.503  67.024  1.00  0.00    -0.124 C  
HETATM   21  C   UNL     1      -7.194   7.095  66.228  1.00  0.00    -0.075 C  
BRANCH  21  22
HETATM   22  C   UNL     1      -7.323   6.672  64.797  1.00  0.00    -0.084 C  
BRANCH  22  23
HETATM   23  C   UNL     1      -7.336   5.153  64.631  1.00  0.00    -0.063 C  
BRANCH  23  24
HETATM   24  C   UNL     1      -8.653   4.720  63.985  1.00  0.00    -0.137 C  
HETATM   25  C   UNL     1      -9.645   4.191  64.989  1.00  0.00    -0.180 C  
HETATM   26  O   UNL     1      -9.459   4.098  66.190  1.00  0.00    -0.157 OA 
HETATM   27  O   UNL     1     -10.806   3.815  64.399  1.00  0.00    -0.238 OA 
ENDBRANCH  23  24
ENDBRANCH  22  23
ENDBRANCH  21  22
ENDBRANCH  19  20
ENDBRANCH  18  19
ENDBRANCH  10  11
ENDBRANCH   6   9
ENDBRANCH   5   6
ENDBRANCH   4   5
ENDBRANCH   3   4
ENDBRANCH   2   3
TORSDOF 11
ENDMDL
MODEL      191
REMARK 921   NORMALIZED FREE ENERGY PREDICTED BY IDOCK:   -4.30 KCAL/MOL
REMARK 922        TOTAL FREE ENERGY PREDICTED BY IDOCK:   -8.87 KCAL/MOL
REMARK 923 INTER-LIGAND FREE ENERGY PREDICTED BY IDOCK:   -6.75 KCAL/MOL
REMARK 924 INTRA-LIGAND FREE ENERGY PREDICTED BY IDOCK:   -2.13 KCAL/MOL
REMARK 927      BINDING AFFINITY PREDICTED BY RF-SCORE:    0.00 PKD
ROOT
HETATM    1  C   UNL     1      -9.541  12.783  67.635  1.00  0.00    -0.192 C  
HETATM    2  C   UNL     1     -10.772  13.476  67.080  1.00  0.00    -0.282 C  
ENDROOT
BRANCH   2   3
HETATM    3  C   UNL     1     -11.775  12.482  66.493  1.00  0.00    -0.454 C  
BRANCH   3   4
HETATM    4  C   UNL     1     -11.918  12.705  64.986  1.00  0.00    -0.467 C  
BRANCH   4   5
HETATM    5  C   UNL     1     -11.427  11.510  64.168  1.00  0.00    -0.299 C  
BRANCH   5   6
HETATM    6  C   UNL     1      -9.893  11.421  64.082  1.00  0.00    -0.268 C  
HETATM    7  O   UNL     1      -9.555  11.367  62.699  1.00  0.00    -0.544 OA 
HETATM    8  H   UNL     1      -8.609  11.312  62.647  1.00  0.00     0.000 HD 
BRANCH   6   9
HETATM    9  C   UNL     1      -9.326  10.226  64.821  1.00  0.00    -0.313 C  
HETATM   10  C   UNL     1     -10.001   9.381  65.621  1.00  0.00    -0.210 C  
BRANCH  10  11
HETATM   11  C   UNL     1      -9.365   8.313  66.488  1.00  0.00    -0.263 C  
HETATM   12  C   UNL     1      -8.156   7.700  65.749  1.00  0.00    -0.126 C  
HETATM   13  O   UNL     1      -8.557   6.748  64.772  1.00  0.00    -0.346 OA 
HETATM   14  C   UNL     1      -7.312   7.044  66.820  1.00  0.00    -0.077 C  
HETATM   15  H   UNL     1      -7.813   6.371  64.318  1.00  0.00     0.000 HD 
HETATM   16  C   UNL     1      -7.533   7.971  67.973  1.00  0.00    -0.097 C  
HETATM   17  O   UNL     1      -6.768   8.014  68.931  1.00  0.00    -0.050 OA 
HETATM   18  C   UNL     1      -8.798   8.809  67.840  1.00  0.00    -0.136 C  
BRANCH  18  19
HETATM   19  C   UNL     1      -9.780   8.529  68.988  1.00  0.00    -0.170 C  
BRANCH  19  20
HETATM   20  C   UNL     1     -10.789   7.449  68.693  1.00  0.00    -0.073 C  
HETATM   21  C   UNL     1     -10.987   6.303  69.361  1.00  0.00    -0.440 C  
BRANCH  21  22
HETATM   22  C   UNL     1     -10.213   5.833  70.554  1.00  0.00    -0.284 C  
BRANCH  22  23
HETATM   23  C   UNL     1     -10.683   6.483  71.854  1.00  0.00    -0.251 C  
BRANCH  23  24
HETATM   24  C   UNL     1     -12.203   6.653  71.820  1.00  0.00    -0.400 C  
HETATM   25  C   UNL     1     -12.635   8.074  72.078  1.00  0.00    -0.312 C  
HETATM   26  O   UNL     1     -11.889   9.014  72.297  1.00  0.00    -0.334 OA 
HETATM   27  O   UNL     1     -13.982   8.206  72.042  1.00  0.00    -0.357 OA 
ENDBRANCH  23  24
ENDBRANCH  22  23
ENDBRANCH  21  22
ENDBRANCH  19  20
ENDBRANCH  18  19
ENDBRANCH  10  11
ENDBRANCH   6   9
ENDBRANCH   5   6
ENDBRANCH   4   5
ENDBRANCH   3   4
ENDBRANCH   2   3
TORSDOF 11
ENDMDL
MODEL      192
REMARK 921   NORMALIZED FREE ENERGY PREDICTED BY IDOCK:   -4.29 KCAL/MOL
REMARK 922        TOTAL FREE ENERGY PREDICTED BY IDOCK:   -8.86 KCAL/MOL
REMARK 923 INTER-LIGAND FREE ENERGY PREDICTED BY IDOCK:   -7.52 KCAL/MOL
REMARK 924 INTRA-LIGAND FREE ENERGY PREDICTED BY IDOCK:   -1.34 KCAL/MOL
REMARK 927      BINDING AFFINITY PREDICTED BY RF-SCORE:    0.00 PKD
ROOT
HETATM    1  C   UNL     1     -10.173  10.853  64.488  1.00  0.00    -0.422 C  
HETATM    2  C   UNL     1     -11.304  11.860  64.592  1.00  0.00    -0.355 C  
ENDROOT
BRANCH   2   3
HETATM    3  C   UNL     1     -10.810  13.235  65.043  1.00  0.00    -0.335 C  
BRANCH   3   4
HETATM    4  C   UNL     1     -11.675  13.755  66.194  1.00  0.00    -0.392 C  
BRANCH   4   5
HETATM    5  C   UNL     1     -11.797  12.746  67.336  1.00  0.00    -0.404 C  
BRANCH   5   6
HETATM    6  C   UNL     1     -11.829  13.404  68.727  1.00  0.00    -0.351 C  
HETATM    7  O   UNL     1     -10.751  14.334  68.773  1.00  0.00    -0.242 OA 
HETATM    8  H   UNL     1     -10.771  14.740  69.631  1.00  0.00     0.000 HD 
BRANCH   6   9
HETATM    9  C   UNL     1     -11.724  12.403  69.859  1.00  0.00    -0.339 C  
HETATM   10  C   UNL     1     -11.655  11.065  69.746  1.00  0.00    -0.401 C  
BRANCH  10  11
HETATM   11  C   UNL     1     -11.740  10.091  70.904  1.00  0.00    -0.462 C  
HETATM   12  C   UNL     1     -13.173  10.095  71.479  1.00  0.00    -0.399 C  
HETATM   13  O   UNL     1     -13.403  11.211  72.327  1.00  0.00    -0.633 OA 
HETATM   14  C   UNL     1     -13.307   8.800  72.250  1.00  0.00    -0.460 C  
HETATM   15  H   UNL     1     -14.285  11.213  72.680  1.00  0.00     0.000 HD 
HETATM   16  C   UNL     1     -12.462   7.880  71.426  1.00  0.00    -0.309 C  
HETATM   17  O   UNL     1     -12.573   6.661  71.490  1.00  0.00    -0.336 OA 
HETATM   18  C   UNL     1     -11.456   8.612  70.548  1.00  0.00    -0.208 C  
BRANCH  18  19
HETATM   19  C   UNL     1     -10.013   8.224  70.905  1.00  0.00    -0.223 C  
BRANCH  19  20
HETATM   20  C   UNL     1      -9.569   8.676  72.273  1.00  0.00    -0.348 C  
HETATM   21  C   UNL     1      -9.390   7.924  73.370  1.00  0.00    -0.348 C  
BRANCH  21  22
HETATM   22  C   UNL     1      -9.622   6.448  73.475  1.00  0.00    -0.166 C  
BRANCH  22  23
HETATM   23  C   UNL     1      -8.376   5.687  73.927  1.00  0.00    -0.113 C  
BRANCH  23  24
HETATM   24  C   UNL     1      -7.586   5.226  72.701  1.00  0.00    -0.097 C  
HETATM   25  C   UNL     1      -7.849   3.784  72.348  1.00  0.00    -0.069 C  
HETATM   26  O   UNL     1      -8.600   3.033  72.948  1.00  0.00    -0.078 OA 
HETATM   27  O   UNL     1      -7.143   3.394  71.260  1.00  0.00    -0.032 OA 
ENDBRANCH  23  24
ENDBRANCH  22  23
ENDBRANCH  21  22
ENDBRANCH  19  20
ENDBRANCH  18  19
ENDBRANCH  10  11
ENDBRANCH   6   9
ENDBRANCH   5   6
ENDBRANCH   4   5
ENDBRANCH   3   4
ENDBRANCH   2   3
TORSDOF 11
ENDMDL
MODEL      193
REMARK 921   NORMALIZED FREE ENERGY PREDICTED BY IDOCK:   -4.28 KCAL/MOL
REMARK 922        TOTAL FREE ENERGY PREDICTED BY IDOCK:   -8.85 KCAL/MOL
REMARK 923 INTER-LIGAND FREE ENERGY PREDICTED BY IDOCK:   -7.65 KCAL/MOL
REMARK 924 INTRA-LIGAND FREE ENERGY PREDICTED BY IDOCK:   -1.19 KCAL/MOL
REMARK 927      BINDING AFFINITY PREDICTED BY RF-SCORE:    0.00 PKD
ROOT
HETATM    1  C   UNL     1     -11.259   6.569  71.864  1.00  0.00    -0.314 C  
HETATM    2  C   UNL     1     -11.661   7.727  70.969  1.00  0.00    -0.299 C  
ENDROOT
BRANCH   2   3
HETATM    3  C   UNL     1     -12.035   8.973  71.775  1.00  0.00    -0.438 C  
BRANCH   3   4
HETATM    4  C   UNL     1     -11.867  10.227  70.915  1.00  0.00    -0.473 C  
BRANCH   4   5
HETATM    5  C   UNL     1     -10.745  10.085  69.886  1.00  0.00    -0.328 C  
BRANCH   5   6
HETATM    6  C   UNL     1     -11.260   9.826  68.459  1.00  0.00    -0.012 C  
HETATM    7  O   UNL     1     -10.763   8.550  68.062  1.00  0.00    -0.413 OA 
HETATM    8  H   UNL     1     -11.081   8.390  67.181  1.00  0.00     0.000 HD 
BRANCH   6   9
HETATM    9  C   UNL     1     -10.838  10.896  67.472  1.00  0.00    -0.324 C  
HETATM   10  C   UNL     1     -11.639  11.575  66.632  1.00  0.00    -0.095 C  
BRANCH  10  11
HETATM   11  C   UNL     1     -11.157  12.501  65.532  1.00  0.00    -0.336 C  
HETATM   12  C   UNL     1     -12.267  12.662  64.471  1.00  0.00    -0.443 C  
HETATM   13  O   UNL     1     -12.324  11.550  63.588  1.00  0.00    -0.503 OA 
HETATM   14  C   UNL     1     -11.927  13.929  63.715  1.00  0.00    -0.305 C  
HETATM   15  H   UNL     1     -13.007  11.650  62.935  1.00  0.00     0.000 HD 
HETATM   16  C   UNL     1     -11.322  14.762  64.800  1.00  0.00    -0.397 C  
HETATM   17  O   UNL     1     -11.230  15.981  64.710  1.00  0.00    -0.431 OA 
HETATM   18  C   UNL     1     -10.819  13.942  65.981  1.00  0.00    -0.290 C  
BRANCH  18  19
HETATM   19  C   UNL     1      -9.306  14.119  66.183  1.00  0.00    -0.166 C  
BRANCH  19  20
HETATM   20  C   UNL     1      -8.893  14.342  67.615  1.00  0.00    -0.196 C  
HETATM   21  C   UNL     1      -9.214  15.371  68.413  1.00  0.00    -0.192 C  
BRANCH  21  22
HETATM   22  C   UNL     1     -10.050  16.555  68.033  1.00  0.00    -0.255 C  
BRANCH  22  23
HETATM   23  C   UNL     1     -11.508  16.408  68.465  1.00  0.00    -0.209 C  
BRANCH  23  24
HETATM   24  C   UNL     1     -11.567  15.838  69.883  1.00  0.00    -0.355 C  
HETATM   25  C   UNL     1     -12.139  14.444  69.926  1.00  0.00    -0.344 C  
HETATM   26  O   UNL     1     -12.527  13.807  68.962  1.00  0.00    -0.194 OA 
HETATM   27  O   UNL     1     -12.181  13.955  71.189  1.00  0.00    -0.344 OA 
ENDBRANCH  23  24
ENDBRANCH  22  23
ENDBRANCH  21  22
ENDBRANCH  19  20
ENDBRANCH  18  19
ENDBRANCH  10  11
ENDBRANCH   6   9
ENDBRANCH   5   6
ENDBRANCH   4   5
ENDBRANCH   3   4
ENDBRANCH   2   3
TORSDOF 11
ENDMDL
MODEL      194
REMARK 921   NORMALIZED FREE ENERGY PREDICTED BY IDOCK:   -4.27 KCAL/MOL
REMARK 922        TOTAL FREE ENERGY PREDICTED BY IDOCK:   -8.84 KCAL/MOL
REMARK 923 INTER-LIGAND FREE ENERGY PREDICTED BY IDOCK:   -6.94 KCAL/MOL
REMARK 924 INTRA-LIGAND FREE ENERGY PREDICTED BY IDOCK:   -1.90 KCAL/MOL
REMARK 927      BINDING AFFINITY PREDICTED BY RF-SCORE:    0.00 PKD
ROOT
HETATM    1  C   UNL     1     -12.029  12.202  70.107  1.00  0.00    -0.394 C  
HETATM    2  C   UNL     1     -11.888  10.734  70.466  1.00  0.00    -0.453 C  
ENDROOT
BRANCH   2   3
HETATM    3  C   UNL     1     -13.122  10.200  71.196  1.00  0.00    -0.480 C  
BRANCH   3   4
HETATM    4  C   UNL     1     -12.699   9.287  72.348  1.00  0.00    -0.383 C  
BRANCH   4   5
HETATM    5  C   UNL     1     -11.654   8.254  71.923  1.00  0.00    -0.377 C  
BRANCH   5   6
HETATM    6  C   UNL     1     -12.269   6.914  71.483  1.00  0.00    -0.371 C  
HETATM    7  O   UNL     1     -12.134   6.013  72.579  1.00  0.00    -0.511 OA 
HETATM    8  H   UNL     1     -12.514   5.186  72.307  1.00  0.00     0.000 HD 
BRANCH   6   9
HETATM    9  C   UNL     1     -11.620   6.345  70.238  1.00  0.00    -0.451 C  
HETATM   10  C   UNL     1     -10.352   5.914  70.117  1.00  0.00    -0.305 C  
BRANCH  10  11
HETATM   11  C   UNL     1      -9.688   5.528  68.810  1.00  0.00    -0.190 C  
HETATM   12  C   UNL     1      -9.470   3.999  68.774  1.00  0.00    -0.158 C  
HETATM   13  O   UNL     1      -8.335   3.606  69.533  1.00  0.00    -0.053 OA 
HETATM   14  C   UNL     1      -9.285   3.648  67.314  1.00  0.00    -0.215 C  
HETATM   15  H   UNL     1      -8.201   2.665  69.510  1.00  0.00     0.000 HD 
HETATM   16  C   UNL     1     -10.194   4.639  66.658  1.00  0.00    -0.213 C  
HETATM   17  O   UNL     1     -10.615   4.482  65.518  1.00  0.00    -0.282 OA 
HETATM   18  C   UNL     1     -10.502   5.846  67.534  1.00  0.00    -0.306 C  
BRANCH  18  19
HETATM   19  C   UNL     1     -10.019   7.150  66.881  1.00  0.00    -0.293 C  
BRANCH  19  20
HETATM   20  C   UNL     1     -10.877   8.352  67.185  1.00  0.00    -0.072 C  
HETATM   21  C   UNL     1     -10.478   9.569  67.584  1.00  0.00    -0.321 C  
BRANCH  21  22
HETATM   22  C   UNL     1      -9.064   9.992  67.842  1.00  0.00    -0.135 C  
BRANCH  22  23
HETATM   23  C   UNL     1      -8.674  11.247  67.062  1.00  0.00    -0.152 C  
BRANCH  23  24
HETATM   24  C   UNL     1      -8.403  12.392  68.038  1.00  0.00    -0.170 C  
HETATM   25  C   UNL     1      -9.392  13.521  67.897  1.00  0.00    -0.215 C  
HETATM   26  O   UNL     1     -10.318  13.559  67.106  1.00  0.00    -0.248 OA 
HETATM   27  O   UNL     1      -9.138  14.525  68.771  1.00  0.00    -0.190 OA 
ENDBRANCH  23  24
ENDBRANCH  22  23
ENDBRANCH  21  22
ENDBRANCH  19  20
ENDBRANCH  18  19
ENDBRANCH  10  11
ENDBRANCH   6   9
ENDBRANCH   5   6
ENDBRANCH   4   5
ENDBRANCH   3   4
ENDBRANCH   2   3
TORSDOF 11
ENDMDL
MODEL      195
REMARK 921   NORMALIZED FREE ENERGY PREDICTED BY IDOCK:   -4.27 KCAL/MOL
REMARK 922        TOTAL FREE ENERGY PREDICTED BY IDOCK:   -8.84 KCAL/MOL
REMARK 923 INTER-LIGAND FREE ENERGY PREDICTED BY IDOCK:   -6.80 KCAL/MOL
REMARK 924 INTRA-LIGAND FREE ENERGY PREDICTED BY IDOCK:   -2.03 KCAL/MOL
REMARK 927      BINDING AFFINITY PREDICTED BY RF-SCORE:    0.00 PKD
ROOT
HETATM    1  C   UNL     1      -8.744   4.108  69.757  1.00  0.00    -0.117 C  
HETATM    2  C   UNL     1     -10.047   4.726  69.284  1.00  0.00    -0.217 C  
ENDROOT
BRANCH   2   3
HETATM    3  C   UNL     1      -9.818   5.828  68.247  1.00  0.00    -0.170 C  
BRANCH   3   4
HETATM    4  C   UNL     1      -8.320   6.082  68.071  1.00  0.00    -0.116 C  
BRANCH   4   5
HETATM    5  C   UNL     1      -8.030   7.190  67.057  1.00  0.00    -0.113 C  
BRANCH   5   6
HETATM    6  C   UNL     1      -9.265   7.598  66.234  1.00  0.00    -0.154 C  
HETATM    7  O   UNL     1      -8.877   7.582  64.863  1.00  0.00    -0.361 OA 
HETATM    8  H   UNL     1      -9.638   7.834  64.355  1.00  0.00     0.000 HD 
BRANCH   6   9
HETATM    9  C   UNL     1      -9.812   8.957  66.620  1.00  0.00    -0.332 C  
HETATM   10  C   UNL     1      -9.109  10.092  66.777  1.00  0.00    -0.159 C  
BRANCH  10  11
HETATM   11  C   UNL     1      -9.661  11.384  67.345  1.00  0.00    -0.196 C  
HETATM   12  C   UNL     1      -9.034  12.585  66.603  1.00  0.00    -0.174 C  
HETATM   13  O   UNL     1      -7.724  12.873  67.070  1.00  0.00    -0.364 OA 
HETATM   14  C   UNL     1      -9.962  13.752  66.858  1.00  0.00    -0.264 C  
HETATM   15  H   UNL     1      -7.338  13.612  66.614  1.00  0.00     0.000 HD 
HETATM   16  C   UNL     1     -11.291  13.065  66.899  1.00  0.00    -0.311 C  
HETATM   17  O   UNL     1     -12.343  13.672  66.733  1.00  0.00    -0.387 OA 
HETATM   18  C   UNL     1     -11.189  11.575  67.193  1.00  0.00    -0.365 C  
BRANCH  18  19
HETATM   19  C   UNL     1     -11.924  11.208  68.491  1.00  0.00    -0.250 C  
BRANCH  19  20
HETATM   20  C   UNL     1     -11.051  11.207  69.720  1.00  0.00    -0.271 C  
HETATM   21  C   UNL     1     -10.562  10.146  70.381  1.00  0.00    -0.287 C  
BRANCH  21  22
HETATM   22  C   UNL     1     -10.806   8.707  70.043  1.00  0.00    -0.226 C  
BRANCH  22  23
HETATM   23  C   UNL     1     -11.113   7.858  71.276  1.00  0.00    -0.278 C  
BRANCH  23  24
HETATM   24  C   UNL     1     -12.087   8.609  72.185  1.00  0.00    -0.451 C  
HETATM   25  C   UNL     1     -13.523   8.215  71.950  1.00  0.00    -0.324 C  
HETATM   26  O   UNL     1     -13.909   7.396  71.134  1.00  0.00    -0.316 OA 
HETATM   27  O   UNL     1     -14.370   8.888  72.765  1.00  0.00    -0.600 OA 
ENDBRANCH  23  24
ENDBRANCH  22  23
ENDBRANCH  21  22
ENDBRANCH  19  20
ENDBRANCH  18  19
ENDBRANCH  10  11
ENDBRANCH   6   9
ENDBRANCH   5   6
ENDBRANCH   4   5
ENDBRANCH   3   4
ENDBRANCH   2   3
TORSDOF 11
ENDMDL
MODEL      196
REMARK 921   NORMALIZED FREE ENERGY PREDICTED BY IDOCK:   -4.26 KCAL/MOL
REMARK 922        TOTAL FREE ENERGY PREDICTED BY IDOCK:   -8.82 KCAL/MOL
REMARK 923 INTER-LIGAND FREE ENERGY PREDICTED BY IDOCK:   -7.37 KCAL/MOL
REMARK 924 INTRA-LIGAND FREE ENERGY PREDICTED BY IDOCK:   -1.45 KCAL/MOL
REMARK 927      BINDING AFFINITY PREDICTED BY RF-SCORE:    0.00 PKD
ROOT
HETATM    1  C   UNL     1     -10.288  19.785  66.052  1.00  0.00    -0.612 C  
HETATM    2  C   UNL     1     -10.094  18.306  66.333  1.00  0.00    -0.406 C  
ENDROOT
BRANCH   2   3
HETATM    3  C   UNL     1     -10.173  17.991  67.828  1.00  0.00    -0.385 C  
BRANCH   3   4
HETATM    4  C   UNL     1      -8.766  17.860  68.415  1.00  0.00    -0.296 C  
BRANCH   4   5
HETATM    5  C   UNL     1      -7.802  17.140  67.471  1.00  0.00    -0.190 C  
BRANCH   5   6
HETATM    6  C   UNL     1      -7.455  15.713  67.930  1.00  0.00    -0.133 C  
HETATM    7  O   UNL     1      -6.309  15.304  67.188  1.00  0.00    -0.297 OA 
HETATM    8  H   UNL     1      -6.095  14.423  67.472  1.00  0.00     0.000 HD 
BRANCH   6   9
HETATM    9  C   UNL     1      -8.595  14.735  67.741  1.00  0.00    -0.169 C  
HETATM   10  C   UNL     1      -9.261  14.487  66.599  1.00  0.00    -0.290 C  
BRANCH  10  11
HETATM   11  C   UNL     1     -10.515  13.643  66.492  1.00  0.00    -0.281 C  
HETATM   12  C   UNL     1     -11.758  14.559  66.518  1.00  0.00    -0.368 C  
HETATM   13  O   UNL     1     -12.084  14.976  67.836  1.00  0.00    -0.520 OA 
HETATM   14  C   UNL     1     -12.882  13.738  65.923  1.00  0.00    -0.369 C  
HETATM   15  H   UNL     1     -12.849  15.540  67.852  1.00  0.00     0.000 HD 
HETATM   16  C   UNL     1     -12.144  12.925  64.907  1.00  0.00    -0.432 C  
HETATM   17  O   UNL     1     -12.714  12.386  63.966  1.00  0.00    -0.663 OA 
HETATM   18  C   UNL     1     -10.651  12.821  65.188  1.00  0.00    -0.324 C  
BRANCH  18  19
HETATM   19  C   UNL     1     -10.221  11.362  65.407  1.00  0.00    -0.320 C  
BRANCH  19  20
HETATM   20  C   UNL     1      -9.498  11.115  66.706  1.00  0.00    -0.203 C  
HETATM   21  C   UNL     1      -9.083   9.941  67.207  1.00  0.00    -0.149 C  
BRANCH  21  22
HETATM   22  C   UNL     1      -9.278   8.596  66.577  1.00  0.00    -0.236 C  
BRANCH  22  23
HETATM   23  C   UNL     1     -10.368   7.777  67.267  1.00  0.00    -0.371 C  
BRANCH  23  24
HETATM   24  C   UNL     1      -9.819   6.395  67.624  1.00  0.00    -0.138 C  
HETATM   25  C   UNL     1     -10.179   5.345  66.604  1.00  0.00    -0.243 C  
HETATM   26  O   UNL     1     -10.834   5.533  65.593  1.00  0.00     0.225 OA 
HETATM   27  O   UNL     1      -9.683   4.129  66.935  1.00  0.00    -0.202 OA 
ENDBRANCH  23  24
ENDBRANCH  22  23
ENDBRANCH  21  22
ENDBRANCH  19  20
ENDBRANCH  18  19
ENDBRANCH  10  11
ENDBRANCH   6   9
ENDBRANCH   5   6
ENDBRANCH   4   5
ENDBRANCH   3   4
ENDBRANCH   2   3
TORSDOF 11
ENDMDL
MODEL      197
REMARK 921   NORMALIZED FREE ENERGY PREDICTED BY IDOCK:   -4.23 KCAL/MOL
REMARK 922        TOTAL FREE ENERGY PREDICTED BY IDOCK:   -8.77 KCAL/MOL
REMARK 923 INTER-LIGAND FREE ENERGY PREDICTED BY IDOCK:   -7.38 KCAL/MOL
REMARK 924 INTRA-LIGAND FREE ENERGY PREDICTED BY IDOCK:   -1.39 KCAL/MOL
REMARK 927      BINDING AFFINITY PREDICTED BY RF-SCORE:    0.00 PKD
ROOT
HETATM    1  C   UNL     1      -7.467  13.757  68.400  1.00  0.00    -0.119 C  
HETATM    2  C   UNL     1      -5.996  13.387  68.448  1.00  0.00    -0.092 C  
ENDROOT
BRANCH   2   3
HETATM    3  C   UNL     1      -5.638  12.319  67.413  1.00  0.00    -0.134 C  
BRANCH   3   4
HETATM    4  C   UNL     1      -6.875  11.493  67.057  1.00  0.00    -0.147 C  
BRANCH   4   5
HETATM    5  C   UNL     1      -6.880  10.124  67.740  1.00  0.00    -0.075 C  
BRANCH   5   6
HETATM    6  C   UNL     1      -7.185  10.198  69.246  1.00  0.00    -0.085 C  
HETATM    7  O   UNL     1      -6.557   9.072  69.854  1.00  0.00    -0.040 OA 
HETATM    8  H   UNL     1      -6.745   9.118  70.784  1.00  0.00     0.000 HD 
BRANCH   6   9
HETATM    9  C   UNL     1      -8.669  10.215  69.552  1.00  0.00    -0.189 C  
HETATM   10  C   UNL     1      -9.646  10.697  68.764  1.00  0.00    -0.190 C  
BRANCH  10  11
HETATM   11  C   UNL     1     -11.093  10.867  69.182  1.00  0.00    -0.301 C  
HETATM   12  C   UNL     1     -11.408   9.911  70.353  1.00  0.00    -0.307 C  
HETATM   13  O   UNL     1     -11.634   8.581  69.908  1.00  0.00    -0.452 OA 
HETATM   14  C   UNL     1     -12.648  10.472  71.015  1.00  0.00    -0.499 C  
HETATM   15  H   UNL     1     -11.828   7.993  70.629  1.00  0.00     0.000 HD 
HETATM   16  C   UNL     1     -12.438  11.942  70.829  1.00  0.00    -0.291 C  
HETATM   17  O   UNL     1     -13.021  12.775  71.514  1.00  0.00    -0.377 OA 
HETATM   18  C   UNL     1     -11.471  12.275  69.701  1.00  0.00    -0.285 C  
BRANCH  18  19
HETATM   19  C   UNL     1     -12.154  13.105  68.603  1.00  0.00    -0.222 C  
BRANCH  19  20
HETATM   20  C   UNL     1     -11.297  14.208  68.036  1.00  0.00    -0.324 C  
HETATM   21  C   UNL     1     -10.653  15.176  68.705  1.00  0.00    -0.234 C  
BRANCH  21  22
HETATM   22  C   UNL     1     -10.669  15.384  70.188  1.00  0.00    -0.326 C  
BRANCH  22  23
HETATM   23  C   UNL     1     -12.042  15.809  70.707  1.00  0.00    -0.448 C  
BRANCH  23  24
HETATM   24  C   UNL     1     -11.936  16.181  72.187  1.00  0.00    -0.623 C  
HETATM   25  C   UNL     1     -13.247  16.038  72.917  1.00  0.00    -0.461 C  
HETATM   26  O   UNL     1     -14.299  15.672  72.421  1.00  0.00    -0.546 OA 
HETATM   27  O   UNL     1     -13.134  16.369  74.225  1.00  0.00    -0.616 OA 
ENDBRANCH  23  24
ENDBRANCH  22  23
ENDBRANCH  21  22
ENDBRANCH  19  20
ENDBRANCH  18  19
ENDBRANCH  10  11
ENDBRANCH   6   9
ENDBRANCH   5   6
ENDBRANCH   4   5
ENDBRANCH   3   4
ENDBRANCH   2   3
TORSDOF 11
ENDMDL
MODEL      198
REMARK 921   NORMALIZED FREE ENERGY PREDICTED BY IDOCK:   -4.23 KCAL/MOL
REMARK 922        TOTAL FREE ENERGY PREDICTED BY IDOCK:   -8.77 KCAL/MOL
REMARK 923 INTER-LIGAND FREE ENERGY PREDICTED BY IDOCK:   -6.30 KCAL/MOL
REMARK 924 INTRA-LIGAND FREE ENERGY PREDICTED BY IDOCK:   -2.46 KCAL/MOL
REMARK 927      BINDING AFFINITY PREDICTED BY RF-SCORE:    0.00 PKD
ROOT
HETATM    1  C   UNL     1     -10.905   6.727  67.077  1.00  0.00    -0.453 C  
HETATM    2  C   UNL     1     -10.209   8.057  66.856  1.00  0.00    -0.385 C  
ENDROOT
BRANCH   2   3
HETATM    3  C   UNL     1      -9.010   7.929  65.915  1.00  0.00    -0.166 C  
BRANCH   3   4
HETATM    4  C   UNL     1      -7.791   7.411  66.681  1.00  0.00    -0.109 C  
BRANCH   4   5
HETATM    5  C   UNL     1      -7.420   8.307  67.864  1.00  0.00    -0.098 C  
BRANCH   5   6
HETATM    6  C   UNL     1      -6.717   9.609  67.443  1.00  0.00    -0.071 C  
HETATM    7  O   UNL     1      -5.741   9.897  68.440  1.00  0.00    -0.042 OA 
HETATM    8  H   UNL     1      -5.307  10.701  68.180  1.00  0.00     0.000 HD 
BRANCH   6   9
HETATM    9  C   UNL     1      -7.673  10.772  67.276  1.00  0.00    -0.109 C  
HETATM   10  C   UNL     1      -8.519  11.257  68.202  1.00  0.00    -0.145 C  
BRANCH  10  11
HETATM   11  C   UNL     1      -9.590  12.297  67.939  1.00  0.00    -0.203 C  
HETATM   12  C   UNL     1      -8.986  13.468  67.135  1.00  0.00    -0.227 C  
HETATM   13  O   UNL     1      -8.247  14.356  67.963  1.00  0.00    -0.131 OA 
HETATM   14  C   UNL     1     -10.163  14.180  66.504  1.00  0.00    -0.278 C  
HETATM   15  H   UNL     1      -7.876  15.077  67.467  1.00  0.00     0.000 HD 
HETATM   16  C   UNL     1     -11.089  13.034  66.240  1.00  0.00    -0.289 C  
HETATM   17  O   UNL     1     -12.003  13.110  65.427  1.00  0.00    -0.358 OA 
HETATM   18  C   UNL     1     -10.793  11.811  67.096  1.00  0.00    -0.303 C  
BRANCH  18  19
HETATM   19  C   UNL     1     -11.988  11.450  67.992  1.00  0.00    -0.162 C  
BRANCH  19  20
HETATM   20  C   UNL     1     -12.008  12.167  69.318  1.00  0.00    -0.318 C  
HETATM   21  C   UNL     1     -12.058  11.627  70.545  1.00  0.00    -0.458 C  
BRANCH  21  22
HETATM   22  C   UNL     1     -12.130  10.165  70.863  1.00  0.00    -0.453 C  
BRANCH  22  23
HETATM   23  C   UNL     1     -10.749   9.528  71.015  1.00  0.00    -0.411 C  
BRANCH  23  24
HETATM   24  C   UNL     1     -10.835   8.037  70.688  1.00  0.00    -0.240 C  
HETATM   25  C   UNL     1     -11.100   7.189  71.906  1.00  0.00    -0.236 C  
HETATM   26  O   UNL     1     -11.234   7.604  73.043  1.00  0.00    -0.384 OA 
HETATM   27  O   UNL     1     -11.175   5.872  71.596  1.00  0.00    -0.272 OA 
ENDBRANCH  23  24
ENDBRANCH  22  23
ENDBRANCH  21  22
ENDBRANCH  19  20
ENDBRANCH  18  19
ENDBRANCH  10  11
ENDBRANCH   6   9
ENDBRANCH   5   6
ENDBRANCH   4   5
ENDBRANCH   3   4
ENDBRANCH   2   3
TORSDOF 11
ENDMDL
MODEL      199
REMARK 921   NORMALIZED FREE ENERGY PREDICTED BY IDOCK:   -4.22 KCAL/MOL
REMARK 922        TOTAL FREE ENERGY PREDICTED BY IDOCK:   -8.75 KCAL/MOL
REMARK 923 INTER-LIGAND FREE ENERGY PREDICTED BY IDOCK:   -6.87 KCAL/MOL
REMARK 924 INTRA-LIGAND FREE ENERGY PREDICTED BY IDOCK:   -1.88 KCAL/MOL
REMARK 927      BINDING AFFINITY PREDICTED BY RF-SCORE:    0.00 PKD
ROOT
HETATM    1  C   UNL     1     -12.383  13.143  65.150  1.00  0.00    -0.525 C  
HETATM    2  C   UNL     1     -12.900  12.417  63.921  1.00  0.00    -0.369 C  
ENDROOT
BRANCH   2   3
HETATM    3  C   UNL     1     -11.848  11.483  63.321  1.00  0.00    -0.089 C  
BRANCH   3   4
HETATM    4  C   UNL     1     -10.448  11.908  63.767  1.00  0.00    -0.468 C  
BRANCH   4   5
HETATM    5  C   UNL     1      -9.617  10.733  64.285  1.00  0.00    -0.333 C  
BRANCH   5   6
HETATM    6  C   UNL     1      -9.351  10.798  65.799  1.00  0.00    -0.203 C  
HETATM    7  O   UNL     1      -8.115  11.486  65.976  1.00  0.00    -0.368 OA 
HETATM    8  H   UNL     1      -7.951  11.527  66.910  1.00  0.00     0.000 HD 
BRANCH   6   9
HETATM    9  C   UNL     1      -9.302   9.432  66.452  1.00  0.00    -0.241 C  
HETATM   10  C   UNL     1     -10.340   8.751  66.970  1.00  0.00    -0.353 C  
BRANCH  10  11
HETATM   11  C   UNL     1     -10.223   7.476  67.780  1.00  0.00    -0.257 C  
HETATM   12  C   UNL     1      -9.207   6.527  67.106  1.00  0.00    -0.128 C  
HETATM   13  O   UNL     1      -9.774   5.840  65.999  1.00  0.00    -0.304 OA 
HETATM   14  C   UNL     1      -8.785   5.552  68.183  1.00  0.00    -0.102 C  
HETATM   15  H   UNL     1      -9.149   5.257  65.585  1.00  0.00     0.000 HD 
HETATM   16  C   UNL     1      -8.828   6.422  69.399  1.00  0.00    -0.132 C  
HETATM   17  O   UNL     1      -8.228   6.134  70.428  1.00  0.00    -0.113 OA 
HETATM   18  C   UNL     1      -9.705   7.654  69.226  1.00  0.00    -0.164 C  
BRANCH  18  19
HETATM   19  C   UNL     1     -10.866   7.662  70.233  1.00  0.00    -0.253 C  
BRANCH  19  20
HETATM   20  C   UNL     1     -10.829   8.805  71.215  1.00  0.00    -0.347 C  
HETATM   21  C   UNL     1     -11.248  10.066  71.028  1.00  0.00    -0.387 C  
BRANCH  21  22
HETATM   22  C   UNL     1     -11.833  10.622  69.766  1.00  0.00    -0.377 C  
BRANCH  22  23
HETATM   23  C   UNL     1     -10.885  11.583  69.053  1.00  0.00    -0.258 C  
BRANCH  23  24
HETATM   24  C   UNL     1     -11.690  12.717  68.415  1.00  0.00    -0.377 C  
HETATM   25  C   UNL     1     -11.073  14.072  68.652  1.00  0.00    -0.264 C  
HETATM   26  O   UNL     1     -10.050  14.286  69.277  1.00  0.00    -0.119 OA 
HETATM   27  O   UNL     1     -11.798  15.062  68.078  1.00  0.00    -0.335 OA 
ENDBRANCH  23  24
ENDBRANCH  22  23
ENDBRANCH  21  22
ENDBRANCH  19  20
ENDBRANCH  18  19
ENDBRANCH  10  11
ENDBRANCH   6   9
ENDBRANCH   5   6
ENDBRANCH   4   5
ENDBRANCH   3   4
ENDBRANCH   2   3
TORSDOF 11
ENDMDL
MODEL      200
REMARK 921   NORMALIZED FREE ENERGY PREDICTED BY IDOCK:   -4.22 KCAL/MOL
REMARK 922        TOTAL FREE ENERGY PREDICTED BY IDOCK:   -8.75 KCAL/MOL
REMARK 923 INTER-LIGAND FREE ENERGY PREDICTED BY IDOCK:   -7.15 KCAL/MOL
REMARK 924 INTRA-LIGAND FREE ENERGY PREDICTED BY IDOCK:   -1.60 KCAL/MOL
REMARK 927      BINDING AFFINITY PREDICTED BY RF-SCORE:    0.00 PKD
ROOT
HETATM    1  C   UNL     1      -9.673  16.776  66.230  1.00  0.00    -0.318 C  
HETATM    2  C   UNL     1      -9.865  15.378  65.671  1.00  0.00    -0.387 C  
ENDROOT
BRANCH   2   3
HETATM    3  C   UNL     1     -10.985  15.324  64.631  1.00  0.00    -0.322 C  
BRANCH   3   4
HETATM    4  C   UNL     1     -11.970  14.205  64.976  1.00  0.00    -0.412 C  
BRANCH   4   5
HETATM    5  C   UNL     1     -11.421  13.246  66.032  1.00  0.00    -0.360 C  
BRANCH   5   6
HETATM    6  C   UNL     1     -12.256  13.222  67.324  1.00  0.00    -0.205 C  
HETATM    7  O   UNL     1     -12.407  14.574  67.748  1.00  0.00    -0.619 OA 
HETATM    8  H   UNL     1     -12.923  14.559  68.546  1.00  0.00     0.000 HD 
BRANCH   6   9
HETATM    9  C   UNL     1     -11.631  12.382  68.420  1.00  0.00    -0.373 C  
HETATM   10  C   UNL     1     -11.931  11.107  68.726  1.00  0.00    -0.337 C  
BRANCH  10  11
HETATM   11  C   UNL     1     -11.421  10.364  69.944  1.00  0.00    -0.368 C  
HETATM   12  C   UNL     1     -12.572  10.180  70.957  1.00  0.00    -0.381 C  
HETATM   13  O   UNL     1     -12.813  11.362  71.708  1.00  0.00    -0.405 OA 
HETATM   14  C   UNL     1     -12.141   9.048  71.863  1.00  0.00    -0.448 C  
HETATM   15  H   UNL     1     -13.521  11.249  72.331  1.00  0.00     0.000 HD 
HETATM   16  C   UNL     1     -11.375   8.186  70.910  1.00  0.00    -0.268 C  
HETATM   17  O   UNL     1     -11.151   7.003  71.137  1.00  0.00    -0.245 OA 
HETATM   18  C   UNL     1     -10.893   8.935  69.675  1.00  0.00    -0.186 C  
BRANCH  18  19
HETATM   19  C   UNL     1      -9.360   8.921  69.574  1.00  0.00    -0.155 C  
BRANCH  19  20
HETATM   20  C   UNL     1      -8.815   7.987  68.524  1.00  0.00    -0.134 C  
HETATM   21  C   UNL     1      -9.030   8.022  67.200  1.00  0.00    -0.150 C  
BRANCH  21  22
HETATM   22  C   UNL     1      -9.896   9.004  66.473  1.00  0.00    -0.338 C  
BRANCH  22  23
HETATM   23  C   UNL     1      -9.122   9.817  65.437  1.00  0.00    -0.251 C  
BRANCH  23  24
HETATM   24  C   UNL     1      -7.687  10.030  65.922  1.00  0.00    -0.116 C  
HETATM   25  C   UNL     1      -7.561  11.195  66.870  1.00  0.00    -0.145 C  
HETATM   26  O   UNL     1      -8.474  11.916  67.233  1.00  0.00    -0.156 OA 
HETATM   27  O   UNL     1      -6.285  11.367  67.290  1.00  0.00    -0.071 OA 
ENDBRANCH  23  24
ENDBRANCH  22  23
ENDBRANCH  21  22
ENDBRANCH  19  20
ENDBRANCH  18  19
ENDBRANCH  10  11
ENDBRANCH   6   9
ENDBRANCH   5   6
ENDBRANCH   4   5
ENDBRANCH   3   4
ENDBRANCH   2   3
TORSDOF 11
ENDMDL
MODEL      201
REMARK 921   NORMALIZED FREE ENERGY PREDICTED BY IDOCK:   -4.22 KCAL/MOL
REMARK 922        TOTAL FREE ENERGY PREDICTED BY IDOCK:   -8.74 KCAL/MOL
REMARK 923 INTER-LIGAND FREE ENERGY PREDICTED BY IDOCK:   -6.59 KCAL/MOL
REMARK 924 INTRA-LIGAND FREE ENERGY PREDICTED BY IDOCK:   -2.16 KCAL/MOL
REMARK 927      BINDING AFFINITY PREDICTED BY RF-SCORE:    0.00 PKD
ROOT
HETATM    1  C   UNL     1      -7.654   9.642  69.771  1.00  0.00    -0.123 C  
HETATM    2  C   UNL     1      -7.513  11.047  69.216  1.00  0.00    -0.100 C  
ENDROOT
BRANCH   2   3
HETATM    3  C   UNL     1      -7.180  11.046  67.723  1.00  0.00    -0.091 C  
BRANCH   3   4
HETATM    4  C   UNL     1      -8.289  10.346  66.936  1.00  0.00    -0.124 C  
BRANCH   4   5
HETATM    5  C   UNL     1      -9.665  10.965  67.186  1.00  0.00    -0.199 C  
BRANCH   5   6
HETATM    6  C   UNL     1     -10.801   9.928  67.218  1.00  0.00    -0.199 C  
HETATM    7  O   UNL     1     -11.749  10.378  68.182  1.00  0.00    -0.714 OA 
HETATM    8  H   UNL     1     -12.451   9.738  68.202  1.00  0.00     0.000 HD 
BRANCH   6   9
HETATM    9  C   UNL     1     -10.320   8.531  67.550  1.00  0.00    -0.334 C  
HETATM   10  C   UNL     1     -10.320   7.464  66.731  1.00  0.00    -0.321 C  
BRANCH  10  11
HETATM   11  C   UNL     1     -10.006   6.044  67.156  1.00  0.00    -0.186 C  
HETATM   12  C   UNL     1     -10.072   5.111  65.927  1.00  0.00    -0.123 C  
HETATM   13  O   UNL     1     -11.409   4.774  65.585  1.00  0.00    -0.900 OA 
HETATM   14  C   UNL     1      -9.290   3.874  66.312  1.00  0.00    -0.186 C  
HETATM   15  H   UNL     1     -11.449   4.200  64.829  1.00  0.00     0.000 HD 
HETATM   16  C   UNL     1      -8.225   4.461  67.183  1.00  0.00    -0.101 C  
HETATM   17  O   UNL     1      -7.179   3.868  67.423  1.00  0.00    -0.065 OA 
HETATM   18  C   UNL     1      -8.594   5.826  67.748  1.00  0.00    -0.101 C  
BRANCH  18  19
HETATM   19  C   UNL     1      -8.636   5.804  69.284  1.00  0.00    -0.111 C  
BRANCH  19  20
HETATM   20  C   UNL     1      -9.414   4.653  69.868  1.00  0.00    -0.237 C  
HETATM   21  C   UNL     1     -10.386   4.701  70.792  1.00  0.00    -0.126 C  
BRANCH  21  22
HETATM   22  C   UNL     1     -10.898   5.934  71.470  1.00  0.00    -0.325 C  
BRANCH  22  23
HETATM   23  C   UNL     1     -11.768   6.792  70.552  1.00  0.00    -0.430 C  
BRANCH  23  24
HETATM   24  C   UNL     1     -11.851   8.214  71.108  1.00  0.00    -0.303 C  
HETATM   25  C   UNL     1     -13.210   8.540  71.671  1.00  0.00    -0.343 C  
HETATM   26  O   UNL     1     -14.166   7.784  71.699  1.00  0.00    -0.412 OA 
HETATM   27  O   UNL     1     -13.264   9.802  72.161  1.00  0.00    -0.433 OA 
ENDBRANCH  23  24
ENDBRANCH  22  23
ENDBRANCH  21  22
ENDBRANCH  19  20
ENDBRANCH  18  19
ENDBRANCH  10  11
ENDBRANCH   6   9
ENDBRANCH   5   6
ENDBRANCH   4   5
ENDBRANCH   3   4
ENDBRANCH   2   3
TORSDOF 11
ENDMDL
MODEL      202
REMARK 921   NORMALIZED FREE ENERGY PREDICTED BY IDOCK:   -4.21 KCAL/MOL
REMARK 922        TOTAL FREE ENERGY PREDICTED BY IDOCK:   -8.73 KCAL/MOL
REMARK 923 INTER-LIGAND FREE ENERGY PREDICTED BY IDOCK:   -7.36 KCAL/MOL
REMARK 924 INTRA-LIGAND FREE ENERGY PREDICTED BY IDOCK:   -1.37 KCAL/MOL
REMARK 927      BINDING AFFINITY PREDICTED BY RF-SCORE:    0.00 PKD
ROOT
HETATM    1  C   UNL     1     -11.205  14.538  66.733  1.00  0.00    -0.336 C  
HETATM    2  C   UNL     1     -11.015  14.852  65.260  1.00  0.00    -0.389 C  
ENDROOT
BRANCH   2   3
HETATM    3  C   UNL     1     -12.231  14.447  64.425  1.00  0.00    -0.481 C  
BRANCH   3   4
HETATM    4  C   UNL     1     -12.618  12.997  64.723  1.00  0.00    -0.460 C  
BRANCH   4   5
HETATM    5  C   UNL     1     -12.180  12.035  63.618  1.00  0.00    -0.642 C  
BRANCH   5   6
HETATM    6  C   UNL     1     -10.724  11.558  63.770  1.00  0.00    -0.408 C  
HETATM    7  O   UNL     1     -10.412  10.798  62.606  1.00  0.00    -0.760 OA 
HETATM    8  H   UNL     1      -9.514  10.504  62.699  1.00  0.00     0.000 HD 
BRANCH   6   9
HETATM    9  C   UNL     1     -10.496  10.739  65.023  1.00  0.00    -0.307 C  
HETATM   10  C   UNL     1      -9.838  11.128  66.130  1.00  0.00    -0.265 C  
BRANCH  10  11
HETATM   11  C   UNL     1      -9.469  10.219  67.285  1.00  0.00    -0.174 C  
HETATM   12  C   UNL     1      -9.492  11.023  68.603  1.00  0.00    -0.195 C  
HETATM   13  O   UNL     1      -8.318  11.806  68.769  1.00  0.00    -0.297 OA 
HETATM   14  C   UNL     1      -9.611   9.995  69.706  1.00  0.00    -0.249 C  
HETATM   15  H   UNL     1      -8.332  12.300  69.580  1.00  0.00     0.000 HD 
HETATM   16  C   UNL     1     -10.459   8.954  69.046  1.00  0.00    -0.214 C  
HETATM   17  O   UNL     1     -11.085   8.120  69.689  1.00  0.00    -0.154 OA 
HETATM   18  C   UNL     1     -10.430   9.030  67.525  1.00  0.00    -0.338 C  
BRANCH  18  19
HETATM   19  C   UNL     1      -9.874   7.737  66.910  1.00  0.00    -0.305 C  
BRANCH  19  20
HETATM   20  C   UNL     1     -10.876   6.615  66.812  1.00  0.00    -0.322 C  
HETATM   21  C   UNL     1     -10.648   5.334  66.484  1.00  0.00    -0.348 C  
BRANCH  21  22
HETATM   22  C   UNL     1      -9.323   4.741  66.112  1.00  0.00    -0.152 C  
BRANCH  22  23
HETATM   23  C   UNL     1      -9.060   3.408  66.810  1.00  0.00    -0.183 C  
BRANCH  23  24
HETATM   24  C   UNL     1      -9.432   3.522  68.289  1.00  0.00    -0.210 C  
HETATM   25  C   UNL     1      -8.236   3.402  69.200  1.00  0.00    -0.059 C  
HETATM   26  O   UNL     1      -7.085   3.231  68.840  1.00  0.00    -0.048 OA 
HETATM   27  O   UNL     1      -8.585   3.508  70.505  1.00  0.00    -0.066 OA 
ENDBRANCH  23  24
ENDBRANCH  22  23
ENDBRANCH  21  22
ENDBRANCH  19  20
ENDBRANCH  18  19
ENDBRANCH  10  11
ENDBRANCH   6   9
ENDBRANCH   5   6
ENDBRANCH   4   5
ENDBRANCH   3   4
ENDBRANCH   2   3
TORSDOF 11
ENDMDL
MODEL      203
REMARK 921   NORMALIZED FREE ENERGY PREDICTED BY IDOCK:   -4.20 KCAL/MOL
REMARK 922        TOTAL FREE ENERGY PREDICTED BY IDOCK:   -8.72 KCAL/MOL
REMARK 923 INTER-LIGAND FREE ENERGY PREDICTED BY IDOCK:   -7.45 KCAL/MOL
REMARK 924 INTRA-LIGAND FREE ENERGY PREDICTED BY IDOCK:   -1.27 KCAL/MOL
REMARK 927      BINDING AFFINITY PREDICTED BY RF-SCORE:    0.00 PKD
ROOT
HETATM    1  C   UNL     1     -14.036   9.327  72.244  1.00  0.00    -0.439 C  
HETATM    2  C   UNL     1     -12.590   8.868  72.266  1.00  0.00    -0.455 C  
ENDROOT
BRANCH   2   3
HETATM    3  C   UNL     1     -11.697   9.738  71.380  1.00  0.00    -0.475 C  
BRANCH   3   4
HETATM    4  C   UNL     1     -12.554  10.615  70.466  1.00  0.00    -0.433 C  
BRANCH   4   5
HETATM    5  C   UNL     1     -11.818  11.873  70.002  1.00  0.00    -0.407 C  
BRANCH   5   6
HETATM    6  C   UNL     1     -11.262  11.757  68.571  1.00  0.00    -0.252 C  
HETATM    7  O   UNL     1     -12.380  11.771  67.687  1.00  0.00    -0.327 OA 
HETATM    8  H   UNL     1     -12.037  11.701  66.805  1.00  0.00     0.000 HD 
BRANCH   6   9
HETATM    9  C   UNL     1     -10.425  10.513  68.359  1.00  0.00    -0.212 C  
HETATM   10  C   UNL     1     -10.749   9.444  67.610  1.00  0.00    -0.295 C  
BRANCH  10  11
HETATM   11  C   UNL     1      -9.973   8.143  67.572  1.00  0.00    -0.251 C  
HETATM   12  C   UNL     1     -10.958   6.954  67.564  1.00  0.00    -0.270 C  
HETATM   13  O   UNL     1     -11.469   6.677  68.860  1.00  0.00    -0.582 OA 
HETATM   14  C   UNL     1     -10.169   5.775  67.037  1.00  0.00    -0.258 C  
HETATM   15  H   UNL     1     -12.075   5.945  68.855  1.00  0.00     0.000 HD 
HETATM   16  C   UNL     1      -9.258   6.447  66.059  1.00  0.00    -0.059 C  
HETATM   17  O   UNL     1      -8.698   5.830  65.160  1.00  0.00    -0.142 OA 
HETATM   18  C   UNL     1      -9.086   7.937  66.321  1.00  0.00    -0.224 C  
BRANCH  18  19
HETATM   19  C   UNL     1      -7.620   8.288  66.619  1.00  0.00    -0.090 C  
BRANCH  19  20
HETATM   20  C   UNL     1      -6.922   9.030  65.508  1.00  0.00    -0.080 C  
HETATM   21  C   UNL     1      -7.479   9.753  64.523  1.00  0.00    -0.135 C  
BRANCH  21  22
HETATM   22  C   UNL     1      -8.946   9.957  64.302  1.00  0.00    -0.278 C  
BRANCH  22  23
HETATM   23  C   UNL     1      -9.366  11.418  64.456  1.00  0.00    -0.095 C  
BRANCH  23  24
HETATM   24  C   UNL     1     -10.873  11.544  64.232  1.00  0.00    -0.421 C  
HETATM   25  C   UNL     1     -11.436  12.835  64.769  1.00  0.00    -0.317 C  
HETATM   26  O   UNL     1     -10.796  13.709  65.328  1.00  0.00    -0.299 OA 
HETATM   27  O   UNL     1     -12.770  12.929  64.559  1.00  0.00    -0.654 OA 
ENDBRANCH  23  24
ENDBRANCH  22  23
ENDBRANCH  21  22
ENDBRANCH  19  20
ENDBRANCH  18  19
ENDBRANCH  10  11
ENDBRANCH   6   9
ENDBRANCH   5   6
ENDBRANCH   4   5
ENDBRANCH   3   4
ENDBRANCH   2   3
TORSDOF 11
ENDMDL
MODEL      204
REMARK 921   NORMALIZED FREE ENERGY PREDICTED BY IDOCK:   -4.20 KCAL/MOL
REMARK 922        TOTAL FREE ENERGY PREDICTED BY IDOCK:   -8.71 KCAL/MOL
REMARK 923 INTER-LIGAND FREE ENERGY PREDICTED BY IDOCK:   -7.47 KCAL/MOL
REMARK 924 INTRA-LIGAND FREE ENERGY PREDICTED BY IDOCK:   -1.24 KCAL/MOL
REMARK 927      BINDING AFFINITY PREDICTED BY RF-SCORE:    0.00 PKD
ROOT
HETATM    1  C   UNL     1      -5.662  18.587  64.921  1.00  0.00    -0.228 C  
HETATM    2  C   UNL     1      -6.270  17.802  66.068  1.00  0.00    -0.263 C  
ENDROOT
BRANCH   2   3
HETATM    3  C   UNL     1      -7.725  18.198  66.328  1.00  0.00    -0.290 C  
BRANCH   3   4
HETATM    4  C   UNL     1      -8.436  17.102  67.123  1.00  0.00    -0.219 C  
BRANCH   4   5
HETATM    5  C   UNL     1      -9.857  16.844  66.622  1.00  0.00    -0.295 C  
BRANCH   5   6
HETATM    6  C   UNL     1     -10.940  17.207  67.653  1.00  0.00    -0.148 C  
HETATM    7  O   UNL     1     -10.701  18.554  68.052  1.00  0.00    -0.347 OA 
HETATM    8  H   UNL     1     -11.370  18.778  68.688  1.00  0.00     0.000 HD 
BRANCH   6   9
HETATM    9  C   UNL     1     -10.948  16.285  68.855  1.00  0.00    -0.334 C  
HETATM   10  C   UNL     1     -12.029  15.757  69.457  1.00  0.00    -0.326 C  
BRANCH  10  11
HETATM   11  C   UNL     1     -12.007  14.993  70.766  1.00  0.00    -0.371 C  
HETATM   12  C   UNL     1     -12.615  15.868  71.884  1.00  0.00    -0.443 C  
HETATM   13  O   UNL     1     -11.691  16.833  72.366  1.00  0.00    -0.547 OA 
HETATM   14  C   UNL     1     -13.009  14.906  72.985  1.00  0.00    -0.599 C  
HETATM   15  H   UNL     1     -12.066  17.371  73.055  1.00  0.00     0.000 HD 
HETATM   16  C   UNL     1     -13.417  13.705  72.192  1.00  0.00    -0.512 C  
HETATM   17  O   UNL     1     -14.130  12.826  72.661  1.00  0.00    -0.470 OA 
HETATM   18  C   UNL     1     -12.835  13.687  70.785  1.00  0.00    -0.273 C  
BRANCH  18  19
HETATM   19  C   UNL     1     -11.937  12.459  70.565  1.00  0.00    -0.284 C  
BRANCH  19  20
HETATM   20  C   UNL     1     -12.275  11.655  69.336  1.00  0.00    -0.246 C  
HETATM   21  C   UNL     1     -11.511  11.451  68.251  1.00  0.00    -0.369 C  
BRANCH  21  22
HETATM   22  C   UNL     1     -10.143  12.013  68.017  1.00  0.00    -0.199 C  
BRANCH  22  23
HETATM   23  C   UNL     1      -9.061  10.934  67.989  1.00  0.00    -0.152 C  
BRANCH  23  24
HETATM   24  C   UNL     1      -9.702   9.561  68.200  1.00  0.00    -0.166 C  
HETATM   25  C   UNL     1      -8.974   8.730  69.225  1.00  0.00    -0.144 C  
HETATM   26  O   UNL     1      -7.980   9.074  69.840  1.00  0.00    -0.089 OA 
HETATM   27  O   UNL     1      -9.557   7.520  69.400  1.00  0.00    -0.156 OA 
ENDBRANCH  23  24
ENDBRANCH  22  23
ENDBRANCH  21  22
ENDBRANCH  19  20
ENDBRANCH  18  19
ENDBRANCH  10  11
ENDBRANCH   6   9
ENDBRANCH   5   6
ENDBRANCH   4   5
ENDBRANCH   3   4
ENDBRANCH   2   3
TORSDOF 11
ENDMDL
MODEL      205
REMARK 921   NORMALIZED FREE ENERGY PREDICTED BY IDOCK:   -4.19 KCAL/MOL
REMARK 922        TOTAL FREE ENERGY PREDICTED BY IDOCK:   -8.69 KCAL/MOL
REMARK 923 INTER-LIGAND FREE ENERGY PREDICTED BY IDOCK:   -7.40 KCAL/MOL
REMARK 924 INTRA-LIGAND FREE ENERGY PREDICTED BY IDOCK:   -1.30 KCAL/MOL
REMARK 927      BINDING AFFINITY PREDICTED BY RF-SCORE:    0.00 PKD
ROOT
HETATM    1  C   UNL     1      -7.416  12.102  67.914  1.00  0.00    -0.117 C  
HETATM    2  C   UNL     1      -6.892  10.759  68.389  1.00  0.00    -0.068 C  
ENDROOT
BRANCH   2   3
HETATM    3  C   UNL     1      -7.671  10.233  69.595  1.00  0.00    -0.166 C  
BRANCH   3   4
HETATM    4  C   UNL     1      -8.472   8.989  69.205  1.00  0.00    -0.128 C  
BRANCH   4   5
HETATM    5  C   UNL     1      -9.925   9.056  69.678  1.00  0.00    -0.196 C  
BRANCH   5   6
HETATM    6  C   UNL     1     -10.929   9.253  68.528  1.00  0.00     0.011 C  
HETATM    7  O   UNL     1     -11.036   8.005  67.849  1.00  0.00    -0.477 OA 
HETATM    8  H   UNL     1     -11.656   8.127  67.140  1.00  0.00     0.000 HD 
BRANCH   6   9
HETATM    9  C   UNL     1     -10.524  10.354  67.569  1.00  0.00    -0.292 C  
HETATM   10  C   UNL     1     -11.269  11.410  67.197  1.00  0.00    -0.363 C  
BRANCH  10  11
HETATM   11  C   UNL     1     -10.902  12.385  66.096  1.00  0.00    -0.308 C  
HETATM   12  C   UNL     1     -11.190  11.743  64.721  1.00  0.00    -0.271 C  
HETATM   13  O   UNL     1     -10.169  10.834  64.335  1.00  0.00    -0.336 OA 
HETATM   14  C   UNL     1     -11.280  12.895  63.744  1.00  0.00    -0.452 C  
HETATM   15  H   UNL     1     -10.346  10.439  63.489  1.00  0.00     0.000 HD 
HETATM   16  C   UNL     1     -11.887  13.959  64.602  1.00  0.00    -0.407 C  
HETATM   17  O   UNL     1     -12.452  14.937  64.126  1.00  0.00    -0.763 OA 
HETATM   18  C   UNL     1     -11.699  13.711  66.093  1.00  0.00    -0.391 C  
BRANCH  18  19
HETATM   19  C   UNL     1     -10.895  14.842  66.753  1.00  0.00    -0.316 C  
BRANCH  19  20
HETATM   20  C   UNL     1      -9.661  15.252  65.991  1.00  0.00    -0.367 C  
HETATM   21  C   UNL     1      -8.933  16.370  66.144  1.00  0.00    -0.367 C  
BRANCH  21  22
HETATM   22  C   UNL     1      -9.215  17.480  67.108  1.00  0.00    -0.245 C  
BRANCH  22  23
HETATM   23  C   UNL     1      -8.287  18.678  66.914  1.00  0.00    -0.269 C  
BRANCH  23  24
HETATM   24  C   UNL     1      -8.221  19.490  68.208  1.00  0.00    -0.373 C  
HETATM   25  C   UNL     1      -7.028  19.133  69.058  1.00  0.00    -0.335 C  
HETATM   26  O   UNL     1      -6.187  18.295  68.783  1.00  0.00    -0.198 OA 
HETATM   27  O   UNL     1      -6.985  19.863  70.198  1.00  0.00    -0.201 OA 
ENDBRANCH  23  24
ENDBRANCH  22  23
ENDBRANCH  21  22
ENDBRANCH  19  20
ENDBRANCH  18  19
ENDBRANCH  10  11
ENDBRANCH   6   9
ENDBRANCH   5   6
ENDBRANCH   4   5
ENDBRANCH   3   4
ENDBRANCH   2   3
TORSDOF 11
ENDMDL
MODEL      206
REMARK 921   NORMALIZED FREE ENERGY PREDICTED BY IDOCK:   -4.19 KCAL/MOL
REMARK 922        TOTAL FREE ENERGY PREDICTED BY IDOCK:   -8.69 KCAL/MOL
REMARK 923 INTER-LIGAND FREE ENERGY PREDICTED BY IDOCK:   -7.42 KCAL/MOL
REMARK 924 INTRA-LIGAND FREE ENERGY PREDICTED BY IDOCK:   -1.27 KCAL/MOL
REMARK 927      BINDING AFFINITY PREDICTED BY RF-SCORE:    0.00 PKD
ROOT
HETATM    1  C   UNL     1      -7.010   4.735  72.769  1.00  0.00    -0.076 C  
HETATM    2  C   UNL     1      -8.386   5.372  72.847  1.00  0.00    -0.112 C  
ENDROOT
BRANCH   2   3
HETATM    3  C   UNL     1      -8.712   5.864  74.258  1.00  0.00    -0.122 C  
BRANCH   3   4
HETATM    4  C   UNL     1     -10.047   6.611  74.260  1.00  0.00    -0.378 C  
BRANCH   4   5
HETATM    5  C   UNL     1     -10.575   6.870  72.849  1.00  0.00    -0.290 C  
BRANCH   5   6
HETATM    6  C   UNL     1     -11.434   8.143  72.746  1.00  0.00    -0.329 C  
HETATM    7  O   UNL     1     -12.765   7.726  72.456  1.00  0.00    -0.531 OA 
HETATM    8  H   UNL     1     -13.295   8.511  72.393  1.00  0.00     0.000 HD 
BRANCH   6   9
HETATM    9  C   UNL     1     -10.934   9.113  71.695  1.00  0.00    -0.445 C  
HETATM   10  C   UNL     1     -11.643   9.628  70.675  1.00  0.00    -0.371 C  
BRANCH  10  11
HETATM   11  C   UNL     1     -11.060  10.445  69.539  1.00  0.00    -0.314 C  
HETATM   12  C   UNL     1     -10.671   9.507  68.375  1.00  0.00    -0.186 C  
HETATM   13  O   UNL     1      -9.434   8.849  68.613  1.00  0.00    -0.149 OA 
HETATM   14  C   UNL     1     -10.580  10.392  67.151  1.00  0.00    -0.319 C  
HETATM   15  H   UNL     1      -9.195   8.273  67.896  1.00  0.00     0.000 HD 
HETATM   16  C   UNL     1     -11.654  11.395  67.435  1.00  0.00    -0.184 C  
HETATM   17  O   UNL     1     -12.155  12.080  66.552  1.00  0.00    -0.617 OA 
HETATM   18  C   UNL     1     -12.018  11.485  68.911  1.00  0.00    -0.364 C  
BRANCH  18  19
HETATM   19  C   UNL     1     -11.750  12.891  69.470  1.00  0.00    -0.387 C  
BRANCH  19  20
HETATM   20  C   UNL     1     -10.363  13.415  69.197  1.00  0.00     0.099 C  
HETATM   21  C   UNL     1     -10.010  14.434  68.399  1.00  0.00    -0.241 C  
BRANCH  21  22
HETATM   22  C   UNL     1     -10.939  15.269  67.573  1.00  0.00    -0.315 C  
BRANCH  22  23
HETATM   23  C   UNL     1     -10.328  15.680  66.234  1.00  0.00    -0.316 C  
BRANCH  23  24
HETATM   24  C   UNL     1      -9.950  14.429  65.439  1.00  0.00    -0.344 C  
HETATM   25  C   UNL     1     -11.004  14.038  64.435  1.00  0.00    -0.265 C  
HETATM   26  O   UNL     1     -12.056  14.624  64.246  1.00  0.00    -0.475 OA 
HETATM   27  O   UNL     1     -10.651  12.930  63.739  1.00  0.00    -0.390 OA 
ENDBRANCH  23  24
ENDBRANCH  22  23
ENDBRANCH  21  22
ENDBRANCH  19  20
ENDBRANCH  18  19
ENDBRANCH  10  11
ENDBRANCH   6   9
ENDBRANCH   5   6
ENDBRANCH   4   5
ENDBRANCH   3   4
ENDBRANCH   2   3
TORSDOF 11
ENDMDL
MODEL      207
REMARK 921   NORMALIZED FREE ENERGY PREDICTED BY IDOCK:   -4.18 KCAL/MOL
REMARK 922        TOTAL FREE ENERGY PREDICTED BY IDOCK:   -8.69 KCAL/MOL
REMARK 923 INTER-LIGAND FREE ENERGY PREDICTED BY IDOCK:   -7.18 KCAL/MOL
REMARK 924 INTRA-LIGAND FREE ENERGY PREDICTED BY IDOCK:   -1.51 KCAL/MOL
REMARK 927      BINDING AFFINITY PREDICTED BY RF-SCORE:    0.00 PKD
ROOT
HETATM    1  C   UNL     1      -6.153  13.270  68.586  1.00  0.00    -0.085 C  
HETATM    2  C   UNL     1      -6.107  14.773  68.388  1.00  0.00    -0.100 C  
ENDROOT
BRANCH   2   3
HETATM    3  C   UNL     1      -7.109  15.502  69.286  1.00  0.00    -0.186 C  
BRANCH   3   4
HETATM    4  C   UNL     1      -7.471  16.859  68.680  1.00  0.00    -0.226 C  
BRANCH   4   5
HETATM    5  C   UNL     1      -7.938  16.745  67.228  1.00  0.00    -0.197 C  
BRANCH   5   6
HETATM    6  C   UNL     1      -9.460  16.906  67.065  1.00  0.00    -0.244 C  
HETATM    7  O   UNL     1      -9.951  17.473  68.276  1.00  0.00    -0.292 OA 
HETATM    8  H   UNL     1     -10.890  17.573  68.175  1.00  0.00     0.000 HD 
BRANCH   6   9
HETATM    9  C   UNL     1     -10.165  15.600  66.758  1.00  0.00    -0.278 C  
HETATM   10  C   UNL     1     -10.016  14.846  65.655  1.00  0.00    -0.389 C  
BRANCH  10  11
HETATM   11  C   UNL     1     -10.875  13.648  65.301  1.00  0.00    -0.324 C  
HETATM   12  C   UNL     1     -11.634  13.928  63.986  1.00  0.00    -0.226 C  
HETATM   13  O   UNL     1     -12.772  14.753  64.194  1.00  0.00    -0.758 OA 
HETATM   14  C   UNL     1     -12.047  12.572  63.457  1.00  0.00    -0.653 C  
HETATM   15  H   UNL     1     -13.239  14.925  63.385  1.00  0.00     0.000 HD 
HETATM   16  C   UNL     1     -10.894  11.725  63.894  1.00  0.00    -0.404 C  
HETATM   17  O   UNL     1     -10.649  10.641  63.377  1.00  0.00    -0.067 OA 
HETATM   18  C   UNL     1     -10.102  12.332  65.044  1.00  0.00    -0.277 C  
BRANCH  18  19
HETATM   19  C   UNL     1     -10.128  11.425  66.284  1.00  0.00    -0.263 C  
BRANCH  19  20
HETATM   20  C   UNL     1      -9.694  12.103  67.559  1.00  0.00    -0.185 C  
HETATM   21  C   UNL     1      -9.461  11.537  68.753  1.00  0.00    -0.099 C  
BRANCH  21  22
HETATM   22  C   UNL     1      -9.611  10.084  69.085  1.00  0.00    -0.217 C  
BRANCH  22  23
HETATM   23  C   UNL     1     -10.937   9.773  69.777  1.00  0.00    -0.287 C  
BRANCH  23  24
HETATM   24  C   UNL     1     -11.671  11.079  70.088  1.00  0.00    -0.442 C  
HETATM   25  C   UNL     1     -12.769  10.901  71.105  1.00  0.00    -0.429 C  
HETATM   26  O   UNL     1     -13.073   9.851  71.644  1.00  0.00    -0.374 OA 
HETATM   27  O   UNL     1     -13.405  12.067  71.369  1.00  0.00    -0.178 OA 
ENDBRANCH  23  24
ENDBRANCH  22  23
ENDBRANCH  21  22
ENDBRANCH  19  20
ENDBRANCH  18  19
ENDBRANCH  10  11
ENDBRANCH   6   9
ENDBRANCH   5   6
ENDBRANCH   4   5
ENDBRANCH   3   4
ENDBRANCH   2   3
TORSDOF 11
ENDMDL
MODEL      208
REMARK 921   NORMALIZED FREE ENERGY PREDICTED BY IDOCK:   -4.18 KCAL/MOL
REMARK 922        TOTAL FREE ENERGY PREDICTED BY IDOCK:   -8.68 KCAL/MOL
REMARK 923 INTER-LIGAND FREE ENERGY PREDICTED BY IDOCK:   -7.02 KCAL/MOL
REMARK 924 INTRA-LIGAND FREE ENERGY PREDICTED BY IDOCK:   -1.65 KCAL/MOL
REMARK 927      BINDING AFFINITY PREDICTED BY RF-SCORE:    0.00 PKD
ROOT
HETATM    1  C   UNL     1     -11.130  14.868  66.612  1.00  0.00    -0.329 C  
HETATM    2  C   UNL     1     -10.184  15.989  67.002  1.00  0.00    -0.282 C  
ENDROOT
BRANCH   2   3
HETATM    3  C   UNL     1      -8.870  15.928  66.222  1.00  0.00    -0.386 C  
BRANCH   3   4
HETATM    4  C   UNL     1      -7.682  15.957  67.186  1.00  0.00    -0.247 C  
BRANCH   4   5
HETATM    5  C   UNL     1      -8.038  15.409  68.569  1.00  0.00    -0.142 C  
BRANCH   5   6
HETATM    6  C   UNL     1      -7.493  13.992  68.820  1.00  0.00    -0.124 C  
HETATM    7  O   UNL     1      -6.158  13.965  68.322  1.00  0.00    -0.091 OA 
HETATM    8  H   UNL     1      -5.822  13.090  68.477  1.00  0.00     0.000 HD 
BRANCH   6   9
HETATM    9  C   UNL     1      -8.331  12.911  68.169  1.00  0.00    -0.168 C  
HETATM   10  C   UNL     1      -8.035  12.229  67.049  1.00  0.00    -0.123 C  
BRANCH  10  11
HETATM   11  C   UNL     1      -8.982  11.291  66.328  1.00  0.00    -0.204 C  
HETATM   12  C   UNL     1      -8.169  10.219  65.570  1.00  0.00    -0.158 C  
HETATM   13  O   UNL     1      -7.642  10.716  64.348  1.00  0.00    -0.346 OA 
HETATM   14  C   UNL     1      -9.134   9.082  65.312  1.00  0.00    -0.226 C  
HETATM   15  H   UNL     1      -7.142  10.056  63.882  1.00  0.00     0.000 HD 
HETATM   16  C   UNL     1      -9.989   9.142  66.538  1.00  0.00    -0.288 C  
HETATM   17  O   UNL     1     -10.668   8.190  66.906  1.00  0.00    -0.309 OA 
HETATM   18  C   UNL     1      -9.945  10.493  67.238  1.00  0.00    -0.224 C  
BRANCH  18  19
HETATM   19  C   UNL     1     -11.334  11.148  67.283  1.00  0.00    -0.302 C  
BRANCH  19  20
HETATM   20  C   UNL     1     -11.766  11.597  68.655  1.00  0.00    -0.386 C  
HETATM   21  C   UNL     1     -11.452  11.046  69.838  1.00  0.00    -0.400 C  
BRANCH  21  22
HETATM   22  C   UNL     1     -10.607   9.827  70.046  1.00  0.00    -0.320 C  
BRANCH  22  23
HETATM   23  C   UNL     1     -10.756   9.240  71.449  1.00  0.00    -0.432 C  
BRANCH  23  24
HETATM   24  C   UNL     1     -12.240   9.082  71.782  1.00  0.00    -0.434 C  
HETATM   25  C   UNL     1     -12.762   7.702  71.475  1.00  0.00    -0.345 C  
HETATM   26  O   UNL     1     -12.108   6.784  71.010  1.00  0.00    -0.366 OA 
HETATM   27  O   UNL     1     -14.076   7.580  71.778  1.00  0.00    -0.388 OA 
ENDBRANCH  23  24
ENDBRANCH  22  23
ENDBRANCH  21  22
ENDBRANCH  19  20
ENDBRANCH  18  19
ENDBRANCH  10  11
ENDBRANCH   6   9
ENDBRANCH   5   6
ENDBRANCH   4   5
ENDBRANCH   3   4
ENDBRANCH   2   3
TORSDOF 11
ENDMDL
MODEL      209
REMARK 921   NORMALIZED FREE ENERGY PREDICTED BY IDOCK:   -4.17 KCAL/MOL
REMARK 922        TOTAL FREE ENERGY PREDICTED BY IDOCK:   -8.67 KCAL/MOL
REMARK 923 INTER-LIGAND FREE ENERGY PREDICTED BY IDOCK:   -6.39 KCAL/MOL
REMARK 924 INTRA-LIGAND FREE ENERGY PREDICTED BY IDOCK:   -2.28 KCAL/MOL
REMARK 927      BINDING AFFINITY PREDICTED BY RF-SCORE:    0.00 PKD
ROOT
HETATM    1  C   UNL     1      -9.660   8.794  71.752  1.00  0.00    -0.371 C  
HETATM    2  C   UNL     1      -8.542   8.421  70.797  1.00  0.00    -0.159 C  
ENDROOT
BRANCH   2   3
HETATM    3  C   UNL     1      -7.564   9.576  70.577  1.00  0.00    -0.165 C  
BRANCH   3   4
HETATM    4  C   UNL     1      -7.060   9.574  69.133  1.00  0.00    -0.062 C  
BRANCH   4   5
HETATM    5  C   UNL     1      -8.136   9.134  68.139  1.00  0.00    -0.104 C  
BRANCH   5   6
HETATM    6  C   UNL     1      -8.711  10.297  67.311  1.00  0.00    -0.125 C  
HETATM    7  O   UNL     1      -7.610  11.114  66.920  1.00  0.00    -0.130 OA 
HETATM    8  H   UNL     1      -7.965  11.831  66.409  1.00  0.00     0.000 HD 
BRANCH   6   9
HETATM    9  C   UNL     1      -9.741  11.111  68.067  1.00  0.00    -0.183 C  
HETATM   10  C   UNL     1     -10.853  10.646  68.663  1.00  0.00    -0.266 C  
BRANCH  10  11
HETATM   11  C   UNL     1     -11.952  11.512  69.246  1.00  0.00    -0.397 C  
HETATM   12  C   UNL     1     -12.329  10.992  70.650  1.00  0.00    -0.386 C  
HETATM   13  O   UNL     1     -13.180   9.856  70.587  1.00  0.00    -0.594 OA 
HETATM   14  C   UNL     1     -13.026  12.146  71.338  1.00  0.00    -0.357 C  
HETATM   15  H   UNL     1     -13.411   9.537  71.451  1.00  0.00     0.000 HD 
HETATM   16  C   UNL     1     -12.289  13.315  70.766  1.00  0.00    -0.344 C  
HETATM   17  O   UNL     1     -12.292  14.415  71.307  1.00  0.00    -0.324 OA 
HETATM   18  C   UNL     1     -11.582  12.999  69.455  1.00  0.00    -0.342 C  
BRANCH  18  19
HETATM   19  C   UNL     1     -12.116  13.869  68.306  1.00  0.00    -0.322 C  
BRANCH  19  20
HETATM   20  C   UNL     1     -11.049  14.409  67.389  1.00  0.00    -0.317 C  
HETATM   21  C   UNL     1      -9.956  15.114  67.722  1.00  0.00    -0.225 C  
BRANCH  21  22
HETATM   22  C   UNL     1      -9.572  15.543  69.104  1.00  0.00    -0.253 C  
BRANCH  22  23
HETATM   23  C   UNL     1      -8.072  15.797  69.246  1.00  0.00    -0.241 C  
BRANCH  23  24
HETATM   24  C   UNL     1      -7.315  14.475  69.112  1.00  0.00    -0.133 C  
HETATM   25  C   UNL     1      -6.414  14.440  67.903  1.00  0.00    -0.164 C  
HETATM   26  O   UNL     1      -6.277  15.342  67.095  1.00  0.00    -0.307 OA 
HETATM   27  O   UNL     1      -5.751  13.263  67.802  1.00  0.00    -0.123 OA 
ENDBRANCH  23  24
ENDBRANCH  22  23
ENDBRANCH  21  22
ENDBRANCH  19  20
ENDBRANCH  18  19
ENDBRANCH  10  11
ENDBRANCH   6   9
ENDBRANCH   5   6
ENDBRANCH   4   5
ENDBRANCH   3   4
ENDBRANCH   2   3
TORSDOF 11
ENDMDL
MODEL      210
REMARK 921   NORMALIZED FREE ENERGY PREDICTED BY IDOCK:   -4.17 KCAL/MOL
REMARK 922        TOTAL FREE ENERGY PREDICTED BY IDOCK:   -8.66 KCAL/MOL
REMARK 923 INTER-LIGAND FREE ENERGY PREDICTED BY IDOCK:   -7.94 KCAL/MOL
REMARK 924 INTRA-LIGAND FREE ENERGY PREDICTED BY IDOCK:   -0.73 KCAL/MOL
REMARK 927      BINDING AFFINITY PREDICTED BY RF-SCORE:    0.00 PKD
ROOT
HETATM    1  C   UNL     1      -9.489   4.217  68.364  1.00  0.00    -0.212 C  
HETATM    2  C   UNL     1     -10.308   5.452  68.688  1.00  0.00    -0.229 C  
ENDROOT
BRANCH   2   3
HETATM    3  C   UNL     1     -10.762   6.188  67.426  1.00  0.00    -0.403 C  
BRANCH   3   4
HETATM    4  C   UNL     1     -10.514   7.690  67.573  1.00  0.00    -0.336 C  
BRANCH   4   5
HETATM    5  C   UNL     1      -9.244   7.999  68.368  1.00  0.00    -0.135 C  
BRANCH   5   6
HETATM    6  C   UNL     1      -8.759   9.450  68.198  1.00  0.00    -0.124 C  
HETATM    7  O   UNL     1      -8.701  10.025  69.500  1.00  0.00    -0.170 OA 
HETATM    8  H   UNL     1      -8.401  10.920  69.395  1.00  0.00     0.000 HD 
BRANCH   6   9
HETATM    9  C   UNL     1      -9.649  10.270  67.287  1.00  0.00    -0.186 C  
HETATM   10  C   UNL     1      -9.304  10.826  66.112  1.00  0.00    -0.209 C  
BRANCH  10  11
HETATM   11  C   UNL     1     -10.164  11.793  65.324  1.00  0.00    -0.307 C  
HETATM   12  C   UNL     1     -10.349  11.265  63.884  1.00  0.00    -0.381 C  
HETATM   13  O   UNL     1      -9.212  11.525  63.072  1.00  0.00    -0.488 OA 
HETATM   14  C   UNL     1     -11.569  11.978  63.342  1.00  0.00    -0.495 C  
HETATM   15  H   UNL     1      -9.327  11.200  62.187  1.00  0.00     0.000 HD 
HETATM   16  C   UNL     1     -12.405  12.105  64.576  1.00  0.00    -0.307 C  
HETATM   17  O   UNL     1     -13.613  12.304  64.526  1.00  0.00    -0.483 OA 
HETATM   18  C   UNL     1     -11.600  11.995  65.863  1.00  0.00    -0.364 C  
BRANCH  18  19
HETATM   19  C   UNL     1     -11.701  13.279  66.701  1.00  0.00    -0.425 C  
BRANCH  19  20
HETATM   20  C   UNL     1     -11.851  13.045  68.182  1.00  0.00    -0.381 C  
HETATM   21  C   UNL     1     -11.170  13.628  69.181  1.00  0.00    -0.309 C  
BRANCH  21  22
HETATM   22  C   UNL     1     -10.076  14.639  69.029  1.00  0.00    -0.211 C  
BRANCH  22  23
HETATM   23  C   UNL     1      -9.819  15.013  67.570  1.00  0.00    -0.217 C  
BRANCH  23  24
HETATM   24  C   UNL     1     -10.079  16.507  67.372  1.00  0.00    -0.279 C  
HETATM   25  C   UNL     1     -10.153  16.896  65.917  1.00  0.00    -0.283 C  
HETATM   26  O   UNL     1     -10.024  16.137  64.972  1.00  0.00    -0.410 OA 
HETATM   27  O   UNL     1     -10.386  18.221  65.761  1.00  0.00    -0.594 OA 
ENDBRANCH  23  24
ENDBRANCH  22  23
ENDBRANCH  21  22
ENDBRANCH  19  20
ENDBRANCH  18  19
ENDBRANCH  10  11
ENDBRANCH   6   9
ENDBRANCH   5   6
ENDBRANCH   4   5
ENDBRANCH   3   4
ENDBRANCH   2   3
TORSDOF 11
ENDMDL
MODEL      211
REMARK 921   NORMALIZED FREE ENERGY PREDICTED BY IDOCK:   -4.16 KCAL/MOL
REMARK 922        TOTAL FREE ENERGY PREDICTED BY IDOCK:   -8.66 KCAL/MOL
REMARK 923 INTER-LIGAND FREE ENERGY PREDICTED BY IDOCK:   -7.45 KCAL/MOL
REMARK 924 INTRA-LIGAND FREE ENERGY PREDICTED BY IDOCK:   -1.21 KCAL/MOL
REMARK 927      BINDING AFFINITY PREDICTED BY RF-SCORE:    0.00 PKD
ROOT
HETATM    1  C   UNL     1     -10.340  19.263  67.863  1.00  0.00    -0.518 C  
HETATM    2  C   UNL     1     -10.418  17.749  67.927  1.00  0.00    -0.401 C  
ENDROOT
BRANCH   2   3
HETATM    3  C   UNL     1      -9.195  17.139  68.614  1.00  0.00    -0.263 C  
BRANCH   3   4
HETATM    4  C   UNL     1      -9.492  15.699  69.038  1.00  0.00    -0.243 C  
BRANCH   4   5
HETATM    5  C   UNL     1     -10.627  15.612  70.059  1.00  0.00    -0.342 C  
BRANCH   5   6
HETATM    6  C   UNL     1     -11.631  14.486  69.757  1.00  0.00    -0.295 C  
HETATM    7  O   UNL     1     -11.687  13.655  70.913  1.00  0.00    -0.499 OA 
HETATM    8  H   UNL     1     -12.307  12.960  70.727  1.00  0.00     0.000 HD 
BRANCH   6   9
HETATM    9  C   UNL     1     -11.262  13.675  68.531  1.00  0.00    -0.310 C  
HETATM   10  C   UNL     1     -12.111  13.091  67.668  1.00  0.00    -0.262 C  
BRANCH  10  11
HETATM   11  C   UNL     1     -11.705  12.134  66.564  1.00  0.00    -0.392 C  
HETATM   12  C   UNL     1     -11.557  12.910  65.237  1.00  0.00    -0.340 C  
HETATM   13  O   UNL     1     -12.815  13.168  64.629  1.00  0.00    -0.693 OA 
HETATM   14  C   UNL     1     -10.701  12.036  64.347  1.00  0.00    -0.369 C  
HETATM   15  H   UNL     1     -12.723  13.646  63.812  1.00  0.00     0.000 HD 
HETATM   16  C   UNL     1      -9.790  11.401  65.350  1.00  0.00    -0.236 C  
HETATM   17  O   UNL     1      -8.721  10.895  65.031  1.00  0.00    -0.179 OA 
HETATM   18  C   UNL     1     -10.345  11.427  66.768  1.00  0.00    -0.271 C  
BRANCH  18  19
HETATM   19  C   UNL     1     -10.537  10.006  67.321  1.00  0.00    -0.319 C  
BRANCH  19  20
HETATM   20  C   UNL     1      -9.260   9.219  67.468  1.00  0.00    -0.140 C  
HETATM   21  C   UNL     1      -8.490   9.097  68.560  1.00  0.00    -0.128 C  
BRANCH  21  22
HETATM   22  C   UNL     1      -8.729   9.752  69.886  1.00  0.00    -0.238 C  
BRANCH  22  23
HETATM   23  C   UNL     1      -9.634   8.923  70.797  1.00  0.00    -0.283 C  
BRANCH  23  24
HETATM   24  C   UNL     1      -8.981   7.567  71.070  1.00  0.00    -0.147 C  
HETATM   25  C   UNL     1      -9.865   6.408  70.687  1.00  0.00    -0.184 C  
HETATM   26  O   UNL     1     -10.984   6.496  70.212  1.00  0.00    -0.258 OA 
HETATM   27  O   UNL     1      -9.269   5.217  70.934  1.00  0.00    -0.139 OA 
ENDBRANCH  23  24
ENDBRANCH  22  23
ENDBRANCH  21  22
ENDBRANCH  19  20
ENDBRANCH  18  19
ENDBRANCH  10  11
ENDBRANCH   6   9
ENDBRANCH   5   6
ENDBRANCH   4   5
ENDBRANCH   3   4
ENDBRANCH   2   3
TORSDOF 11
ENDMDL
MODEL      212
REMARK 921   NORMALIZED FREE ENERGY PREDICTED BY IDOCK:   -4.16 KCAL/MOL
REMARK 922        TOTAL FREE ENERGY PREDICTED BY IDOCK:   -8.65 KCAL/MOL
REMARK 923 INTER-LIGAND FREE ENERGY PREDICTED BY IDOCK:   -7.74 KCAL/MOL
REMARK 924 INTRA-LIGAND FREE ENERGY PREDICTED BY IDOCK:   -0.91 KCAL/MOL
REMARK 927      BINDING AFFINITY PREDICTED BY RF-SCORE:    0.00 PKD
ROOT
HETATM    1  C   UNL     1     -10.358  19.171  66.233  1.00  0.00    -0.553 C  
HETATM    2  C   UNL     1     -10.503  17.845  66.956  1.00  0.00    -0.345 C  
ENDROOT
BRANCH   2   3
HETATM    3  C   UNL     1     -10.478  16.659  65.991  1.00  0.00    -0.306 C  
BRANCH   3   4
HETATM    4  C   UNL     1     -10.359  15.347  66.769  1.00  0.00    -0.279 C  
BRANCH   4   5
HETATM    5  C   UNL     1     -11.688  14.598  66.861  1.00  0.00    -0.366 C  
BRANCH   5   6
HETATM    6  C   UNL     1     -12.177  14.060  65.504  1.00  0.00    -0.439 C  
HETATM    7  O   UNL     1     -13.588  14.257  65.462  1.00  0.00    -0.650 OA 
HETATM    8  H   UNL     1     -13.889  13.926  64.624  1.00  0.00     0.000 HD 
BRANCH   6   9
HETATM    9  C   UNL     1     -11.831  12.602  65.284  1.00  0.00    -0.452 C  
HETATM   10  C   UNL     1     -10.604  12.053  65.314  1.00  0.00    -0.328 C  
BRANCH  10  11
HETATM   11  C   UNL     1     -10.280  10.630  64.905  1.00  0.00    -0.395 C  
HETATM   12  C   UNL     1      -9.552  10.637  63.543  1.00  0.00    -0.323 C  
HETATM   13  O   UNL     1     -10.455  10.804  62.458  1.00  0.00    -0.733 OA 
HETATM   14  C   UNL     1      -8.845   9.303  63.451  1.00  0.00    -0.150 C  
HETATM   15  H   UNL     1     -10.007  10.808  61.621  1.00  0.00     0.000 HD 
HETATM   16  C   UNL     1      -8.483   9.065  64.883  1.00  0.00    -0.178 C  
HETATM   17  O   UNL     1      -7.601   8.279  65.210  1.00  0.00    -0.086 OA 
HETATM   18  C   UNL     1      -9.333   9.866  65.860  1.00  0.00    -0.245 C  
BRANCH  18  19
HETATM   19  C   UNL     1     -10.123   8.944  66.802  1.00  0.00    -0.350 C  
BRANCH  19  20
HETATM   20  C   UNL     1     -10.524   9.585  68.106  1.00  0.00    -0.268 C  
HETATM   21  C   UNL     1     -10.447   9.061  69.339  1.00  0.00    -0.229 C  
BRANCH  21  22
HETATM   22  C   UNL     1      -9.957   7.689  69.684  1.00  0.00    -0.185 C  
BRANCH  22  23
HETATM   23  C   UNL     1     -10.707   7.077  70.867  1.00  0.00    -0.259 C  
BRANCH  23  24
HETATM   24  C   UNL     1     -10.235   5.638  71.082  1.00  0.00    -0.280 C  
HETATM   25  C   UNL     1      -8.925   5.560  71.823  1.00  0.00    -0.136 C  
HETATM   26  O   UNL     1      -8.278   6.513  72.222  1.00  0.00    -0.106 OA 
HETATM   27  O   UNL     1      -8.525   4.279  72.006  1.00  0.00    -0.103 OA 
ENDBRANCH  23  24
ENDBRANCH  22  23
ENDBRANCH  21  22
ENDBRANCH  19  20
ENDBRANCH  18  19
ENDBRANCH  10  11
ENDBRANCH   6   9
ENDBRANCH   5   6
ENDBRANCH   4   5
ENDBRANCH   3   4
ENDBRANCH   2   3
TORSDOF 11
ENDMDL
MODEL      213
REMARK 921   NORMALIZED FREE ENERGY PREDICTED BY IDOCK:   -4.15 KCAL/MOL
REMARK 922        TOTAL FREE ENERGY PREDICTED BY IDOCK:   -8.64 KCAL/MOL
REMARK 923 INTER-LIGAND FREE ENERGY PREDICTED BY IDOCK:   -7.31 KCAL/MOL
REMARK 924 INTRA-LIGAND FREE ENERGY PREDICTED BY IDOCK:   -1.33 KCAL/MOL
REMARK 927      BINDING AFFINITY PREDICTED BY RF-SCORE:    0.00 PKD
ROOT
HETATM    1  C   UNL     1      -7.494   9.415  69.617  1.00  0.00    -0.084 C  
HETATM    2  C   UNL     1      -7.375   9.102  68.137  1.00  0.00    -0.079 C  
ENDROOT
BRANCH   2   3
HETATM    3  C   UNL     1      -7.523  10.355  67.271  1.00  0.00    -0.094 C  
BRANCH   3   4
HETATM    4  C   UNL     1      -7.540   9.973  65.790  1.00  0.00    -0.120 C  
BRANCH   4   5
HETATM    5  C   UNL     1      -8.889   9.403  65.348  1.00  0.00    -0.220 C  
BRANCH   5   6
HETATM    6  C   UNL     1      -9.802  10.449  64.685  1.00  0.00    -0.338 C  
HETATM    7  O   UNL     1      -9.011  11.146  63.726  1.00  0.00    -0.367 OA 
HETATM    8  H   UNL     1      -9.575  11.791  63.317  1.00  0.00     0.000 HD 
BRANCH   6   9
HETATM    9  C   UNL     1     -10.416  11.415  65.678  1.00  0.00    -0.316 C  
HETATM   10  C   UNL     1     -10.952  11.107  66.873  1.00  0.00    -0.333 C  
BRANCH  10  11
HETATM   11  C   UNL     1     -11.722  12.071  67.752  1.00  0.00    -0.379 C  
HETATM   12  C   UNL     1     -11.717  11.559  69.209  1.00  0.00    -0.330 C  
HETATM   13  O   UNL     1     -12.668  10.523  69.413  1.00  0.00    -0.692 OA 
HETATM   14  C   UNL     1     -12.043  12.762  70.066  1.00  0.00    -0.355 C  
HETATM   15  H   UNL     1     -12.664  10.209  70.309  1.00  0.00     0.000 HD 
HETATM   16  C   UNL     1     -11.386  13.860  69.291  1.00  0.00    -0.272 C  
HETATM   17  O   UNL     1     -11.105  14.939  69.800  1.00  0.00    -0.261 OA 
HETATM   18  C   UNL     1     -11.144  13.504  67.830  1.00  0.00    -0.288 C  
BRANCH  18  19
HETATM   19  C   UNL     1     -11.897  14.456  66.888  1.00  0.00    -0.433 C  
BRANCH  19  20
HETATM   20  C   UNL     1     -11.009  15.227  65.945  1.00  0.00    -0.325 C  
HETATM   21  C   UNL     1     -10.351  16.373  66.185  1.00  0.00    -0.354 C  
BRANCH  21  22
HETATM   22  C   UNL     1     -10.382  17.156  67.461  1.00  0.00    -0.341 C  
BRANCH  22  23
HETATM   23  C   UNL     1      -9.308  18.242  67.511  1.00  0.00    -0.263 C  
BRANCH  23  24
HETATM   24  C   UNL     1      -8.642  18.365  66.140  1.00  0.00    -0.136 C  
HETATM   25  C   UNL     1      -7.138  18.422  66.227  1.00  0.00    -0.252 C  
HETATM   26  O   UNL     1      -6.485  18.381  67.256  1.00  0.00    -0.183 OA 
HETATM   27  O   UNL     1      -6.566  18.529  65.004  1.00  0.00    -0.497 OA 
ENDBRANCH  23  24
ENDBRANCH  22  23
ENDBRANCH  21  22
ENDBRANCH  19  20
ENDBRANCH  18  19
ENDBRANCH  10  11
ENDBRANCH   6   9
ENDBRANCH   5   6
ENDBRANCH   4   5
ENDBRANCH   3   4
ENDBRANCH   2   3
TORSDOF 11
ENDMDL
MODEL      214
REMARK 921   NORMALIZED FREE ENERGY PREDICTED BY IDOCK:   -4.15 KCAL/MOL
REMARK 922        TOTAL FREE ENERGY PREDICTED BY IDOCK:   -8.64 KCAL/MOL
REMARK 923 INTER-LIGAND FREE ENERGY PREDICTED BY IDOCK:   -6.78 KCAL/MOL
REMARK 924 INTRA-LIGAND FREE ENERGY PREDICTED BY IDOCK:   -1.86 KCAL/MOL
REMARK 927      BINDING AFFINITY PREDICTED BY RF-SCORE:    0.00 PKD
ROOT
HETATM    1  C   UNL     1      -8.045  17.456  67.827  1.00  0.00    -0.216 C  
HETATM    2  C   UNL     1      -9.358  16.729  67.600  1.00  0.00    -0.228 C  
ENDROOT
BRANCH   2   3
HETATM    3  C   UNL     1      -9.854  16.875  66.160  1.00  0.00    -0.318 C  
BRANCH   3   4
HETATM    4  C   UNL     1     -10.285  15.514  65.611  1.00  0.00    -0.403 C  
BRANCH   4   5
HETATM    5  C   UNL     1     -11.779  15.460  65.287  1.00  0.00     0.030 C  
BRANCH   5   6
HETATM    6  C   UNL     1     -12.350  14.030  65.288  1.00  0.00    -0.465 C  
HETATM    7  O   UNL     1     -13.184  13.915  66.437  1.00  0.00    -0.235 OA 
HETATM    8  H   UNL     1     -13.536  13.033  66.437  1.00  0.00     0.000 HD 
BRANCH   6   9
HETATM    9  C   UNL     1     -11.275  12.963  65.295  1.00  0.00    -0.319 C  
HETATM   10  C   UNL     1     -11.275  11.817  64.591  1.00  0.00    -0.349 C  
BRANCH  10  11
HETATM   11  C   UNL     1     -10.276  10.691  64.767  1.00  0.00    -0.401 C  
HETATM   12  C   UNL     1      -9.267  10.708  63.598  1.00  0.00    -0.259 C  
HETATM   13  O   UNL     1      -9.807  10.122  62.421  1.00  0.00    -0.677 OA 
HETATM   14  C   UNL     1      -8.066   9.926  64.083  1.00  0.00    -0.152 C  
HETATM   15  H   UNL     1      -9.186  10.133  61.702  1.00  0.00     0.000 HD 
HETATM   16  C   UNL     1      -8.060  10.274  65.538  1.00  0.00    -0.156 C  
HETATM   17  O   UNL     1      -7.060  10.141  66.235  1.00  0.00    -0.099 OA 
HETATM   18  C   UNL     1      -9.407  10.769  66.045  1.00  0.00    -0.215 C  
BRANCH  18  19
HETATM   19  C   UNL     1      -9.962   9.854  67.148  1.00  0.00    -0.252 C  
BRANCH  19  20
HETATM   20  C   UNL     1     -11.235  10.350  67.785  1.00  0.00    -0.309 C  
HETATM   21  C   UNL     1     -11.419  11.482  68.482  1.00  0.00    -0.354 C  
BRANCH  21  22
HETATM   22  C   UNL     1     -10.369  12.501  68.802  1.00  0.00    -0.138 C  
BRANCH  22  23
HETATM   23  C   UNL     1     -10.919  13.926  68.819  1.00  0.00    -0.286 C  
BRANCH  23  24
HETATM   24  C   UNL     1     -11.483  14.241  70.206  1.00  0.00    -0.226 C  
HETATM   25  C   UNL     1     -12.265  15.529  70.237  1.00  0.00    -0.400 C  
HETATM   26  O   UNL     1     -12.451  16.269  69.286  1.00  0.00     0.085 OA 
HETATM   27  O   UNL     1     -12.758  15.790  71.471  1.00  0.00    -0.434 OA 
ENDBRANCH  23  24
ENDBRANCH  22  23
ENDBRANCH  21  22
ENDBRANCH  19  20
ENDBRANCH  18  19
ENDBRANCH  10  11
ENDBRANCH   6   9
ENDBRANCH   5   6
ENDBRANCH   4   5
ENDBRANCH   3   4
ENDBRANCH   2   3
TORSDOF 11
ENDMDL
MODEL      215
REMARK 921   NORMALIZED FREE ENERGY PREDICTED BY IDOCK:   -4.13 KCAL/MOL
REMARK 922        TOTAL FREE ENERGY PREDICTED BY IDOCK:   -8.61 KCAL/MOL
REMARK 923 INTER-LIGAND FREE ENERGY PREDICTED BY IDOCK:   -6.58 KCAL/MOL
REMARK 924 INTRA-LIGAND FREE ENERGY PREDICTED BY IDOCK:   -2.03 KCAL/MOL
REMARK 927      BINDING AFFINITY PREDICTED BY RF-SCORE:    0.00 PKD
ROOT
HETATM    1  C   UNL     1      -6.864   8.055  67.076  1.00  0.00    -0.073 C  
HETATM    2  C   UNL     1      -8.079   8.212  66.180  1.00  0.00    -0.109 C  
ENDROOT
BRANCH   2   3
HETATM    3  C   UNL     1      -8.321   9.671  65.791  1.00  0.00    -0.132 C  
BRANCH   3   4
HETATM    4  C   UNL     1      -9.782   9.874  65.385  1.00  0.00    -0.375 C  
BRANCH   4   5
HETATM    5  C   UNL     1      -9.976  11.098  64.489  1.00  0.00    -0.350 C  
BRANCH   5   6
HETATM    6  C   UNL     1     -10.968  12.122  65.068  1.00  0.00    -0.309 C  
HETATM    7  O   UNL     1     -10.400  13.413  64.865  1.00  0.00    -0.354 OA 
HETATM    8  H   UNL     1     -11.013  14.045  65.221  1.00  0.00     0.000 HD 
BRANCH   6   9
HETATM    9  C   UNL     1     -11.269  11.893  66.535  1.00  0.00    -0.383 C  
HETATM   10  C   UNL     1     -10.848  12.643  67.569  1.00  0.00    -0.267 C  
BRANCH  10  11
HETATM   11  C   UNL     1     -11.013  12.277  69.030  1.00  0.00    -0.250 C  
HETATM   12  C   UNL     1     -12.030  13.233  69.691  1.00  0.00    -0.314 C  
HETATM   13  O   UNL     1     -11.449  14.489  70.012  1.00  0.00    -0.261 OA 
HETATM   14  C   UNL     1     -12.502  12.525  70.942  1.00  0.00    -0.361 C  
HETATM   15  H   UNL     1     -12.075  15.076  70.419  1.00  0.00     0.000 HD 
HETATM   16  C   UNL     1     -12.472  11.096  70.499  1.00  0.00    -0.327 C  
HETATM   17  O   UNL     1     -13.105  10.221  71.078  1.00  0.00    -0.377 OA 
HETATM   18  C   UNL     1     -11.565  10.857  69.299  1.00  0.00    -0.388 C  
BRANCH  18  19
HETATM   19  C   UNL     1     -10.431   9.878  69.640  1.00  0.00    -0.273 C  
BRANCH  19  20
HETATM   20  C   UNL     1     -10.502   8.564  68.904  1.00  0.00    -0.207 C  
HETATM   21  C   UNL     1     -10.435   7.327  69.419  1.00  0.00    -0.223 C  
BRANCH  21  22
HETATM   22  C   UNL     1     -10.246   6.984  70.865  1.00  0.00    -0.210 C  
BRANCH  22  23
HETATM   23  C   UNL     1      -8.803   7.174  71.330  1.00  0.00    -0.131 C  
BRANCH  23  24
HETATM   24  C   UNL     1      -8.769   8.162  72.497  1.00  0.00    -0.266 C  
HETATM   25  C   UNL     1      -7.557   7.982  73.375  1.00  0.00    -0.154 C  
HETATM   26  O   UNL     1      -6.680   7.152  73.212  1.00  0.00    -0.065 OA 
HETATM   27  O   UNL     1      -7.542   8.867  74.401  1.00  0.00    -0.422 OA 
ENDBRANCH  23  24
ENDBRANCH  22  23
ENDBRANCH  21  22
ENDBRANCH  19  20
ENDBRANCH  18  19
ENDBRANCH  10  11
ENDBRANCH   6   9
ENDBRANCH   5   6
ENDBRANCH   4   5
ENDBRANCH   3   4
ENDBRANCH   2   3
TORSDOF 11
ENDMDL
MODEL      216
REMARK 921   NORMALIZED FREE ENERGY PREDICTED BY IDOCK:   -4.11 KCAL/MOL
REMARK 922        TOTAL FREE ENERGY PREDICTED BY IDOCK:   -8.58 KCAL/MOL
REMARK 923 INTER-LIGAND FREE ENERGY PREDICTED BY IDOCK:   -7.92 KCAL/MOL
REMARK 924 INTRA-LIGAND FREE ENERGY PREDICTED BY IDOCK:   -0.66 KCAL/MOL
REMARK 927      BINDING AFFINITY PREDICTED BY RF-SCORE:    0.00 PKD
ROOT
HETATM    1  C   UNL     1     -11.548   6.573  70.041  1.00  0.00    -0.455 C  
HETATM    2  C   UNL     1     -10.405   5.915  69.291  1.00  0.00    -0.312 C  
ENDROOT
BRANCH   2   3
HETATM    3  C   UNL     1     -10.667   5.851  67.785  1.00  0.00    -0.346 C  
BRANCH   3   4
HETATM    4  C   UNL     1     -10.857   7.260  67.222  1.00  0.00    -0.354 C  
BRANCH   4   5
HETATM    5  C   UNL     1      -9.588   7.804  66.563  1.00  0.00    -0.270 C  
BRANCH   5   6
HETATM    6  C   UNL     1      -9.823   9.103  65.773  1.00  0.00    -0.178 C  
HETATM    7  O   UNL     1      -9.037   9.018  64.588  1.00  0.00    -0.416 OA 
HETATM    8  H   UNL     1      -9.181   9.820  64.100  1.00  0.00     0.000 HD 
BRANCH   6   9
HETATM    9  C   UNL     1      -9.472  10.348  66.562  1.00  0.00    -0.204 C  
HETATM   10  C   UNL     1     -10.281  11.029  67.392  1.00  0.00    -0.229 C  
BRANCH  10  11
HETATM   11  C   UNL     1      -9.955  12.371  68.015  1.00  0.00    -0.207 C  
HETATM   12  C   UNL     1      -8.424  12.575  68.031  1.00  0.00    -0.173 C  
HETATM   13  O   UNL     1      -7.804  11.866  69.096  1.00  0.00    -0.338 OA 
HETATM   14  C   UNL     1      -8.212  14.065  68.185  1.00  0.00    -0.155 C  
HETATM   15  H   UNL     1      -6.862  11.992  69.105  1.00  0.00     0.000 HD 
HETATM   16  C   UNL     1      -9.379  14.606  67.421  1.00  0.00    -0.196 C  
HETATM   17  O   UNL     1      -9.403  15.756  66.997  1.00  0.00    -0.210 OA 
HETATM   18  C   UNL     1     -10.514  13.603  67.265  1.00  0.00    -0.260 C  
BRANCH  18  19
HETATM   19  C   UNL     1     -11.806  14.112  67.922  1.00  0.00    -0.405 C  
BRANCH  19  20
HETATM   20  C   UNL     1     -11.623  15.326  68.795  1.00  0.00    -0.379 C  
HETATM   21  C   UNL     1     -12.173  15.568  69.996  1.00  0.00    -0.380 C  
BRANCH  21  22
HETATM   22  C   UNL     1     -13.125  14.671  70.726  1.00  0.00    -0.377 C  
BRANCH  22  23
HETATM   23  C   UNL     1     -12.544  14.139  72.035  1.00  0.00    -0.348 C  
BRANCH  23  24
HETATM   24  C   UNL     1     -11.834  15.272  72.778  1.00  0.00    -0.521 C  
HETATM   25  C   UNL     1     -12.790  16.168  73.523  1.00  0.00    -0.549 C  
HETATM   26  O   UNL     1     -14.002  16.041  73.555  1.00  0.00    -0.311 OA 
HETATM   27  O   UNL     1     -12.144  17.163  74.176  1.00  0.00    -0.345 OA 
ENDBRANCH  23  24
ENDBRANCH  22  23
ENDBRANCH  21  22
ENDBRANCH  19  20
ENDBRANCH  18  19
ENDBRANCH  10  11
ENDBRANCH   6   9
ENDBRANCH   5   6
ENDBRANCH   4   5
ENDBRANCH   3   4
ENDBRANCH   2   3
TORSDOF 11
ENDMDL
MODEL      217
REMARK 921   NORMALIZED FREE ENERGY PREDICTED BY IDOCK:   -4.10 KCAL/MOL
REMARK 922        TOTAL FREE ENERGY PREDICTED BY IDOCK:   -8.56 KCAL/MOL
REMARK 923 INTER-LIGAND FREE ENERGY PREDICTED BY IDOCK:   -8.22 KCAL/MOL
REMARK 924 INTRA-LIGAND FREE ENERGY PREDICTED BY IDOCK:   -0.33 KCAL/MOL
REMARK 927      BINDING AFFINITY PREDICTED BY RF-SCORE:    0.00 PKD
ROOT
HETATM    1  C   UNL     1      -9.095   4.023  70.641  1.00  0.00    -0.179 C  
HETATM    2  C   UNL     1     -10.242   4.584  69.822  1.00  0.00    -0.039 C  
ENDROOT
BRANCH   2   3
HETATM    3  C   UNL     1     -10.615   6.004  70.253  1.00  0.00    -0.338 C  
BRANCH   3   4
HETATM    4  C   UNL     1     -11.484   5.963  71.511  1.00  0.00    -0.216 C  
BRANCH   4   5
HETATM    5  C   UNL     1     -10.791   6.587  72.722  1.00  0.00    -0.280 C  
BRANCH   5   6
HETATM    6  C   UNL     1     -11.179   8.059  72.953  1.00  0.00    -0.322 C  
HETATM    7  O   UNL     1     -12.602   8.113  72.990  1.00  0.00    -0.656 OA 
HETATM    8  H   UNL     1     -12.842   9.021  73.133  1.00  0.00     0.000 HD 
BRANCH   6   9
HETATM    9  C   UNL     1     -10.633   8.990  71.890  1.00  0.00    -0.388 C  
HETATM   10  C   UNL     1     -11.346   9.804  71.092  1.00  0.00    -0.459 C  
BRANCH  10  11
HETATM   11  C   UNL     1     -10.784  10.578  69.916  1.00  0.00    -0.301 C  
HETATM   12  C   UNL     1     -10.202   9.592  68.880  1.00  0.00    -0.201 C  
HETATM   13  O   UNL     1      -8.917   9.120  69.257  1.00  0.00    -0.138 OA 
HETATM   14  C   UNL     1     -10.129  10.363  67.580  1.00  0.00    -0.231 C  
HETATM   15  H   UNL     1      -8.559   8.513  68.619  1.00  0.00     0.000 HD 
HETATM   16  C   UNL     1     -11.331  11.245  67.695  1.00  0.00    -0.282 C  
HETATM   17  O   UNL     1     -11.846  11.777  66.718  1.00  0.00    -0.586 OA 
HETATM   18  C   UNL     1     -11.810  11.427  69.129  1.00  0.00    -0.413 C  
BRANCH  18  19
HETATM   19  C   UNL     1     -11.753  12.901  69.557  1.00  0.00    -0.387 C  
BRANCH  19  20
HETATM   20  C   UNL     1     -12.070  13.881  68.456  1.00  0.00    -0.331 C  
HETATM   21  C   UNL     1     -11.244  14.766  67.879  1.00  0.00    -0.318 C  
BRANCH  21  22
HETATM   22  C   UNL     1      -9.805  14.990  68.233  1.00  0.00    -0.219 C  
BRANCH  22  23
HETATM   23  C   UNL     1      -9.426  16.470  68.243  1.00  0.00    -0.220 C  
BRANCH  23  24
HETATM   24  C   UNL     1     -10.455  17.268  67.441  1.00  0.00    -0.338 C  
HETATM   25  C   UNL     1      -9.843  17.996  66.272  1.00  0.00    -0.307 C  
HETATM   26  O   UNL     1      -8.664  17.980  65.964  1.00  0.00    -0.498 OA 
HETATM   27  O   UNL     1     -10.770  18.694  65.572  1.00  0.00    -0.577 OA 
ENDBRANCH  23  24
ENDBRANCH  22  23
ENDBRANCH  21  22
ENDBRANCH  19  20
ENDBRANCH  18  19
ENDBRANCH  10  11
ENDBRANCH   6   9
ENDBRANCH   5   6
ENDBRANCH   4   5
ENDBRANCH   3   4
ENDBRANCH   2   3
TORSDOF 11
ENDMDL
MODEL      218
REMARK 921   NORMALIZED FREE ENERGY PREDICTED BY IDOCK:   -4.09 KCAL/MOL
REMARK 922        TOTAL FREE ENERGY PREDICTED BY IDOCK:   -8.54 KCAL/MOL
REMARK 923 INTER-LIGAND FREE ENERGY PREDICTED BY IDOCK:   -6.30 KCAL/MOL
REMARK 924 INTRA-LIGAND FREE ENERGY PREDICTED BY IDOCK:   -2.24 KCAL/MOL
REMARK 927      BINDING AFFINITY PREDICTED BY RF-SCORE:    0.00 PKD
ROOT
HETATM    1  C   UNL     1      -9.808  13.944  67.538  1.00  0.00    -0.236 C  
HETATM    2  C   UNL     1     -10.736  14.780  66.676  1.00  0.00    -0.309 C  
ENDROOT
BRANCH   2   3
HETATM    3  C   UNL     1     -11.968  13.993  66.228  1.00  0.00    -0.454 C  
BRANCH   3   4
HETATM    4  C   UNL     1     -11.852  13.629  64.747  1.00  0.00    -0.414 C  
BRANCH   4   5
HETATM    5  C   UNL     1     -12.013  12.129  64.498  1.00  0.00    -0.415 C  
BRANCH   5   6
HETATM    6  C   UNL     1     -10.711  11.445  64.043  1.00  0.00    -0.387 C  
HETATM    7  O   UNL     1     -11.004  10.756  62.831  1.00  0.00    -0.588 OA 
HETATM    8  H   UNL     1     -10.201  10.334  62.550  1.00  0.00     0.000 HD 
BRANCH   6   9
HETATM    9  C   UNL     1     -10.148  10.494  65.078  1.00  0.00    -0.390 C  
HETATM   10  C   UNL     1     -10.771  10.046  66.183  1.00  0.00     0.023 C  
BRANCH  10  11
HETATM   11  C   UNL     1     -10.110   9.247  67.288  1.00  0.00    -0.291 C  
HETATM   12  C   UNL     1      -9.504   7.955  66.700  1.00  0.00    -0.211 C  
HETATM   13  O   UNL     1     -10.489   6.953  66.488  1.00  0.00    -0.474 OA 
HETATM   14  C   UNL     1      -8.477   7.490  67.709  1.00  0.00    -0.118 C  
HETATM   15  H   UNL     1     -10.116   6.158  66.126  1.00  0.00     0.000 HD 
HETATM   16  C   UNL     1      -7.969   8.796  68.232  1.00  0.00    -0.106 C  
HETATM   17  O   UNL     1      -6.891   8.893  68.808  1.00  0.00    -0.060 OA 
HETATM   18  C   UNL     1      -8.933   9.953  68.002  1.00  0.00    -0.121 C  
BRANCH  18  19
HETATM   19  C   UNL     1      -9.386  10.578  69.331  1.00  0.00    -0.139 C  
BRANCH  19  20
HETATM   20  C   UNL     1     -10.352   9.731  70.118  1.00  0.00    -0.335 C  
HETATM   21  C   UNL     1     -10.100   8.998  71.214  1.00  0.00    -0.384 C  
BRANCH  21  22
HETATM   22  C   UNL     1      -8.770   8.845  71.886  1.00  0.00    -0.086 C  
BRANCH  22  23
HETATM   23  C   UNL     1      -8.511   7.415  72.359  1.00  0.00    -0.132 C  
BRANCH  23  24
HETATM   24  C   UNL     1      -8.937   6.431  71.269  1.00  0.00    -0.142 C  
HETATM   25  C   UNL     1      -9.837   5.340  71.791  1.00  0.00    -0.170 C  
HETATM   26  O   UNL     1     -10.207   5.217  72.945  1.00  0.00    -0.171 OA 
HETATM   27  O   UNL     1     -10.205   4.479  70.812  1.00  0.00    -0.194 OA 
ENDBRANCH  23  24
ENDBRANCH  22  23
ENDBRANCH  21  22
ENDBRANCH  19  20
ENDBRANCH  18  19
ENDBRANCH  10  11
ENDBRANCH   6   9
ENDBRANCH   5   6
ENDBRANCH   4   5
ENDBRANCH   3   4
ENDBRANCH   2   3
TORSDOF 11
ENDMDL
MODEL      219
REMARK 921   NORMALIZED FREE ENERGY PREDICTED BY IDOCK:   -4.09 KCAL/MOL
REMARK 922        TOTAL FREE ENERGY PREDICTED BY IDOCK:   -8.54 KCAL/MOL
REMARK 923 INTER-LIGAND FREE ENERGY PREDICTED BY IDOCK:   -6.96 KCAL/MOL
REMARK 924 INTRA-LIGAND FREE ENERGY PREDICTED BY IDOCK:   -1.58 KCAL/MOL
REMARK 927      BINDING AFFINITY PREDICTED BY RF-SCORE:    0.00 PKD
ROOT
HETATM    1  C   UNL     1      -9.259   8.440  71.634  1.00  0.00    -0.271 C  
HETATM    2  C   UNL     1      -9.944   9.368  70.648  1.00  0.00    -0.349 C  
ENDROOT
BRANCH   2   3
HETATM    3  C   UNL     1     -11.369   9.715  71.080  1.00  0.00    -0.456 C  
BRANCH   3   4
HETATM    4  C   UNL     1     -11.975  10.742  70.123  1.00  0.00    -0.432 C  
BRANCH   4   5
HETATM    5  C   UNL     1     -11.000  11.165  69.024  1.00  0.00    -0.286 C  
BRANCH   5   6
HETATM    6  C   UNL     1     -11.335  12.536  68.409  1.00  0.00    -0.291 C  
HETATM    7  O   UNL     1     -11.897  12.290  67.123  1.00  0.00    -0.511 OA 
HETATM    8  H   UNL     1     -12.103  13.135  66.744  1.00  0.00     0.000 HD 
BRANCH   6   9
HETATM    9  C   UNL     1     -10.130  13.449  68.303  1.00  0.00    -0.247 C  
HETATM   10  C   UNL     1      -9.441  13.993  69.322  1.00  0.00     0.353 C  
BRANCH  10  11
HETATM   11  C   UNL     1      -8.362  15.047  69.175  1.00  0.00    -0.187 C  
HETATM   12  C   UNL     1      -6.973  14.389  69.328  1.00  0.00    -0.129 C  
HETATM   13  O   UNL     1      -6.642  14.158  70.690  1.00  0.00    -0.412 OA 
HETATM   14  C   UNL     1      -5.994  15.353  68.694  1.00  0.00    -0.094 C  
HETATM   15  H   UNL     1      -5.787  13.754  70.784  1.00  0.00     0.000 HD 
HETATM   16  C   UNL     1      -6.819  15.918  67.582  1.00  0.00    -0.166 C  
HETATM   17  O   UNL     1      -6.313  16.471  66.612  1.00  0.00    -0.281 OA 
HETATM   18  C   UNL     1      -8.317  15.761  67.803  1.00  0.00    -0.163 C  
BRANCH  18  19
HETATM   19  C   UNL     1      -9.021  17.126  67.867  1.00  0.00    -0.230 C  
BRANCH  19  20
HETATM   20  C   UNL     1     -10.512  17.066  67.657  1.00  0.00    -0.343 C  
HETATM   21  C   UNL     1     -11.176  16.541  66.615  1.00  0.00     0.364 C  
BRANCH  21  22
HETATM   22  C   UNL     1     -10.560  15.913  65.403  1.00  0.00    -0.439 C  
BRANCH  22  23
HETATM   23  C   UNL     1     -11.487  14.903  64.729  1.00  0.00    -0.410 C  
BRANCH  23  24
HETATM   24  C   UNL     1     -10.689  13.661  64.331  1.00  0.00    -0.369 C  
HETATM   25  C   UNL     1     -11.544  12.603  63.682  1.00  0.00    -0.503 C  
HETATM   26  O   UNL     1     -12.743  12.686  63.480  1.00  0.00    -0.719 OA 
HETATM   27  O   UNL     1     -10.820  11.512  63.336  1.00  0.00    -0.389 OA 
ENDBRANCH  23  24
ENDBRANCH  22  23
ENDBRANCH  21  22
ENDBRANCH  19  20
ENDBRANCH  18  19
ENDBRANCH  10  11
ENDBRANCH   6   9
ENDBRANCH   5   6
ENDBRANCH   4   5
ENDBRANCH   3   4
ENDBRANCH   2   3
TORSDOF 11
ENDMDL
MODEL      220
REMARK 921   NORMALIZED FREE ENERGY PREDICTED BY IDOCK:   -4.09 KCAL/MOL
REMARK 922        TOTAL FREE ENERGY PREDICTED BY IDOCK:   -8.53 KCAL/MOL
REMARK 923 INTER-LIGAND FREE ENERGY PREDICTED BY IDOCK:   -7.47 KCAL/MOL
REMARK 924 INTRA-LIGAND FREE ENERGY PREDICTED BY IDOCK:   -1.06 KCAL/MOL
REMARK 927      BINDING AFFINITY PREDICTED BY RF-SCORE:    0.00 PKD
ROOT
HETATM    1  C   UNL     1      -8.670   9.346  66.724  1.00  0.00    -0.138 C  
HETATM    2  C   UNL     1      -8.772   7.909  66.249  1.00  0.00    -0.174 C  
ENDROOT
BRANCH   2   3
HETATM    3  C   UNL     1      -9.753   7.093  67.092  1.00  0.00    -0.212 C  
BRANCH   3   4
HETATM    4  C   UNL     1      -8.992   6.235  68.105  1.00  0.00    -0.115 C  
BRANCH   4   5
HETATM    5  C   UNL     1      -8.068   7.065  68.997  1.00  0.00    -0.121 C  
BRANCH   5   6
HETATM    6  C   UNL     1      -8.628   7.283  70.415  1.00  0.00    -0.144 C  
HETATM    7  O   UNL     1      -8.619   6.015  71.065  1.00  0.00    -0.129 OA 
HETATM    8  H   UNL     1      -8.964   6.149  71.940  1.00  0.00     0.000 HD 
BRANCH   6   9
HETATM    9  C   UNL     1     -10.021   7.878  70.417  1.00  0.00    -0.192 C  
HETATM   10  C   UNL     1     -10.357   9.139  70.095  1.00  0.00    -0.244 C  
BRANCH  10  11
HETATM   11  C   UNL     1     -11.731   9.748  70.290  1.00  0.00    -0.253 C  
HETATM   12  C   UNL     1     -12.509   8.939  71.350  1.00  0.00    -0.304 C  
HETATM   13  O   UNL     1     -13.053   7.742  70.812  1.00  0.00    -0.532 OA 
HETATM   14  C   UNL     1     -13.609   9.856  71.837  1.00  0.00    -0.391 C  
HETATM   15  H   UNL     1     -13.532   7.244  71.464  1.00  0.00     0.000 HD 
HETATM   16  C   UNL     1     -12.935  11.189  71.757  1.00  0.00    -0.421 C  
HETATM   17  O   UNL     1     -13.340  12.162  72.383  1.00  0.00    -0.427 OA 
HETATM   18  C   UNL     1     -11.742  11.205  70.811  1.00  0.00    -0.215 C  
BRANCH  18  19
HETATM   19  C   UNL     1     -11.951  12.203  69.662  1.00  0.00    -0.351 C  
BRANCH  19  20
HETATM   20  C   UNL     1     -11.908  11.585  68.288  1.00  0.00    -0.327 C  
HETATM   21  C   UNL     1     -11.225  12.011  67.214  1.00  0.00    -0.371 C  
BRANCH  21  22
HETATM   22  C   UNL     1     -10.359  13.231  67.148  1.00  0.00    -0.248 C  
BRANCH  22  23
HETATM   23  C   UNL     1     -10.629  14.077  65.904  1.00  0.00    -0.302 C  
BRANCH  23  24
HETATM   24  C   UNL     1     -10.426  15.555  66.236  1.00  0.00    -0.313 C  
HETATM   25  C   UNL     1     -10.827  16.466  65.104  1.00  0.00    -0.275 C  
HETATM   26  O   UNL     1     -11.266  16.106  64.025  1.00  0.00    -0.609 OA 
HETATM   27  O   UNL     1     -10.643  17.771  65.417  1.00  0.00    -0.659 OA 
ENDBRANCH  23  24
ENDBRANCH  22  23
ENDBRANCH  21  22
ENDBRANCH  19  20
ENDBRANCH  18  19
ENDBRANCH  10  11
ENDBRANCH   6   9
ENDBRANCH   5   6
ENDBRANCH   4   5
ENDBRANCH   3   4
ENDBRANCH   2   3
TORSDOF 11
ENDMDL
MODEL      221
REMARK 921   NORMALIZED FREE ENERGY PREDICTED BY IDOCK:   -4.07 KCAL/MOL
REMARK 922        TOTAL FREE ENERGY PREDICTED BY IDOCK:   -8.50 KCAL/MOL
REMARK 923 INTER-LIGAND FREE ENERGY PREDICTED BY IDOCK:   -6.34 KCAL/MOL
REMARK 924 INTRA-LIGAND FREE ENERGY PREDICTED BY IDOCK:   -2.17 KCAL/MOL
REMARK 927      BINDING AFFINITY PREDICTED BY RF-SCORE:    0.00 PKD
ROOT
HETATM    1  C   UNL     1     -10.029  10.629  63.551  1.00  0.00    -0.347 C  
HETATM    2  C   UNL     1      -8.689  10.030  63.166  1.00  0.00    -0.217 C  
ENDROOT
BRANCH   2   3
HETATM    3  C   UNL     1      -8.053   9.253  64.320  1.00  0.00    -0.144 C  
BRANCH   3   4
HETATM    4  C   UNL     1      -6.721   9.892  64.716  1.00  0.00    -0.122 C  
BRANCH   4   5
HETATM    5  C   UNL     1      -6.429   9.758  66.211  1.00  0.00    -0.072 C  
BRANCH   5   6
HETATM    6  C   UNL     1      -6.636  11.069  66.990  1.00  0.00    -0.100 C  
HETATM    7  O   UNL     1      -6.311  10.801  68.351  1.00  0.00    -0.053 OA 
HETATM    8  H   UNL     1      -6.439  11.609  68.832  1.00  0.00     0.000 HD 
BRANCH   6   9
HETATM    9  C   UNL     1      -8.046  11.612  66.872  1.00  0.00    -0.164 C  
HETATM   10  C   UNL     1      -8.524  12.736  67.434  1.00  0.00    -0.191 C  
BRANCH  10  11
HETATM   11  C   UNL     1      -9.983  13.146  67.448  1.00  0.00    -0.229 C  
HETATM   12  C   UNL     1     -10.151  14.482  66.691  1.00  0.00    -0.272 C  
HETATM   13  O   UNL     1      -9.771  15.596  67.488  1.00  0.00    -0.220 OA 
HETATM   14  C   UNL     1     -11.616  14.562  66.324  1.00  0.00    -0.364 C  
HETATM   15  H   UNL     1      -9.875  16.418  67.023  1.00  0.00     0.000 HD 
HETATM   16  C   UNL     1     -11.935  13.120  66.081  1.00  0.00    -0.422 C  
HETATM   17  O   UNL     1     -12.911  12.770  65.427  1.00  0.00    -0.586 OA 
HETATM   18  C   UNL     1     -10.953  12.166  66.748  1.00  0.00    -0.325 C  
BRANCH  18  19
HETATM   19  C   UNL     1     -11.658  11.260  67.770  1.00  0.00    -0.307 C  
BRANCH  19  20
HETATM   20  C   UNL     1     -11.157   9.839  67.789  1.00  0.00    -0.142 C  
HETATM   21  C   UNL     1     -10.302   9.279  68.659  1.00  0.00    -0.229 C  
BRANCH  21  22
HETATM   22  C   UNL     1      -9.632   9.971  69.805  1.00  0.00    -0.249 C  
BRANCH  22  23
HETATM   23  C   UNL     1     -10.236   9.592  71.156  1.00  0.00    -0.300 C  
BRANCH  23  24
HETATM   24  C   UNL     1     -10.835   8.187  71.072  1.00  0.00    -0.265 C  
HETATM   25  C   UNL     1     -12.288   8.150  71.474  1.00  0.00    -0.306 C  
HETATM   26  O   UNL     1     -12.948   9.109  71.835  1.00  0.00    -0.345 OA 
HETATM   27  O   UNL     1     -12.802   6.900  71.391  1.00  0.00    -0.366 OA 
ENDBRANCH  23  24
ENDBRANCH  22  23
ENDBRANCH  21  22
ENDBRANCH  19  20
ENDBRANCH  18  19
ENDBRANCH  10  11
ENDBRANCH   6   9
ENDBRANCH   5   6
ENDBRANCH   4   5
ENDBRANCH   3   4
ENDBRANCH   2   3
TORSDOF 11
ENDMDL
MODEL      222
REMARK 921   NORMALIZED FREE ENERGY PREDICTED BY IDOCK:   -4.07 KCAL/MOL
REMARK 922        TOTAL FREE ENERGY PREDICTED BY IDOCK:   -8.50 KCAL/MOL
REMARK 923 INTER-LIGAND FREE ENERGY PREDICTED BY IDOCK:   -6.98 KCAL/MOL
REMARK 924 INTRA-LIGAND FREE ENERGY PREDICTED BY IDOCK:   -1.52 KCAL/MOL
REMARK 927      BINDING AFFINITY PREDICTED BY RF-SCORE:    0.00 PKD
ROOT
HETATM    1  C   UNL     1     -12.302  14.820  72.078  1.00  0.00    -0.416 C  
HETATM    2  C   UNL     1     -12.724  15.179  70.666  1.00  0.00    -0.451 C  
ENDROOT
BRANCH   2   3
HETATM    3  C   UNL     1     -11.604  14.938  69.652  1.00  0.00    -0.337 C  
BRANCH   3   4
HETATM    4  C   UNL     1     -11.994  13.811  68.694  1.00  0.00    -0.401 C  
BRANCH   4   5
HETATM    5  C   UNL     1     -12.138  14.294  67.250  1.00  0.00    -0.390 C  
BRANCH   5   6
HETATM    6  C   UNL     1     -11.613  13.282  66.216  1.00  0.00    -0.346 C  
HETATM    7  O   UNL     1     -12.748  12.745  65.544  1.00  0.00    -0.595 OA 
HETATM    8  H   UNL     1     -12.424  12.121  64.905  1.00  0.00     0.000 HD 
BRANCH   6   9
HETATM    9  C   UNL     1     -10.783  12.176  66.836  1.00  0.00    -0.271 C  
HETATM   10  C   UNL     1     -11.021  10.855  66.761  1.00  0.00    -0.248 C  
BRANCH  10  11
HETATM   11  C   UNL     1     -10.278   9.794  67.548  1.00  0.00    -0.271 C  
HETATM   12  C   UNL     1      -9.117   9.236  66.696  1.00  0.00    -0.143 C  
HETATM   13  O   UNL     1      -9.567   8.290  65.737  1.00  0.00    -0.445 OA 
HETATM   14  C   UNL     1      -8.164   8.591  67.679  1.00  0.00    -0.118 C  
HETATM   15  H   UNL     1      -8.853   7.947  65.213  1.00  0.00     0.000 HD 
HETATM   16  C   UNL     1      -8.316   9.488  68.866  1.00  0.00    -0.121 C  
HETATM   17  O   UNL     1      -7.475   9.539  69.756  1.00  0.00    -0.074 OA 
HETATM   18  C   UNL     1      -9.615  10.283  68.857  1.00  0.00    -0.193 C  
BRANCH  18  19
HETATM   19  C   UNL     1     -10.486   9.948  70.078  1.00  0.00    -0.331 C  
BRANCH  19  20
HETATM   20  C   UNL     1     -10.996   8.530  70.106  1.00  0.00    -0.221 C  
HETATM   21  C   UNL     1     -11.267   7.774  71.182  1.00  0.00    -0.285 C  
BRANCH  21  22
HETATM   22  C   UNL     1     -11.092   8.182  72.612  1.00  0.00    -0.450 C  
BRANCH  22  23
HETATM   23  C   UNL     1     -10.454   7.085  73.463  1.00  0.00    -0.413 C  
BRANCH  23  24
HETATM   24  C   UNL     1      -8.983   6.927  73.076  1.00  0.00    -0.146 C  
HETATM   25  C   UNL     1      -8.514   5.497  73.144  1.00  0.00    -0.118 C  
HETATM   26  O   UNL     1      -9.197   4.541  73.470  1.00  0.00    -0.112 OA 
HETATM   27  O   UNL     1      -7.210   5.377  72.796  1.00  0.00    -0.086 OA 
ENDBRANCH  23  24
ENDBRANCH  22  23
ENDBRANCH  21  22
ENDBRANCH  19  20
ENDBRANCH  18  19
ENDBRANCH  10  11
ENDBRANCH   6   9
ENDBRANCH   5   6
ENDBRANCH   4   5
ENDBRANCH   3   4
ENDBRANCH   2   3
TORSDOF 11
ENDMDL
MODEL      223
REMARK 921   NORMALIZED FREE ENERGY PREDICTED BY IDOCK:   -4.06 KCAL/MOL
REMARK 922        TOTAL FREE ENERGY PREDICTED BY IDOCK:   -8.49 KCAL/MOL
REMARK 923 INTER-LIGAND FREE ENERGY PREDICTED BY IDOCK:   -6.93 KCAL/MOL
REMARK 924 INTRA-LIGAND FREE ENERGY PREDICTED BY IDOCK:   -1.55 KCAL/MOL
REMARK 927      BINDING AFFINITY PREDICTED BY RF-SCORE:    0.00 PKD
ROOT
HETATM    1  C   UNL     1     -10.383  19.668  66.190  1.00  0.00    -0.627 C  
HETATM    2  C   UNL     1     -10.317  18.164  66.384  1.00  0.00    -0.404 C  
ENDROOT
BRANCH   2   3
HETATM    3  C   UNL     1     -10.431  17.769  67.857  1.00  0.00    -0.401 C  
BRANCH   3   4
HETATM    4  C   UNL     1      -9.040  17.542  68.451  1.00  0.00    -0.276 C  
BRANCH   4   5
HETATM    5  C   UNL     1      -8.109  16.795  67.495  1.00  0.00    -0.188 C  
BRANCH   5   6
HETATM    6  C   UNL     1      -7.827  15.346  67.931  1.00  0.00    -0.133 C  
HETATM    7  O   UNL     1      -6.641  14.932  67.258  1.00  0.00    -0.297 OA 
HETATM    8  H   UNL     1      -6.466  14.038  67.527  1.00  0.00     0.000 HD 
BRANCH   6   9
HETATM    9  C   UNL     1      -8.972  14.402  67.629  1.00  0.00    -0.192 C  
HETATM   10  C   UNL     1      -9.515  14.156  66.424  1.00  0.00    -0.289 C  
BRANCH  10  11
HETATM   11  C   UNL     1     -10.778  13.351  66.189  1.00  0.00    -0.288 C  
HETATM   12  C   UNL     1     -11.998  14.298  66.171  1.00  0.00    -0.407 C  
HETATM   13  O   UNL     1     -12.407  14.664  67.482  1.00  0.00    -0.585 OA 
HETATM   14  C   UNL     1     -13.095  13.536  65.461  1.00  0.00    -0.085 C  
HETATM   15  H   UNL     1     -13.158  15.246  67.470  1.00  0.00     0.000 HD 
HETATM   16  C   UNL     1     -12.306  12.750  64.462  1.00  0.00    -0.445 C  
HETATM   17  O   UNL     1     -12.820  12.270  63.458  1.00  0.00    -0.768 OA 
HETATM   18  C   UNL     1     -10.840  12.594  64.841  1.00  0.00    -0.329 C  
BRANCH  18  19
HETATM   19  C   UNL     1     -10.461  11.116  65.019  1.00  0.00    -0.357 C  
BRANCH  19  20
HETATM   20  C   UNL     1      -8.979  10.845  64.977  1.00  0.00    -0.184 C  
HETATM   21  C   UNL     1      -8.318   9.800  65.499  1.00  0.00    -0.141 C  
BRANCH  21  22
HETATM   22  C   UNL     1      -8.926   8.670  66.273  1.00  0.00    -0.211 C  
BRANCH  22  23
HETATM   23  C   UNL     1      -7.877   7.712  66.836  1.00  0.00    -0.111 C  
BRANCH  23  24
HETATM   24  C   UNL     1      -7.475   8.162  68.241  1.00  0.00    -0.097 C  
HETATM   25  C   UNL     1      -6.038   8.612  68.318  1.00  0.00    -0.050 C  
HETATM   26  O   UNL     1      -5.249   8.629  67.389  1.00  0.00    -0.033 OA 
HETATM   27  O   UNL     1      -5.701   9.009  69.568  1.00  0.00    -0.034 OA 
ENDBRANCH  23  24
ENDBRANCH  22  23
ENDBRANCH  21  22
ENDBRANCH  19  20
ENDBRANCH  18  19
ENDBRANCH  10  11
ENDBRANCH   6   9
ENDBRANCH   5   6
ENDBRANCH   4   5
ENDBRANCH   3   4
ENDBRANCH   2   3
TORSDOF 11
ENDMDL
MODEL      224
REMARK 921   NORMALIZED FREE ENERGY PREDICTED BY IDOCK:   -4.05 KCAL/MOL
REMARK 922        TOTAL FREE ENERGY PREDICTED BY IDOCK:   -8.48 KCAL/MOL
REMARK 923 INTER-LIGAND FREE ENERGY PREDICTED BY IDOCK:   -7.08 KCAL/MOL
REMARK 924 INTRA-LIGAND FREE ENERGY PREDICTED BY IDOCK:   -1.39 KCAL/MOL
REMARK 927      BINDING AFFINITY PREDICTED BY RF-SCORE:    0.00 PKD
ROOT
HETATM    1  C   UNL     1      -6.753   9.209  63.385  1.00  0.00    -0.090 C  
HETATM    2  C   UNL     1      -6.662   8.665  64.798  1.00  0.00    -0.069 C  
ENDROOT
BRANCH   2   3
HETATM    3  C   UNL     1      -7.693   9.306  65.728  1.00  0.00    -0.098 C  
BRANCH   3   4
HETATM    4  C   UNL     1      -7.548  10.829  65.706  1.00  0.00    -0.079 C  
BRANCH   4   5
HETATM    5  C   UNL     1      -8.082  11.487  66.979  1.00  0.00    -0.161 C  
BRANCH   5   6
HETATM    6  C   UNL     1      -9.344  12.334  66.742  1.00  0.00    -0.218 C  
HETATM    7  O   UNL     1      -9.609  12.304  65.342  1.00  0.00    -0.399 OA 
HETATM    8  H   UNL     1     -10.388  12.826  65.195  1.00  0.00     0.000 HD 
BRANCH   6   9
HETATM    9  C   UNL     1      -9.201  13.761  67.230  1.00  0.00    -0.239 C  
HETATM   10  C   UNL     1      -9.051  14.860  66.469  1.00  0.00    -0.309 C  
BRANCH  10  11
HETATM   11  C   UNL     1      -8.724  16.243  66.997  1.00  0.00    -0.220 C  
HETATM   12  C   UNL     1      -7.281  16.619  66.598  1.00  0.00    -0.241 C  
HETATM   13  O   UNL     1      -6.318  16.006  67.444  1.00  0.00    -0.159 OA 
HETATM   14  C   UNL     1      -7.208  18.127  66.708  1.00  0.00    -0.234 C  
HETATM   15  H   UNL     1      -5.430  16.239  67.199  1.00  0.00     0.000 HD 
HETATM   16  C   UNL     1      -8.593  18.517  66.298  1.00  0.00    -0.205 C  
HETATM   17  O   UNL     1      -8.863  19.648  65.911  1.00  0.00    -0.395 OA 
HETATM   18  C   UNL     1      -9.604  17.388  66.444  1.00  0.00    -0.291 C  
BRANCH  18  19
HETATM   19  C   UNL     1     -10.719  17.758  67.435  1.00  0.00    -0.287 C  
BRANCH  19  20
HETATM   20  C   UNL     1     -10.342  17.588  68.884  1.00  0.00    -0.338 C  
HETATM   21  C   UNL     1     -10.731  16.619  69.727  1.00  0.00    -0.254 C  
BRANCH  21  22
HETATM   22  C   UNL     1     -11.662  15.491  69.404  1.00  0.00    -0.382 C  
BRANCH  22  23
HETATM   23  C   UNL     1     -12.475  15.034  70.615  1.00  0.00    -0.422 C  
BRANCH  23  24
HETATM   24  C   UNL     1     -12.519  13.505  70.653  1.00  0.00    -0.405 C  
HETATM   25  C   UNL     1     -13.189  12.975  71.895  1.00  0.00    -0.430 C  
HETATM   26  O   UNL     1     -13.655  13.652  72.794  1.00  0.00    -0.672 OA 
HETATM   27  O   UNL     1     -13.221  11.621  71.911  1.00  0.00    -0.485 OA 
ENDBRANCH  23  24
ENDBRANCH  22  23
ENDBRANCH  21  22
ENDBRANCH  19  20
ENDBRANCH  18  19
ENDBRANCH  10  11
ENDBRANCH   6   9
ENDBRANCH   5   6
ENDBRANCH   4   5
ENDBRANCH   3   4
ENDBRANCH   2   3
TORSDOF 11
ENDMDL
MODEL      225
REMARK 921   NORMALIZED FREE ENERGY PREDICTED BY IDOCK:   -4.03 KCAL/MOL
REMARK 922        TOTAL FREE ENERGY PREDICTED BY IDOCK:   -8.45 KCAL/MOL
REMARK 923 INTER-LIGAND FREE ENERGY PREDICTED BY IDOCK:   -7.44 KCAL/MOL
REMARK 924 INTRA-LIGAND FREE ENERGY PREDICTED BY IDOCK:   -1.00 KCAL/MOL
REMARK 927      BINDING AFFINITY PREDICTED BY RF-SCORE:    0.00 PKD
ROOT
HETATM    1  C   UNL     1      -9.463   3.833  69.700  1.00  0.00    -0.258 C  
HETATM    2  C   UNL     1      -9.643   5.258  70.190  1.00  0.00    -0.241 C  
ENDROOT
BRANCH   2   3
HETATM    3  C   UNL     1     -11.016   5.822  69.823  1.00  0.00    -0.397 C  
BRANCH   3   4
HETATM    4  C   UNL     1     -10.907   7.317  69.518  1.00  0.00    -0.224 C  
BRANCH   4   5
HETATM    5  C   UNL     1      -9.466   7.825  69.582  1.00  0.00    -0.156 C  
BRANCH   5   6
HETATM    6  C   UNL     1      -9.302   9.077  70.461  1.00  0.00    -0.219 C  
HETATM    7  O   UNL     1      -8.936   8.628  71.763  1.00  0.00    -0.205 OA 
HETATM    8  H   UNL     1      -8.834   9.401  72.305  1.00  0.00     0.000 HD 
BRANCH   6   9
HETATM    9  C   UNL     1     -10.553   9.930  70.519  1.00  0.00    -0.359 C  
HETATM   10  C   UNL     1     -10.884  10.930  69.683  1.00  0.00    -0.271 C  
BRANCH  10  11
HETATM   11  C   UNL     1     -12.048  11.879  69.884  1.00  0.00    -0.344 C  
HETATM   12  C   UNL     1     -12.573  11.753  71.331  1.00  0.00    -0.262 C  
HETATM   13  O   UNL     1     -13.402  10.611  71.498  1.00  0.00    -0.347 OA 
HETATM   14  C   UNL     1     -13.352  13.023  71.595  1.00  0.00    -0.379 C  
HETATM   15  H   UNL     1     -13.725  10.534  72.388  1.00  0.00     0.000 HD 
HETATM   16  C   UNL     1     -12.567  14.018  70.800  1.00  0.00    -0.360 C  
HETATM   17  O   UNL     1     -12.639  15.223  71.010  1.00  0.00    -0.340 OA 
HETATM   18  C   UNL     1     -11.716  13.380  69.709  1.00  0.00    -0.355 C  
BRANCH  18  19
HETATM   19  C   UNL     1     -12.127  13.878  68.315  1.00  0.00    -0.322 C  
BRANCH  19  20
HETATM   20  C   UNL     1     -10.970  14.170  67.394  1.00  0.00    -0.306 C  
HETATM   21  C   UNL     1     -10.225  15.285  67.336  1.00  0.00    -0.243 C  
BRANCH  21  22
HETATM   22  C   UNL     1     -10.407  16.511  68.177  1.00  0.00    -0.296 C  
BRANCH  22  23
HETATM   23  C   UNL     1      -9.331  17.565  67.920  1.00  0.00    -0.265 C  
BRANCH  23  24
HETATM   24  C   UNL     1      -7.961  16.889  67.841  1.00  0.00    -0.187 C  
HETATM   25  C   UNL     1      -7.208  17.247  66.585  1.00  0.00    -0.243 C  
HETATM   26  O   UNL     1      -7.609  17.987  65.704  1.00  0.00    -0.545 OA 
HETATM   27  O   UNL     1      -5.997  16.641  66.534  1.00  0.00    -0.313 OA 
ENDBRANCH  23  24
ENDBRANCH  22  23
ENDBRANCH  21  22
ENDBRANCH  19  20
ENDBRANCH  18  19
ENDBRANCH  10  11
ENDBRANCH   6   9
ENDBRANCH   5   6
ENDBRANCH   4   5
ENDBRANCH   3   4
ENDBRANCH   2   3
TORSDOF 11
ENDMDL
MODEL      226
REMARK 921   NORMALIZED FREE ENERGY PREDICTED BY IDOCK:   -4.02 KCAL/MOL
REMARK 922        TOTAL FREE ENERGY PREDICTED BY IDOCK:   -8.42 KCAL/MOL
REMARK 923 INTER-LIGAND FREE ENERGY PREDICTED BY IDOCK:   -6.35 KCAL/MOL
REMARK 924 INTRA-LIGAND FREE ENERGY PREDICTED BY IDOCK:   -2.07 KCAL/MOL
REMARK 927      BINDING AFFINITY PREDICTED BY RF-SCORE:    0.00 PKD
ROOT
HETATM    1  C   UNL     1      -8.797  11.055  68.604  1.00  0.00    -0.164 C  
HETATM    2  C   UNL     1     -10.251  11.489  68.602  1.00  0.00    -0.217 C  
ENDROOT
BRANCH   2   3
HETATM    3  C   UNL     1     -11.039  10.852  67.455  1.00  0.00    -0.373 C  
BRANCH   3   4
HETATM    4  C   UNL     1     -10.362  11.158  66.117  1.00  0.00    -0.302 C  
BRANCH   4   5
HETATM    5  C   UNL     1     -10.100   9.897  65.292  1.00  0.00    -0.227 C  
BRANCH   5   6
HETATM    6  C   UNL     1      -8.870   9.105  65.769  1.00  0.00    -0.175 C  
HETATM    7  O   UNL     1      -7.891   9.195  64.737  1.00  0.00    -0.110 OA 
HETATM    8  H   UNL     1      -7.132   8.705  65.032  1.00  0.00     0.000 HD 
BRANCH   6   9
HETATM    9  C   UNL     1      -9.184   7.657  66.086  1.00  0.00    -0.168 C  
HETATM   10  C   UNL     1     -10.198   7.201  66.843  1.00  0.00    -0.330 C  
BRANCH  10  11
HETATM   11  C   UNL     1     -10.369   5.763  67.290  1.00  0.00    -0.284 C  
HETATM   12  C   UNL     1     -10.189   4.821  66.080  1.00  0.00    -0.278 C  
HETATM   13  O   UNL     1     -11.355   4.767  65.269  1.00  0.00    -0.928 OA 
HETATM   14  C   UNL     1      -9.880   3.460  66.665  1.00  0.00     0.179 C  
HETATM   15  H   UNL     1     -11.244   4.187  64.525  1.00  0.00     0.000 HD 
HETATM   16  C   UNL     1      -9.098   3.837  67.883  1.00  0.00    -0.152 C  
HETATM   17  O   UNL     1      -8.359   3.043  68.454  1.00  0.00    -0.067 OA 
HETATM   18  C   UNL     1      -9.343   5.269  68.337  1.00  0.00    -0.146 C  
BRANCH  18  19
HETATM   19  C   UNL     1      -9.935   5.314  69.755  1.00  0.00    -0.306 C  
BRANCH  19  20
HETATM   20  C   UNL     1      -8.958   5.736  70.822  1.00  0.00    -0.156 C  
HETATM   21  C   UNL     1      -8.794   6.959  71.351  1.00  0.00    -0.133 C  
BRANCH  21  22
HETATM   22  C   UNL     1      -9.547   8.194  70.965  1.00  0.00    -0.189 C  
BRANCH  22  23
HETATM   23  C   UNL     1     -10.301   8.815  72.141  1.00  0.00    -0.378 C  
BRANCH  23  24
HETATM   24  C   UNL     1     -11.651   8.116  72.308  1.00  0.00    -0.436 C  
HETATM   25  C   UNL     1     -12.758   8.800  71.546  1.00  0.00    -0.328 C  
HETATM   26  O   UNL     1     -12.634   9.802  70.863  1.00  0.00    -0.307 OA 
HETATM   27  O   UNL     1     -13.945   8.167  71.704  1.00  0.00    -0.376 OA 
ENDBRANCH  23  24
ENDBRANCH  22  23
ENDBRANCH  21  22
ENDBRANCH  19  20
ENDBRANCH  18  19
ENDBRANCH  10  11
ENDBRANCH   6   9
ENDBRANCH   5   6
ENDBRANCH   4   5
ENDBRANCH   3   4
ENDBRANCH   2   3
TORSDOF 11
ENDMDL
MODEL      227
REMARK 921   NORMALIZED FREE ENERGY PREDICTED BY IDOCK:   -4.00 KCAL/MOL
REMARK 922        TOTAL FREE ENERGY PREDICTED BY IDOCK:   -8.39 KCAL/MOL
REMARK 923 INTER-LIGAND FREE ENERGY PREDICTED BY IDOCK:   -7.22 KCAL/MOL
REMARK 924 INTRA-LIGAND FREE ENERGY PREDICTED BY IDOCK:   -1.17 KCAL/MOL
REMARK 927      BINDING AFFINITY PREDICTED BY RF-SCORE:    0.00 PKD
ROOT
HETATM    1  C   UNL     1      -5.497  19.437  67.395  1.00  0.00    -0.165 C  
HETATM    2  C   UNL     1      -6.911  19.097  67.826  1.00  0.00    -0.249 C  
ENDROOT
BRANCH   2   3
HETATM    3  C   UNL     1      -7.826  18.824  66.631  1.00  0.00    -0.275 C  
BRANCH   3   4
HETATM    4  C   UNL     1      -8.472  17.444  66.766  1.00  0.00    -0.280 C  
BRANCH   4   5
HETATM    5  C   UNL     1      -9.578  17.415  67.822  1.00  0.00    -0.264 C  
BRANCH   5   6
HETATM    6  C   UNL     1      -9.748  16.037  68.486  1.00  0.00    -0.214 C  
HETATM    7  O   UNL     1      -8.495  15.702  69.076  1.00  0.00    -0.194 OA 
HETATM    8  H   UNL     1      -8.600  14.852  69.486  1.00  0.00     0.000 HD 
BRANCH   6   9
HETATM    9  C   UNL     1     -10.189  14.961  67.515  1.00  0.00    -0.233 C  
HETATM   10  C   UNL     1     -11.190  15.047  66.621  1.00  0.00    -0.311 C  
BRANCH  10  11
HETATM   11  C   UNL     1     -11.722  13.888  65.801  1.00  0.00    -0.369 C  
HETATM   12  C   UNL     1     -11.556  14.201  64.298  1.00  0.00    -0.309 C  
HETATM   13  O   UNL     1     -12.568  15.077  63.821  1.00  0.00    -0.997 OA 
HETATM   14  C   UNL     1     -11.629  12.864  63.593  1.00  0.00    -0.547 C  
HETATM   15  H   UNL     1     -12.465  15.269  62.896  1.00  0.00     0.000 HD 
HETATM   16  C   UNL     1     -10.985  11.966  64.601  1.00  0.00    -0.316 C  
HETATM   17  O   UNL     1     -10.523  10.872  64.298  1.00  0.00    -0.362 OA 
HETATM   18  C   UNL     1     -10.996  12.539  66.012  1.00  0.00    -0.318 C  
BRANCH  18  19
HETATM   19  C   UNL     1     -11.777  11.635  66.978  1.00  0.00    -0.176 C  
BRANCH  19  20
HETATM   20  C   UNL     1     -11.009  11.233  68.211  1.00  0.00    -0.275 C  
HETATM   21  C   UNL     1     -10.390  10.066  68.451  1.00  0.00    -0.218 C  
BRANCH  21  22
HETATM   22  C   UNL     1     -10.354   8.883  67.534  1.00  0.00    -0.328 C  
BRANCH  22  23
HETATM   23  C   UNL     1     -11.003   7.643  68.148  1.00  0.00     0.066 C  
BRANCH  23  24
HETATM   24  C   UNL     1     -10.799   6.446  67.218  1.00  0.00    -0.463 C  
HETATM   25  C   UNL     1      -9.824   5.438  67.774  1.00  0.00    -0.143 C  
HETATM   26  O   UNL     1      -9.240   5.530  68.840  1.00  0.00    -0.116 OA 
HETATM   27  O   UNL     1      -9.658   4.385  66.939  1.00  0.00    -0.170 OA 
ENDBRANCH  23  24
ENDBRANCH  22  23
ENDBRANCH  21  22
ENDBRANCH  19  20
ENDBRANCH  18  19
ENDBRANCH  10  11
ENDBRANCH   6   9
ENDBRANCH   5   6
ENDBRANCH   4   5
ENDBRANCH   3   4
ENDBRANCH   2   3
TORSDOF 11
ENDMDL
MODEL      228
REMARK 921   NORMALIZED FREE ENERGY PREDICTED BY IDOCK:   -4.00 KCAL/MOL
REMARK 922        TOTAL FREE ENERGY PREDICTED BY IDOCK:   -8.38 KCAL/MOL
REMARK 923 INTER-LIGAND FREE ENERGY PREDICTED BY IDOCK:   -6.51 KCAL/MOL
REMARK 924 INTRA-LIGAND FREE ENERGY PREDICTED BY IDOCK:   -1.87 KCAL/MOL
REMARK 927      BINDING AFFINITY PREDICTED BY RF-SCORE:    0.00 PKD
ROOT
HETATM    1  C   UNL     1      -9.833   4.458  70.384  1.00  0.00    -0.286 C  
HETATM    2  C   UNL     1      -9.498   3.765  71.691  1.00  0.00    -0.213 C  
ENDROOT
BRANCH   2   3
HETATM    3  C   UNL     1     -10.503   4.099  72.794  1.00  0.00    -0.241 C  
BRANCH   3   4
HETATM    4  C   UNL     1      -9.776   4.657  74.019  1.00  0.00    -0.157 C  
BRANCH   4   5
HETATM    5  C   UNL     1     -10.173   6.102  74.328  1.00  0.00    -0.326 C  
BRANCH   5   6
HETATM    6  C   UNL     1      -9.466   7.131  73.429  1.00  0.00    -0.193 C  
HETATM    7  O   UNL     1      -8.772   8.029  74.291  1.00  0.00    -0.393 OA 
HETATM    8  H   UNL     1      -8.335   8.665  73.736  1.00  0.00     0.000 HD 
BRANCH   6   9
HETATM    9  C   UNL     1     -10.420   7.884  72.525  1.00  0.00    -0.363 C  
HETATM   10  C   UNL     1     -10.275   8.102  71.206  1.00  0.00    -0.240 C  
BRANCH  10  11
HETATM   11  C   UNL     1     -11.153   9.017  70.376  1.00  0.00    -0.279 C  
HETATM   12  C   UNL     1     -12.467   9.301  71.136  1.00  0.00    -0.272 C  
HETATM   13  O   UNL     1     -13.388   8.224  71.027  1.00  0.00    -0.523 OA 
HETATM   14  C   UNL     1     -13.036  10.557  70.512  1.00  0.00    -0.289 C  
HETATM   15  H   UNL     1     -14.196   8.399  71.494  1.00  0.00     0.000 HD 
HETATM   16  C   UNL     1     -11.786  11.306  70.172  1.00  0.00    -0.364 C  
HETATM   17  O   UNL     1     -11.785  12.515  69.973  1.00  0.00    -0.297 OA 
HETATM   18  C   UNL     1     -10.557  10.412  70.073  1.00  0.00    -0.282 C  
BRANCH  18  19
HETATM   19  C   UNL     1      -9.942  10.458  68.666  1.00  0.00    -0.186 C  
BRANCH  19  20
HETATM   20  C   UNL     1     -10.650   9.598  67.651  1.00  0.00    -0.334 C  
HETATM   21  C   UNL     1     -10.128   8.625  66.888  1.00  0.00    -0.355 C  
BRANCH  21  22
HETATM   22  C   UNL     1      -8.693   8.196  66.867  1.00  0.00    -0.136 C  
BRANCH  22  23
HETATM   23  C   UNL     1      -8.521   6.704  67.147  1.00  0.00    -0.113 C  
BRANCH  23  24
HETATM   24  C   UNL     1      -9.057   5.897  65.964  1.00  0.00    -0.154 C  
HETATM   25  C   UNL     1     -10.373   5.225  66.267  1.00  0.00    -0.239 C  
HETATM   26  O   UNL     1     -10.976   5.290  67.324  1.00  0.00    -0.023 OA 
HETATM   27  O   UNL     1     -10.833   4.518  65.207  1.00  0.00    -0.254 OA 
ENDBRANCH  23  24
ENDBRANCH  22  23
ENDBRANCH  21  22
ENDBRANCH  19  20
ENDBRANCH  18  19
ENDBRANCH  10  11
ENDBRANCH   6   9
ENDBRANCH   5   6
ENDBRANCH   4   5
ENDBRANCH   3   4
ENDBRANCH   2   3
TORSDOF 11
ENDMDL
MODEL      229
REMARK 921   NORMALIZED FREE ENERGY PREDICTED BY IDOCK:   -4.00 KCAL/MOL
REMARK 922        TOTAL FREE ENERGY PREDICTED BY IDOCK:   -8.38 KCAL/MOL
REMARK 923 INTER-LIGAND FREE ENERGY PREDICTED BY IDOCK:   -7.06 KCAL/MOL
REMARK 924 INTRA-LIGAND FREE ENERGY PREDICTED BY IDOCK:   -1.33 KCAL/MOL
REMARK 927      BINDING AFFINITY PREDICTED BY RF-SCORE:    0.00 PKD
ROOT
HETATM    1  C   UNL     1     -10.694  16.607  67.839  1.00  0.00    -0.344 C  
HETATM    2  C   UNL     1     -10.250  16.772  66.397  1.00  0.00    -0.329 C  
ENDROOT
BRANCH   2   3
HETATM    3  C   UNL     1     -10.130  15.429  65.675  1.00  0.00    -0.406 C  
BRANCH   3   4
HETATM    4  C   UNL     1     -11.299  15.245  64.706  1.00  0.00    -0.396 C  
BRANCH   4   5
HETATM    5  C   UNL     1     -12.455  14.460  65.326  1.00  0.00    -0.359 C  
BRANCH   5   6
HETATM    6  C   UNL     1     -12.091  13.002  65.658  1.00  0.00    -0.454 C  
HETATM    7  O   UNL     1     -12.971  12.171  64.906  1.00  0.00    -0.524 OA 
HETATM    8  H   UNL     1     -12.745  11.271  65.111  1.00  0.00     0.000 HD 
BRANCH   6   9
HETATM    9  C   UNL     1     -12.189  12.688  67.137  1.00  0.00     0.010 C  
HETATM   10  C   UNL     1     -11.169  12.423  67.972  1.00  0.00    -0.317 C  
BRANCH  10  11
HETATM   11  C   UNL     1     -11.320  11.931  69.398  1.00  0.00    -0.327 C  
HETATM   12  C   UNL     1     -12.331  12.825  70.149  1.00  0.00    -0.165 C  
HETATM   13  O   UNL     1     -11.745  14.049  70.573  1.00  0.00    -0.436 OA 
HETATM   14  C   UNL     1     -12.791  12.011  71.338  1.00  0.00    -0.391 C  
HETATM   15  H   UNL     1     -12.368  14.599  71.035  1.00  0.00     0.000 HD 
HETATM   16  C   UNL     1     -12.767  10.627  70.771  1.00  0.00    -0.378 C  
HETATM   17  O   UNL     1     -13.395   9.704  71.277  1.00  0.00    -0.373 OA 
HETATM   18  C   UNL     1     -11.872  10.493  69.547  1.00  0.00    -0.287 C  
BRANCH  18  19
HETATM   19  C   UNL     1     -10.735   9.488  69.790  1.00  0.00    -0.259 C  
BRANCH  19  20
HETATM   20  C   UNL     1     -10.308   9.370  71.231  1.00  0.00    -0.363 C  
HETATM   21  C   UNL     1     -10.110   8.249  71.942  1.00  0.00    -0.314 C  
BRANCH  21  22
HETATM   22  C   UNL     1     -10.301   6.847  71.449  1.00  0.00    -0.219 C  
BRANCH  22  23
HETATM   23  C   UNL     1      -9.267   5.877  72.018  1.00  0.00    -0.154 C  
BRANCH  23  24
HETATM   24  C   UNL     1      -7.975   6.634  72.332  1.00  0.00    -0.099 C  
HETATM   25  C   UNL     1      -6.987   6.594  71.194  1.00  0.00    -0.071 C  
HETATM   26  O   UNL     1      -7.157   6.031  70.127  1.00  0.00    -0.066 OA 
HETATM   27  O   UNL     1      -5.851   7.270  71.489  1.00  0.00    -0.036 OA 
ENDBRANCH  23  24
ENDBRANCH  22  23
ENDBRANCH  21  22
ENDBRANCH  19  20
ENDBRANCH  18  19
ENDBRANCH  10  11
ENDBRANCH   6   9
ENDBRANCH   5   6
ENDBRANCH   4   5
ENDBRANCH   3   4
ENDBRANCH   2   3
TORSDOF 11
ENDMDL
MODEL      230
REMARK 921   NORMALIZED FREE ENERGY PREDICTED BY IDOCK:   -3.98 KCAL/MOL
REMARK 922        TOTAL FREE ENERGY PREDICTED BY IDOCK:   -8.36 KCAL/MOL
REMARK 923 INTER-LIGAND FREE ENERGY PREDICTED BY IDOCK:   -6.66 KCAL/MOL
REMARK 924 INTRA-LIGAND FREE ENERGY PREDICTED BY IDOCK:   -1.70 KCAL/MOL
REMARK 927      BINDING AFFINITY PREDICTED BY RF-SCORE:    0.00 PKD
ROOT
HETATM    1  C   UNL     1      -8.484  19.553  67.554  1.00  0.00    -0.339 C  
HETATM    2  C   UNL     1      -9.466  18.620  66.870  1.00  0.00    -0.310 C  
ENDROOT
BRANCH   2   3
HETATM    3  C   UNL     1     -10.346  17.875  67.875  1.00  0.00    -0.396 C  
BRANCH   3   4
HETATM    4  C   UNL     1      -9.890  16.420  67.998  1.00  0.00    -0.238 C  
BRANCH   4   5
HETATM    5  C   UNL     1      -8.767  16.243  69.021  1.00  0.00    -0.246 C  
BRANCH   5   6
HETATM    6  C   UNL     1      -7.592  15.401  68.493  1.00  0.00    -0.122 C  
HETATM    7  O   UNL     1      -7.042  16.104  67.382  1.00  0.00    -0.142 OA 
HETATM    8  H   UNL     1      -6.316  15.585  67.057  1.00  0.00     0.000 HD 
BRANCH   6   9
HETATM    9  C   UNL     1      -7.999  13.998  68.093  1.00  0.00    -0.149 C  
HETATM   10  C   UNL     1      -7.189  13.022  67.647  1.00  0.00    -0.151 C  
BRANCH  10  11
HETATM   11  C   UNL     1      -7.657  11.697  67.080  1.00  0.00    -0.152 C  
HETATM   12  C   UNL     1      -6.433  10.844  66.680  1.00  0.00    -0.120 C  
HETATM   13  O   UNL     1      -5.887  11.250  65.433  1.00  0.00    -0.461 OA 
HETATM   14  C   UNL     1      -6.935   9.419  66.607  1.00  0.00    -0.081 C  
HETATM   15  H   UNL     1      -5.134  10.725  65.188  1.00  0.00     0.000 HD 
HETATM   16  C   UNL     1      -7.963   9.414  67.694  1.00  0.00    -0.099 C  
HETATM   17  O   UNL     1      -8.362   8.376  68.209  1.00  0.00    -0.128 OA 
HETATM   18  C   UNL     1      -8.463  10.806  68.055  1.00  0.00    -0.124 C  
BRANCH  18  19
HETATM   19  C   UNL     1      -9.974  10.941  67.808  1.00  0.00    -0.198 C  
BRANCH  19  20
HETATM   20  C   UNL     1     -10.429  10.440  66.461  1.00  0.00    -0.262 C  
HETATM   21  C   UNL     1     -10.553  11.138  65.322  1.00  0.00    -0.303 C  
BRANCH  21  22
HETATM   22  C   UNL     1     -10.282  12.601  65.151  1.00  0.00    -0.300 C  
BRANCH  22  23
HETATM   23  C   UNL     1     -11.205  13.474  66.001  1.00  0.00    -0.305 C  
BRANCH  23  24
HETATM   24  C   UNL     1     -12.186  14.216  65.093  1.00  0.00    -0.439 C  
HETATM   25  C   UNL     1     -11.615  15.500  64.547  1.00  0.00    -0.283 C  
HETATM   26  O   UNL     1     -10.501  15.936  64.780  1.00  0.00    -0.538 OA 
HETATM   27  O   UNL     1     -12.496  16.143  63.744  1.00  0.00    -0.769 OA 
ENDBRANCH  23  24
ENDBRANCH  22  23
ENDBRANCH  21  22
ENDBRANCH  19  20
ENDBRANCH  18  19
ENDBRANCH  10  11
ENDBRANCH   6   9
ENDBRANCH   5   6
ENDBRANCH   4   5
ENDBRANCH   3   4
ENDBRANCH   2   3
TORSDOF 11
ENDMDL
MODEL      231
REMARK 921   NORMALIZED FREE ENERGY PREDICTED BY IDOCK:   -3.97 KCAL/MOL
REMARK 922        TOTAL FREE ENERGY PREDICTED BY IDOCK:   -8.34 KCAL/MOL
REMARK 923 INTER-LIGAND FREE ENERGY PREDICTED BY IDOCK:   -6.19 KCAL/MOL
REMARK 924 INTRA-LIGAND FREE ENERGY PREDICTED BY IDOCK:   -2.15 KCAL/MOL
REMARK 927      BINDING AFFINITY PREDICTED BY RF-SCORE:    0.00 PKD
ROOT
HETATM    1  C   UNL     1     -10.743  11.579  63.425  1.00  0.00    -0.444 C  
HETATM    2  C   UNL     1      -9.461  11.327  64.196  1.00  0.00    -0.200 C  
ENDROOT
BRANCH   2   3
HETATM    3  C   UNL     1      -8.718  10.090  63.688  1.00  0.00    -0.227 C  
BRANCH   3   4
HETATM    4  C   UNL     1      -7.947   9.430  64.833  1.00  0.00    -0.120 C  
BRANCH   4   5
HETATM    5  C   UNL     1      -6.833  10.324  65.380  1.00  0.00    -0.140 C  
BRANCH   5   6
HETATM    6  C   UNL     1      -7.001  10.659  66.873  1.00  0.00    -0.100 C  
HETATM    7  O   UNL     1      -7.433   9.466  67.521  1.00  0.00    -0.089 OA 
HETATM    8  H   UNL     1      -7.537   9.672  68.442  1.00  0.00     0.000 HD 
BRANCH   6   9
HETATM    9  C   UNL     1      -7.979  11.789  67.121  1.00  0.00    -0.166 C  
HETATM   10  C   UNL     1      -7.785  13.093  66.854  1.00  0.00     0.234 C  
BRANCH  10  11
HETATM   11  C   UNL     1      -8.709  14.214  67.288  1.00  0.00    -0.229 C  
HETATM   12  C   UNL     1      -7.898  15.287  68.045  1.00  0.00    -0.132 C  
HETATM   13  O   UNL     1      -7.636  14.907  69.389  1.00  0.00    -0.170 OA 
HETATM   14  C   UNL     1      -8.741  16.543  67.999  1.00  0.00    -0.189 C  
HETATM   15  H   UNL     1      -7.137  15.568  69.854  1.00  0.00     0.000 HD 
HETATM   16  C   UNL     1      -9.392  16.408  66.659  1.00  0.00    -0.259 C  
HETATM   17  O   UNL     1      -9.880  17.368  66.072  1.00  0.00    -0.448 OA 
HETATM   18  C   UNL     1      -9.408  14.978  66.138  1.00  0.00    -0.327 C  
BRANCH  18  19
HETATM   19  C   UNL     1     -10.844  14.472  65.932  1.00  0.00    -0.308 C  
BRANCH  19  20
HETATM   20  C   UNL     1     -11.718  14.565  67.156  1.00  0.00    -0.420 C  
HETATM   21  C   UNL     1     -12.158  13.562  67.932  1.00  0.00    -0.304 C  
BRANCH  21  22
HETATM   22  C   UNL     1     -11.887  12.104  67.725  1.00  0.00    -0.327 C  
BRANCH  22  23
HETATM   23  C   UNL     1     -11.584  11.371  69.031  1.00  0.00    -0.383 C  
BRANCH  23  24
HETATM   24  C   UNL     1     -12.379  12.007  70.171  1.00  0.00    -0.230 C  
HETATM   25  C   UNL     1     -12.614  11.057  71.318  1.00  0.00    -0.412 C  
HETATM   26  O   UNL     1     -12.232   9.901  71.370  1.00  0.00    -0.352 OA 
HETATM   27  O   UNL     1     -13.317  11.639  72.318  1.00  0.00    -0.443 OA 
ENDBRANCH  23  24
ENDBRANCH  22  23
ENDBRANCH  21  22
ENDBRANCH  19  20
ENDBRANCH  18  19
ENDBRANCH  10  11
ENDBRANCH   6   9
ENDBRANCH   5   6
ENDBRANCH   4   5
ENDBRANCH   3   4
ENDBRANCH   2   3
TORSDOF 11
ENDMDL
MODEL      232
REMARK 921   NORMALIZED FREE ENERGY PREDICTED BY IDOCK:   -3.96 KCAL/MOL
REMARK 922        TOTAL FREE ENERGY PREDICTED BY IDOCK:   -8.32 KCAL/MOL
REMARK 923 INTER-LIGAND FREE ENERGY PREDICTED BY IDOCK:   -6.99 KCAL/MOL
REMARK 924 INTRA-LIGAND FREE ENERGY PREDICTED BY IDOCK:   -1.33 KCAL/MOL
REMARK 927      BINDING AFFINITY PREDICTED BY RF-SCORE:    0.00 PKD
ROOT
HETATM    1  C   UNL     1      -7.579   7.364  69.237  1.00  0.00    -0.101 C  
HETATM    2  C   UNL     1      -7.803   7.770  67.792  1.00  0.00    -0.123 C  
ENDROOT
BRANCH   2   3
HETATM    3  C   UNL     1      -8.216   9.238  67.665  1.00  0.00    -0.115 C  
BRANCH   3   4
HETATM    4  C   UNL     1      -9.565   9.346  66.953  1.00  0.00    -0.217 C  
BRANCH   4   5
HETATM    5  C   UNL     1      -9.764  10.705  66.279  1.00  0.00    -0.245 C  
BRANCH   5   6
HETATM    6  C   UNL     1     -11.194  11.254  66.429  1.00  0.00    -0.121 C  
HETATM    7  O   UNL     1     -11.204  12.555  65.848  1.00  0.00    -0.294 OA 
HETATM    8  H   UNL     1     -12.086  12.894  65.941  1.00  0.00     0.000 HD 
BRANCH   6   9
HETATM    9  C   UNL     1     -11.661  11.306  67.870  1.00  0.00    -0.330 C  
HETATM   10  C   UNL     1     -10.906  11.572  68.951  1.00  0.00    -0.263 C  
BRANCH  10  11
HETATM   11  C   UNL     1     -11.368  11.430  70.387  1.00  0.00     0.020 C  
HETATM   12  C   UNL     1     -12.460  12.481  70.685  1.00  0.00    -0.238 C  
HETATM   13  O   UNL     1     -11.907  13.767  70.929  1.00  0.00    -0.497 OA 
HETATM   14  C   UNL     1     -13.193  11.972  71.906  1.00  0.00    -0.469 C  
HETATM   15  H   UNL     1     -12.579  14.413  71.113  1.00  0.00     0.000 HD 
HETATM   16  C   UNL     1     -13.129  10.493  71.691  1.00  0.00    -0.446 C  
HETATM   17  O   UNL     1     -13.895   9.719  72.253  1.00  0.00    -0.338 OA 
HETATM   18  C   UNL     1     -12.014  10.070  70.744  1.00  0.00    -0.426 C  
BRANCH  18  19
HETATM   19  C   UNL     1     -11.005   9.145  71.443  1.00  0.00    -0.414 C  
BRANCH  19  20
HETATM   20  C   UNL     1     -11.634   8.033  72.243  1.00  0.00    -0.424 C  
HETATM   21  C   UNL     1     -11.405   6.714  72.139  1.00  0.00    -0.309 C  
BRANCH  21  22
HETATM   22  C   UNL     1     -10.475   6.055  71.168  1.00  0.00    -0.284 C  
BRANCH  22  23
HETATM   23  C   UNL     1     -11.050   5.989  69.754  1.00  0.00    -0.476 C  
BRANCH  23  24
HETATM   24  C   UNL     1     -10.243   4.994  68.919  1.00  0.00    -0.184 C  
HETATM   25  C   UNL     1     -10.347   5.259  67.439  1.00  0.00    -0.180 C  
HETATM   26  O   UNL     1     -10.993   6.154  66.922  1.00  0.00    -0.343 OA 
HETATM   27  O   UNL     1      -9.624   4.370  66.716  1.00  0.00    -0.169 OA 
ENDBRANCH  23  24
ENDBRANCH  22  23
ENDBRANCH  21  22
ENDBRANCH  19  20
ENDBRANCH  18  19
ENDBRANCH  10  11
ENDBRANCH   6   9
ENDBRANCH   5   6
ENDBRANCH   4   5
ENDBRANCH   3   4
ENDBRANCH   2   3
TORSDOF 11
ENDMDL
MODEL      233
REMARK 921   NORMALIZED FREE ENERGY PREDICTED BY IDOCK:   -3.95 KCAL/MOL
REMARK 922        TOTAL FREE ENERGY PREDICTED BY IDOCK:   -8.30 KCAL/MOL
REMARK 923 INTER-LIGAND FREE ENERGY PREDICTED BY IDOCK:   -6.75 KCAL/MOL
REMARK 924 INTRA-LIGAND FREE ENERGY PREDICTED BY IDOCK:   -1.55 KCAL/MOL
REMARK 927      BINDING AFFINITY PREDICTED BY RF-SCORE:    0.00 PKD
ROOT
HETATM    1  C   UNL     1     -10.886   6.274  70.020  1.00  0.00    -0.387 C  
HETATM    2  C   UNL     1     -10.126   5.826  68.785  1.00  0.00    -0.231 C  
ENDROOT
BRANCH   2   3
HETATM    3  C   UNL     1     -10.821   6.260  67.493  1.00  0.00    -0.436 C  
BRANCH   3   4
HETATM    4  C   UNL     1     -10.578   7.748  67.238  1.00  0.00    -0.376 C  
BRANCH   4   5
HETATM    5  C   UNL     1      -9.784   8.000  65.955  1.00  0.00    -0.002 C  
BRANCH   5   6
HETATM    6  C   UNL     1      -9.637   9.493  65.615  1.00  0.00    -0.277 C  
HETATM    7  O   UNL     1      -8.950   9.572  64.369  1.00  0.00    -0.224 OA 
HETATM    8  H   UNL     1      -8.859  10.493  64.159  1.00  0.00     0.000 HD 
BRANCH   6   9
HETATM    9  C   UNL     1      -8.901  10.276  66.684  1.00  0.00    -0.148 C  
HETATM   10  C   UNL     1      -9.360  11.347  67.355  1.00  0.00    -0.171 C  
BRANCH  10  11
HETATM   11  C   UNL     1      -8.528  12.214  68.279  1.00  0.00    -0.176 C  
HETATM   12  C   UNL     1      -7.366  11.380  68.862  1.00  0.00    -0.114 C  
HETATM   13  O   UNL     1      -7.792  10.549  69.932  1.00  0.00    -0.342 OA 
HETATM   14  C   UNL     1      -6.342  12.386  69.340  1.00  0.00    -0.119 C  
HETATM   15  H   UNL     1      -7.077  10.036  70.291  1.00  0.00     0.000 HD 
HETATM   16  C   UNL     1      -6.506  13.474  68.326  1.00  0.00    -0.104 C  
HETATM   17  O   UNL     1      -5.639  14.318  68.129  1.00  0.00    -0.107 OA 
HETATM   18  C   UNL     1      -7.850  13.433  67.611  1.00  0.00    -0.174 C  
BRANCH  18  19
HETATM   19  C   UNL     1      -8.656  14.718  67.856  1.00  0.00    -0.166 C  
BRANCH  19  20
HETATM   20  C   UNL     1      -9.698  14.600  68.939  1.00  0.00    -0.196 C  
HETATM   21  C   UNL     1     -11.033  14.602  68.801  1.00  0.00    -0.268 C  
BRANCH  21  22
HETATM   22  C   UNL     1     -11.785  14.749  67.514  1.00  0.00    -0.370 C  
BRANCH  22  23
HETATM   23  C   UNL     1     -11.953  13.423  66.775  1.00  0.00    -0.447 C  
BRANCH  23  24
HETATM   24  C   UNL     1     -12.633  13.669  65.428  1.00  0.00    -0.533 C  
HETATM   25  C   UNL     1     -12.039  12.843  64.316  1.00  0.00    -0.419 C  
HETATM   26  O   UNL     1     -11.116  12.056  64.433  1.00  0.00    -0.310 OA 
HETATM   27  O   UNL     1     -12.656  13.073  63.133  1.00  0.00    -0.649 OA 
ENDBRANCH  23  24
ENDBRANCH  22  23
ENDBRANCH  21  22
ENDBRANCH  19  20
ENDBRANCH  18  19
ENDBRANCH  10  11
ENDBRANCH   6   9
ENDBRANCH   5   6
ENDBRANCH   4   5
ENDBRANCH   3   4
ENDBRANCH   2   3
TORSDOF 11
ENDMDL
MODEL      234
REMARK 921   NORMALIZED FREE ENERGY PREDICTED BY IDOCK:   -3.94 KCAL/MOL
REMARK 922        TOTAL FREE ENERGY PREDICTED BY IDOCK:   -8.30 KCAL/MOL
REMARK 923 INTER-LIGAND FREE ENERGY PREDICTED BY IDOCK:   -6.34 KCAL/MOL
REMARK 924 INTRA-LIGAND FREE ENERGY PREDICTED BY IDOCK:   -1.96 KCAL/MOL
REMARK 927      BINDING AFFINITY PREDICTED BY RF-SCORE:    0.00 PKD
ROOT
HETATM    1  C   UNL     1      -7.472   7.350  68.243  1.00  0.00    -0.109 C  
HETATM    2  C   UNL     1      -8.554   7.614  67.213  1.00  0.00    -0.121 C  
ENDROOT
BRANCH   2   3
HETATM    3  C   UNL     1      -8.734   9.108  66.938  1.00  0.00    -0.133 C  
BRANCH   3   4
HETATM    4  C   UNL     1     -10.116   9.371  66.338  1.00  0.00    -0.332 C  
BRANCH   4   5
HETATM    5  C   UNL     1     -10.158  10.651  65.503  1.00  0.00    -0.343 C  
BRANCH   5   6
HETATM    6  C   UNL     1     -11.131  11.707  66.057  1.00  0.00    -0.270 C  
HETATM    7  O   UNL     1     -10.496  12.975  65.915  1.00  0.00    -0.272 OA 
HETATM    8  H   UNL     1     -11.096  13.626  66.257  1.00  0.00     0.000 HD 
BRANCH   6   9
HETATM    9  C   UNL     1     -11.516  11.458  67.501  1.00  0.00    -0.336 C  
HETATM   10  C   UNL     1     -11.147  12.188  68.569  1.00  0.00    -0.295 C  
BRANCH  10  11
HETATM   11  C   UNL     1     -11.396  11.801  70.013  1.00  0.00    -0.130 C  
HETATM   12  C   UNL     1     -12.445  12.753  70.629  1.00  0.00    -0.246 C  
HETATM   13  O   UNL     1     -11.876  14.001  71.002  1.00  0.00    -0.477 OA 
HETATM   14  C   UNL     1     -12.991  12.029  71.840  1.00  0.00    -0.428 C  
HETATM   15  H   UNL     1     -12.522  14.586  71.381  1.00  0.00     0.000 HD 
HETATM   16  C   UNL     1     -12.943  10.608  71.377  1.00  0.00    -0.443 C  
HETATM   17  O   UNL     1     -13.613   9.728  71.906  1.00  0.00    -0.381 OA 
HETATM   18  C   UNL     1     -11.971  10.381  70.228  1.00  0.00    -0.387 C  
BRANCH  18  19
HETATM   19  C   UNL     1     -10.863   9.389  70.618  1.00  0.00    -0.346 C  
BRANCH  19  20
HETATM   20  C   UNL     1     -10.901   8.086  69.861  1.00  0.00    -0.217 C  
HETATM   21  C   UNL     1     -10.744   6.846  70.349  1.00  0.00    -0.278 C  
BRANCH  21  22
HETATM   22  C   UNL     1     -10.466   6.490  71.777  1.00  0.00    -0.239 C  
BRANCH  22  23
HETATM   23  C   UNL     1      -9.020   6.049  72.002  1.00  0.00    -0.140 C  
BRANCH  23  24
HETATM   24  C   UNL     1      -8.935   5.204  73.275  1.00  0.00    -0.120 C  
HETATM   25  C   UNL     1      -9.209   3.744  73.022  1.00  0.00    -0.102 C  
HETATM   26  O   UNL     1      -9.474   3.248  71.940  1.00  0.00    -0.118 OA 
HETATM   27  O   UNL     1      -9.127   3.012  74.159  1.00  0.00    -0.078 OA 
ENDBRANCH  23  24
ENDBRANCH  22  23
ENDBRANCH  21  22
ENDBRANCH  19  20
ENDBRANCH  18  19
ENDBRANCH  10  11
ENDBRANCH   6   9
ENDBRANCH   5   6
ENDBRANCH   4   5
ENDBRANCH   3   4
ENDBRANCH   2   3
TORSDOF 11
ENDMDL
MODEL      235
REMARK 921   NORMALIZED FREE ENERGY PREDICTED BY IDOCK:   -3.94 KCAL/MOL
REMARK 922        TOTAL FREE ENERGY PREDICTED BY IDOCK:   -8.29 KCAL/MOL
REMARK 923 INTER-LIGAND FREE ENERGY PREDICTED BY IDOCK:   -5.86 KCAL/MOL
REMARK 924 INTRA-LIGAND FREE ENERGY PREDICTED BY IDOCK:   -2.44 KCAL/MOL
REMARK 927      BINDING AFFINITY PREDICTED BY RF-SCORE:    0.00 PKD
ROOT
HETATM    1  C   UNL     1     -10.008   9.129  70.860  1.00  0.00    -0.357 C  
HETATM    2  C   UNL     1      -9.262   9.959  69.832  1.00  0.00    -0.245 C  
ENDROOT
BRANCH   2   3
HETATM    3  C   UNL     1      -8.073   9.204  69.237  1.00  0.00    -0.102 C  
BRANCH   3   4
HETATM    4  C   UNL     1      -6.826  10.090  69.246  1.00  0.00    -0.059 C  
BRANCH   4   5
HETATM    5  C   UNL     1      -6.269  10.331  67.843  1.00  0.00    -0.059 C  
BRANCH   5   6
HETATM    6  C   UNL     1      -7.216  11.146  66.944  1.00  0.00    -0.138 C  
HETATM    7  O   UNL     1      -6.686  11.093  65.623  1.00  0.00    -0.367 OA 
HETATM    8  H   UNL     1      -7.271  11.595  65.068  1.00  0.00     0.000 HD 
BRANCH   6   9
HETATM    9  C   UNL     1      -7.378  12.581  67.401  1.00  0.00    -0.147 C  
HETATM   10  C   UNL     1      -8.497  13.150  67.885  1.00  0.00    -0.181 C  
BRANCH  10  11
HETATM   11  C   UNL     1      -8.671  14.631  68.153  1.00  0.00    -0.168 C  
HETATM   12  C   UNL     1      -7.422  15.174  68.880  1.00  0.00    -0.143 C  
HETATM   13  O   UNL     1      -7.436  14.863  70.267  1.00  0.00    -0.272 OA 
HETATM   14  C   UNL     1      -7.445  16.672  68.667  1.00  0.00    -0.211 C  
HETATM   15  H   UNL     1      -6.667  15.198  70.714  1.00  0.00     0.000 HD 
HETATM   16  C   UNL     1      -8.039  16.763  67.297  1.00  0.00    -0.177 C  
HETATM   17  O   UNL     1      -7.915  17.762  66.598  1.00  0.00    -0.224 OA 
HETATM   18  C   UNL     1      -8.820  15.519  66.896  1.00  0.00    -0.284 C  
BRANCH  18  19
HETATM   19  C   UNL     1     -10.295  15.848  66.621  1.00  0.00    -0.302 C  
BRANCH  19  20
HETATM   20  C   UNL     1     -10.766  15.484  65.236  1.00  0.00    -0.440 C  
HETATM   21  C   UNL     1     -11.299  14.323  64.826  1.00  0.00    -0.382 C  
BRANCH  21  22
HETATM   22  C   UNL     1     -11.520  13.107  65.673  1.00  0.00    -0.351 C  
BRANCH  22  23
HETATM   23  C   UNL     1     -10.702  11.906  65.202  1.00  0.00    -0.339 C  
BRANCH  23  24
HETATM   24  C   UNL     1     -10.815  10.777  66.227  1.00  0.00    -0.143 C  
HETATM   25  C   UNL     1     -10.010   9.561  65.845  1.00  0.00    -0.272 C  
HETATM   26  O   UNL     1      -9.331   9.448  64.839  1.00  0.00    -0.242 OA 
HETATM   27  O   UNL     1     -10.121   8.573  66.765  1.00  0.00    -0.251 OA 
ENDBRANCH  23  24
ENDBRANCH  22  23
ENDBRANCH  21  22
ENDBRANCH  19  20
ENDBRANCH  18  19
ENDBRANCH  10  11
ENDBRANCH   6   9
ENDBRANCH   5   6
ENDBRANCH   4   5
ENDBRANCH   3   4
ENDBRANCH   2   3
TORSDOF 11
ENDMDL
MODEL      236
REMARK 921   NORMALIZED FREE ENERGY PREDICTED BY IDOCK:   -3.93 KCAL/MOL
REMARK 922        TOTAL FREE ENERGY PREDICTED BY IDOCK:   -8.28 KCAL/MOL
REMARK 923 INTER-LIGAND FREE ENERGY PREDICTED BY IDOCK:   -7.06 KCAL/MOL
REMARK 924 INTRA-LIGAND FREE ENERGY PREDICTED BY IDOCK:   -1.22 KCAL/MOL
REMARK 927      BINDING AFFINITY PREDICTED BY RF-SCORE:    0.00 PKD
ROOT
HETATM    1  C   UNL     1      -8.457   7.921  74.070  1.00  0.00    -0.321 C  
HETATM    2  C   UNL     1      -9.410   6.768  73.818  1.00  0.00    -0.203 C  
ENDROOT
BRANCH   2   3
HETATM    3  C   UNL     1      -9.086   6.028  72.519  1.00  0.00    -0.135 C  
BRANCH   3   4
HETATM    4  C   UNL     1     -10.235   6.184  71.522  1.00  0.00    -0.243 C  
BRANCH   4   5
HETATM    5  C   UNL     1      -9.981   7.298  70.506  1.00  0.00    -0.191 C  
BRANCH   5   6
HETATM    6  C   UNL     1     -10.789   8.577  70.792  1.00  0.00    -0.231 C  
HETATM    7  O   UNL     1     -12.123   8.170  71.086  1.00  0.00    -0.299 OA 
HETATM    8  H   UNL     1     -12.621   8.959  71.262  1.00  0.00     0.000 HD 
BRANCH   6   9
HETATM    9  C   UNL     1     -10.769   9.561  69.641  1.00  0.00    -0.257 C  
HETATM   10  C   UNL     1      -9.688  10.169  69.121  1.00  0.00    -0.225 C  
BRANCH  10  11
HETATM   11  C   UNL     1      -9.729  11.286  68.097  1.00  0.00    -0.188 C  
HETATM   12  C   UNL     1      -8.874  10.894  66.872  1.00  0.00    -0.142 C  
HETATM   13  O   UNL     1      -7.486  11.085  67.109  1.00  0.00    -0.105 OA 
HETATM   14  C   UNL     1      -9.351  11.781  65.742  1.00  0.00    -0.197 C  
HETATM   15  H   UNL     1      -6.961  10.844  66.355  1.00  0.00     0.000 HD 
HETATM   16  C   UNL     1     -10.807  11.907  66.065  1.00  0.00    -0.299 C  
HETATM   17  O   UNL     1     -11.633  12.245  65.225  1.00  0.00    -0.342 OA 
HETATM   18  C   UNL     1     -11.129  11.606  67.522  1.00  0.00    -0.333 C  
BRANCH  18  19
HETATM   19  C   UNL     1     -11.748  12.826  68.223  1.00  0.00    -0.388 C  
BRANCH  19  20
HETATM   20  C   UNL     1     -10.992  14.113  68.014  1.00  0.00    -0.269 C  
HETATM   21  C   UNL     1     -11.155  15.278  68.660  1.00  0.00    -0.282 C  
BRANCH  21  22
HETATM   22  C   UNL     1     -12.163  15.557  69.732  1.00  0.00    -0.328 C  
BRANCH  22  23
HETATM   23  C   UNL     1     -11.566  16.313  70.918  1.00  0.00    -0.321 C  
BRANCH  23  24
HETATM   24  C   UNL     1     -11.327  15.343  72.075  1.00  0.00    -0.466 C  
HETATM   25  C   UNL     1     -12.177  15.654  73.281  1.00  0.00    -0.506 C  
HETATM   26  O   UNL     1     -12.978  16.570  73.366  1.00  0.00    -0.328 OA 
HETATM   27  O   UNL     1     -11.954  14.784  74.294  1.00  0.00    -0.461 OA 
ENDBRANCH  23  24
ENDBRANCH  22  23
ENDBRANCH  21  22
ENDBRANCH  19  20
ENDBRANCH  18  19
ENDBRANCH  10  11
ENDBRANCH   6   9
ENDBRANCH   5   6
ENDBRANCH   4   5
ENDBRANCH   3   4
ENDBRANCH   2   3
TORSDOF 11
ENDMDL
MODEL      237
REMARK 921   NORMALIZED FREE ENERGY PREDICTED BY IDOCK:   -3.93 KCAL/MOL
REMARK 922        TOTAL FREE ENERGY PREDICTED BY IDOCK:   -8.27 KCAL/MOL
REMARK 923 INTER-LIGAND FREE ENERGY PREDICTED BY IDOCK:   -6.57 KCAL/MOL
REMARK 924 INTRA-LIGAND FREE ENERGY PREDICTED BY IDOCK:   -1.70 KCAL/MOL
REMARK 927      BINDING AFFINITY PREDICTED BY RF-SCORE:    0.00 PKD
ROOT
HETATM    1  C   UNL     1     -10.368  17.018  67.490  1.00  0.00    -0.329 C  
HETATM    2  C   UNL     1     -10.124  16.824  66.005  1.00  0.00    -0.350 C  
ENDROOT
BRANCH   2   3
HETATM    3  C   UNL     1     -10.302  15.365  65.580  1.00  0.00    -0.412 C  
BRANCH   3   4
HETATM    4  C   UNL     1     -11.411  15.254  64.531  1.00  0.00    -0.307 C  
BRANCH   4   5
HETATM    5  C   UNL     1     -12.542  14.324  64.972  1.00  0.00    -0.360 C  
BRANCH   5   6
HETATM    6  C   UNL     1     -12.077  12.878  65.221  1.00  0.00    -0.453 C  
HETATM    7  O   UNL     1     -13.060  12.020  64.647  1.00  0.00    -0.533 OA 
HETATM    8  H   UNL     1     -12.774  11.128  64.801  1.00  0.00     0.000 HD 
BRANCH   6   9
HETATM    9  C   UNL     1     -11.880  12.562  66.689  1.00  0.00    -0.422 C  
HETATM   10  C   UNL     1     -10.826  11.938  67.243  1.00  0.00    -0.294 C  
BRANCH  10  11
HETATM   11  C   UNL     1     -10.750  11.474  68.684  1.00  0.00    -0.242 C  
HETATM   12  C   UNL     1     -11.840  12.188  69.513  1.00  0.00    -0.321 C  
HETATM   13  O   UNL     1     -11.461  13.513  69.860  1.00  0.00    -0.436 OA 
HETATM   14  C   UNL     1     -12.027  11.342  70.754  1.00  0.00    -0.355 C  
HETATM   15  H   UNL     1     -12.132  13.952  70.371  1.00  0.00     0.000 HD 
HETATM   16  C   UNL     1     -11.791   9.969  70.210  1.00  0.00    -0.216 C  
HETATM   17  O   UNL     1     -12.184   8.963  70.789  1.00  0.00    -0.198 OA 
HETATM   18  C   UNL     1     -11.002   9.964  68.908  1.00  0.00    -0.214 C  
BRANCH  18  19
HETATM   19  C   UNL     1      -9.678   9.199  69.057  1.00  0.00    -0.166 C  
BRANCH  19  20
HETATM   20  C   UNL     1      -8.828   9.649  70.217  1.00  0.00    -0.253 C  
HETATM   21  C   UNL     1      -7.547  10.048  70.193  1.00  0.00    -0.168 C  
BRANCH  21  22
HETATM   22  C   UNL     1      -6.665  10.108  68.984  1.00  0.00    -0.054 C  
BRANCH  22  23
HETATM   23  C   UNL     1      -6.067  11.496  68.760  1.00  0.00    -0.049 C  
BRANCH  23  24
HETATM   24  C   UNL     1      -7.056  12.562  69.234  1.00  0.00     0.091 C  
HETATM   25  C   UNL     1      -7.106  13.757  68.317  1.00  0.00    -0.109 C  
HETATM   26  O   UNL     1      -6.448  13.900  67.301  1.00  0.00    -0.282 OA 
HETATM   27  O   UNL     1      -7.989  14.689  68.751  1.00  0.00    -0.141 OA 
ENDBRANCH  23  24
ENDBRANCH  22  23
ENDBRANCH  21  22
ENDBRANCH  19  20
ENDBRANCH  18  19
ENDBRANCH  10  11
ENDBRANCH   6   9
ENDBRANCH   5   6
ENDBRANCH   4   5
ENDBRANCH   3   4
ENDBRANCH   2   3
TORSDOF 11
ENDMDL
MODEL      238
REMARK 921   NORMALIZED FREE ENERGY PREDICTED BY IDOCK:   -3.93 KCAL/MOL
REMARK 922        TOTAL FREE ENERGY PREDICTED BY IDOCK:   -8.27 KCAL/MOL
REMARK 923 INTER-LIGAND FREE ENERGY PREDICTED BY IDOCK:   -7.01 KCAL/MOL
REMARK 924 INTRA-LIGAND FREE ENERGY PREDICTED BY IDOCK:   -1.26 KCAL/MOL
REMARK 927      BINDING AFFINITY PREDICTED BY RF-SCORE:    0.00 PKD
ROOT
HETATM    1  C   UNL     1      -8.553  19.095  68.323  1.00  0.00    -0.370 C  
HETATM    2  C   UNL     1      -8.796  17.773  67.617  1.00  0.00    -0.248 C  
ENDROOT
BRANCH   2   3
HETATM    3  C   UNL     1     -10.254  17.323  67.725  1.00  0.00    -0.332 C  
BRANCH   3   4
HETATM    4  C   UNL     1     -10.410  15.904  67.176  1.00  0.00    -0.300 C  
BRANCH   4   5
HETATM    5  C   UNL     1     -11.557  15.142  67.840  1.00  0.00    -0.326 C  
BRANCH   5   6
HETATM    6  C   UNL     1     -11.139  13.761  68.377  1.00  0.00    -0.263 C  
HETATM    7  O   UNL     1     -10.127  13.983  69.355  1.00  0.00    -0.420 OA 
HETATM    8  H   UNL     1      -9.869  13.131  69.686  1.00  0.00     0.000 HD 
BRANCH   6   9
HETATM    9  C   UNL     1     -10.641  12.829  67.291  1.00  0.00    -0.245 C  
HETATM   10  C   UNL     1     -11.360  12.325  66.272  1.00  0.00    -0.395 C  
BRANCH  10  11
HETATM   11  C   UNL     1     -10.877  11.251  65.318  1.00  0.00    -0.261 C  
HETATM   12  C   UNL     1     -11.035  11.745  63.863  1.00  0.00    -0.407 C  
HETATM   13  O   UNL     1     -12.375  11.630  63.405  1.00  0.00    -0.749 OA 
HETATM   14  C   UNL     1     -10.110  10.878  63.036  1.00  0.00    -0.251 C  
HETATM   15  H   UNL     1     -12.471  11.933  62.510  1.00  0.00     0.000 HD 
HETATM   16  C   UNL     1      -8.987  10.650  63.998  1.00  0.00    -0.196 C  
HETATM   17  O   UNL     1      -7.873  10.297  63.627  1.00  0.00    -0.157 OA 
HETATM   18  C   UNL     1      -9.384  10.869  65.451  1.00  0.00    -0.240 C  
BRANCH  18  19
HETATM   19  C   UNL     1      -9.213   9.586  66.279  1.00  0.00    -0.219 C  
BRANCH  19  20
HETATM   20  C   UNL     1     -10.506   8.980  66.759  1.00  0.00    -0.270 C  
HETATM   21  C   UNL     1     -10.783   7.681  66.957  1.00  0.00    -0.340 C  
BRANCH  21  22
HETATM   22  C   UNL     1      -9.851   6.534  66.714  1.00  0.00    -0.213 C  
BRANCH  22  23
HETATM   23  C   UNL     1      -8.928   6.265  67.902  1.00  0.00    -0.113 C  
BRANCH  23  24
HETATM   24  C   UNL     1      -9.557   5.208  68.810  1.00  0.00    -0.198 C  
HETATM   25  C   UNL     1     -10.055   5.782  70.112  1.00  0.00    -0.212 C  
HETATM   26  O   UNL     1      -9.981   6.952  70.446  1.00  0.00    -0.179 OA 
HETATM   27  O   UNL     1     -10.611   4.833  70.902  1.00  0.00    -0.105 OA 
ENDBRANCH  23  24
ENDBRANCH  22  23
ENDBRANCH  21  22
ENDBRANCH  19  20
ENDBRANCH  18  19
ENDBRANCH  10  11
ENDBRANCH   6   9
ENDBRANCH   5   6
ENDBRANCH   4   5
ENDBRANCH   3   4
ENDBRANCH   2   3
TORSDOF 11
ENDMDL
MODEL      239
REMARK 921   NORMALIZED FREE ENERGY PREDICTED BY IDOCK:   -3.93 KCAL/MOL
REMARK 922        TOTAL FREE ENERGY PREDICTED BY IDOCK:   -8.27 KCAL/MOL
REMARK 923 INTER-LIGAND FREE ENERGY PREDICTED BY IDOCK:   -7.07 KCAL/MOL
REMARK 924 INTRA-LIGAND FREE ENERGY PREDICTED BY IDOCK:   -1.20 KCAL/MOL
REMARK 927      BINDING AFFINITY PREDICTED BY RF-SCORE:    0.00 PKD
ROOT
HETATM    1  C   UNL     1      -8.061  14.000  67.310  1.00  0.00    -0.174 C  
HETATM    2  C   UNL     1      -8.021  14.368  68.782  1.00  0.00    -0.133 C  
ENDROOT
BRANCH   2   3
HETATM    3  C   UNL     1      -8.140  15.877  69.001  1.00  0.00    -0.229 C  
BRANCH   3   4
HETATM    4  C   UNL     1      -9.405  16.410  68.326  1.00  0.00    -0.210 C  
BRANCH   4   5
HETATM    5  C   UNL     1     -10.504  16.755  69.332  1.00  0.00    -0.312 C  
BRANCH   5   6
HETATM    6  C   UNL     1     -11.572  15.655  69.466  1.00  0.00    -0.357 C  
HETATM    7  O   UNL     1     -11.157  14.798  70.527  1.00  0.00    -0.440 OA 
HETATM    8  H   UNL     1     -11.816  14.120  70.610  1.00  0.00     0.000 HD 
BRANCH   6   9
HETATM    9  C   UNL     1     -11.776  14.867  68.189  1.00  0.00    -0.344 C  
HETATM   10  C   UNL     1     -11.995  13.544  68.086  1.00  0.00    -0.376 C  
BRANCH  10  11
HETATM   11  C   UNL     1     -12.006  12.765  66.786  1.00  0.00    -0.389 C  
HETATM   12  C   UNL     1     -12.150  13.742  65.599  1.00  0.00    -0.418 C  
HETATM   13  O   UNL     1     -13.493  14.170  65.422  1.00  0.00    -0.648 OA 
HETATM   14  C   UNL     1     -11.664  12.983  64.384  1.00  0.00    -0.426 C  
HETATM   15  H   UNL     1     -13.581  14.771  64.691  1.00  0.00     0.000 HD 
HETATM   16  C   UNL     1     -10.583  12.138  64.980  1.00  0.00    -0.291 C  
HETATM   17  O   UNL     1      -9.699  11.633  64.297  1.00  0.00    -0.230 OA 
HETATM   18  C   UNL     1     -10.721  11.958  66.486  1.00  0.00    -0.293 C  
BRANCH  18  19
HETATM   19  C   UNL     1     -10.898  10.477  66.859  1.00  0.00    -0.252 C  
BRANCH  19  20
HETATM   20  C   UNL     1      -9.827   9.568  66.314  1.00  0.00    -0.334 C  
HETATM   21  C   UNL     1      -9.667   8.255  66.543  1.00  0.00    -0.323 C  
BRANCH  21  22
HETATM   22  C   UNL     1     -10.525   7.404  67.428  1.00  0.00    -0.366 C  
BRANCH  22  23
HETATM   23  C   UNL     1     -10.074   5.944  67.457  1.00  0.00    -0.197 C  
BRANCH  23  24
HETATM   24  C   UNL     1      -8.854   5.804  68.368  1.00  0.00    -0.109 C  
HETATM   25  C   UNL     1      -7.624   5.347  67.626  1.00  0.00    -0.088 C  
HETATM   26  O   UNL     1      -7.565   5.102  66.434  1.00  0.00    -0.086 OA 
HETATM   27  O   UNL     1      -6.553   5.231  68.448  1.00  0.00    -0.045 OA 
ENDBRANCH  23  24
ENDBRANCH  22  23
ENDBRANCH  21  22
ENDBRANCH  19  20
ENDBRANCH  18  19
ENDBRANCH  10  11
ENDBRANCH   6   9
ENDBRANCH   5   6
ENDBRANCH   4   5
ENDBRANCH   3   4
ENDBRANCH   2   3
TORSDOF 11
ENDMDL
MODEL      240
REMARK 921   NORMALIZED FREE ENERGY PREDICTED BY IDOCK:   -3.93 KCAL/MOL
REMARK 922        TOTAL FREE ENERGY PREDICTED BY IDOCK:   -8.27 KCAL/MOL
REMARK 923 INTER-LIGAND FREE ENERGY PREDICTED BY IDOCK:   -6.98 KCAL/MOL
REMARK 924 INTRA-LIGAND FREE ENERGY PREDICTED BY IDOCK:   -1.29 KCAL/MOL
REMARK 927      BINDING AFFINITY PREDICTED BY RF-SCORE:    0.00 PKD
ROOT
HETATM    1  C   UNL     1     -10.606  17.144  67.522  1.00  0.00    -0.323 C  
HETATM    2  C   UNL     1      -9.875  17.015  66.198  1.00  0.00    -0.297 C  
ENDROOT
BRANCH   2   3
HETATM    3  C   UNL     1     -10.053  15.629  65.575  1.00  0.00    -0.395 C  
BRANCH   3   4
HETATM    4  C   UNL     1     -11.175  15.658  64.535  1.00  0.00    -0.337 C  
BRANCH   4   5
HETATM    5  C   UNL     1     -12.436  14.937  65.013  1.00  0.00    -0.052 C  
BRANCH   5   6
HETATM    6  C   UNL     1     -12.189  13.464  65.384  1.00  0.00    -0.452 C  
HETATM    7  O   UNL     1     -13.198  12.696  64.733  1.00  0.00    -0.846 OA 
HETATM    8  H   UNL     1     -13.046  11.787  64.961  1.00  0.00     0.000 HD 
BRANCH   6   9
HETATM    9  C   UNL     1     -12.208  13.217  66.879  1.00  0.00    -0.315 C  
HETATM   10  C   UNL     1     -11.147  12.965  67.666  1.00  0.00    -0.297 C  
BRANCH  10  11
HETATM   11  C   UNL     1     -11.226  12.539  69.118  1.00  0.00    -0.297 C  
HETATM   12  C   UNL     1     -12.281  13.396  69.851  1.00  0.00    -0.271 C  
HETATM   13  O   UNL     1     -11.777  14.679  70.196  1.00  0.00    -0.268 OA 
HETATM   14  C   UNL     1     -12.650  12.614  71.093  1.00  0.00    -0.354 C  
HETATM   15  H   UNL     1     -12.427  15.206  70.647  1.00  0.00     0.000 HD 
HETATM   16  C   UNL     1     -12.537  11.207  70.597  1.00  0.00    -0.318 C  
HETATM   17  O   UNL     1     -13.083  10.270  71.167  1.00  0.00    -0.374 OA 
HETATM   18  C   UNL     1     -11.665  11.074  69.356  1.00  0.00    -0.394 C  
BRANCH  18  19
HETATM   19  C   UNL     1     -10.452  10.168  69.617  1.00  0.00    -0.282 C  
BRANCH  19  20
HETATM   20  C   UNL     1      -9.141  10.730  69.130  1.00  0.00    -0.109 C  
HETATM   21  C   UNL     1      -8.058  10.054  68.718  1.00  0.00    -0.106 C  
BRANCH  21  22
HETATM   22  C   UNL     1      -7.912   8.563  68.678  1.00  0.00    -0.116 C  
BRANCH  22  23
HETATM   23  C   UNL     1      -8.779   7.916  67.599  1.00  0.00    -0.126 C  
BRANCH  23  24
HETATM   24  C   UNL     1      -8.786   6.399  67.790  1.00  0.00    -0.114 C  
HETATM   25  C   UNL     1      -9.881   5.934  68.715  1.00  0.00    -0.140 C  
HETATM   26  O   UNL     1     -10.692   6.653  69.273  1.00  0.00    -0.224 OA 
HETATM   27  O   UNL     1      -9.872   4.588  68.870  1.00  0.00    -0.168 OA 
ENDBRANCH  23  24
ENDBRANCH  22  23
ENDBRANCH  21  22
ENDBRANCH  19  20
ENDBRANCH  18  19
ENDBRANCH  10  11
ENDBRANCH   6   9
ENDBRANCH   5   6
ENDBRANCH   4   5
ENDBRANCH   3   4
ENDBRANCH   2   3
TORSDOF 11
ENDMDL
MODEL      241
REMARK 921   NORMALIZED FREE ENERGY PREDICTED BY IDOCK:   -3.93 KCAL/MOL
REMARK 922        TOTAL FREE ENERGY PREDICTED BY IDOCK:   -8.27 KCAL/MOL
REMARK 923 INTER-LIGAND FREE ENERGY PREDICTED BY IDOCK:   -7.25 KCAL/MOL
REMARK 924 INTRA-LIGAND FREE ENERGY PREDICTED BY IDOCK:   -1.02 KCAL/MOL
REMARK 927      BINDING AFFINITY PREDICTED BY RF-SCORE:    0.00 PKD
ROOT
HETATM    1  C   UNL     1      -7.865   4.628  65.889  1.00  0.00    -0.095 C  
HETATM    2  C   UNL     1      -7.554   6.113  65.838  1.00  0.00    -0.087 C  
ENDROOT
BRANCH   2   3
HETATM    3  C   UNL     1      -8.824   6.966  65.859  1.00  0.00    -0.125 C  
BRANCH   3   4
HETATM    4  C   UNL     1      -8.694   8.079  66.901  1.00  0.00    -0.136 C  
BRANCH   4   5
HETATM    5  C   UNL     1      -9.917   8.172  67.814  1.00  0.00    -0.230 C  
BRANCH   5   6
HETATM    6  C   UNL     1     -10.263   9.615  68.221  1.00  0.00    -0.186 C  
HETATM    7  O   UNL     1     -11.603   9.602  68.706  1.00  0.00    -0.433 OA 
HETATM    8  H   UNL     1     -11.816  10.492  68.958  1.00  0.00     0.000 HD 
BRANCH   6   9
HETATM    9  C   UNL     1     -10.113  10.604  67.084  1.00  0.00    -0.248 C  
HETATM   10  C   UNL     1     -10.953  11.609  66.776  1.00  0.00    -0.341 C  
BRANCH  10  11
HETATM   11  C   UNL     1     -10.869  12.457  65.523  1.00  0.00    -0.316 C  
HETATM   12  C   UNL     1     -11.656  11.774  64.383  1.00  0.00    -0.245 C  
HETATM   13  O   UNL     1     -10.918  10.717  63.786  1.00  0.00    -0.430 OA 
HETATM   14  C   UNL     1     -11.941  12.865  63.374  1.00  0.00    -0.612 C  
HETATM   15  H   UNL     1     -11.402  10.297  63.085  1.00  0.00     0.000 HD 
HETATM   16  C   UNL     1     -12.120  14.051  64.269  1.00  0.00    -0.445 C  
HETATM   17  O   UNL     1     -12.706  15.063  63.900  1.00  0.00    -0.775 OA 
HETATM   18  C   UNL     1     -11.481  13.873  65.639  1.00  0.00    -0.321 C  
BRANCH  18  19
HETATM   19  C   UNL     1     -10.392  14.928  65.892  1.00  0.00    -0.330 C  
BRANCH  19  20
HETATM   20  C   UNL     1     -10.558  15.696  67.177  1.00  0.00    -0.308 C  
HETATM   21  C   UNL     1     -10.019  16.881  67.504  1.00  0.00    -0.268 C  
BRANCH  21  22
HETATM   22  C   UNL     1      -9.099  17.696  66.648  1.00  0.00    -0.280 C  
BRANCH  22  23
HETATM   23  C   UNL     1      -7.684  17.123  66.595  1.00  0.00    -0.300 C  
BRANCH  23  24
HETATM   24  C   UNL     1      -7.047  17.201  67.983  1.00  0.00    -0.179 C  
HETATM   25  C   UNL     1      -5.922  16.214  68.164  1.00  0.00    -0.109 C  
HETATM   26  O   UNL     1      -5.533  15.422  67.324  1.00  0.00    -0.336 OA 
HETATM   27  O   UNL     1      -5.370  16.300  69.398  1.00  0.00    -0.112 OA 
ENDBRANCH  23  24
ENDBRANCH  22  23
ENDBRANCH  21  22
ENDBRANCH  19  20
ENDBRANCH  18  19
ENDBRANCH  10  11
ENDBRANCH   6   9
ENDBRANCH   5   6
ENDBRANCH   4   5
ENDBRANCH   3   4
ENDBRANCH   2   3
TORSDOF 11
ENDMDL
MODEL      242
REMARK 921   NORMALIZED FREE ENERGY PREDICTED BY IDOCK:   -3.92 KCAL/MOL
REMARK 922        TOTAL FREE ENERGY PREDICTED BY IDOCK:   -8.26 KCAL/MOL
REMARK 923 INTER-LIGAND FREE ENERGY PREDICTED BY IDOCK:   -6.77 KCAL/MOL
REMARK 924 INTRA-LIGAND FREE ENERGY PREDICTED BY IDOCK:   -1.49 KCAL/MOL
REMARK 927      BINDING AFFINITY PREDICTED BY RF-SCORE:    0.00 PKD
ROOT
HETATM    1  C   UNL     1     -10.556   7.389  70.003  1.00  0.00    -0.241 C  
HETATM    2  C   UNL     1      -9.681   7.115  68.794  1.00  0.00    -0.145 C  
ENDROOT
BRANCH   2   3
HETATM    3  C   UNL     1     -10.410   7.402  67.480  1.00  0.00    -0.320 C  
BRANCH   3   4
HETATM    4  C   UNL     1     -10.432   8.907  67.207  1.00  0.00    -0.348 C  
BRANCH   4   5
HETATM    5  C   UNL     1      -9.893   9.258  65.819  1.00  0.00    -0.302 C  
BRANCH   5   6
HETATM    6  C   UNL     1     -10.376  10.628  65.309  1.00  0.00    -0.251 C  
HETATM    7  O   UNL     1     -10.066  10.688  63.920  1.00  0.00    -0.328 OA 
HETATM    8  H   UNL     1     -10.363  11.533  63.605  1.00  0.00     0.000 HD 
BRANCH   6   9
HETATM    9  C   UNL     1      -9.748  11.791  66.050  1.00  0.00    -0.254 C  
HETATM   10  C   UNL     1     -10.391  12.846  66.581  1.00  0.00    -0.258 C  
BRANCH  10  11
HETATM   11  C   UNL     1      -9.714  14.079  67.147  1.00  0.00    -0.242 C  
HETATM   12  C   UNL     1      -8.226  13.770  67.422  1.00  0.00    -0.184 C  
HETATM   13  O   UNL     1      -8.048  13.046  68.632  1.00  0.00    -0.277 OA 
HETATM   14  C   UNL     1      -7.538  15.116  67.497  1.00  0.00    -0.216 C  
HETATM   15  H   UNL     1      -7.132  12.857  68.801  1.00  0.00     0.000 HD 
HETATM   16  C   UNL     1      -8.325  15.902  66.497  1.00  0.00    -0.295 C  
HETATM   17  O   UNL     1      -7.890  16.929  65.988  1.00  0.00    -0.376 OA 
HETATM   18  C   UNL     1      -9.701  15.314  66.216  1.00  0.00    -0.325 C  
BRANCH  18  19
HETATM   19  C   UNL     1     -10.819  16.300  66.590  1.00  0.00    -0.115 C  
BRANCH  19  20
HETATM   20  C   UNL     1     -11.239  16.245  68.036  1.00  0.00    -0.260 C  
HETATM   21  C   UNL     1     -10.821  17.026  69.045  1.00  0.00    -0.206 C  
BRANCH  21  22
HETATM   22  C   UNL     1      -9.810  18.126  68.947  1.00  0.00    -0.322 C  
BRANCH  22  23
HETATM   23  C   UNL     1     -10.379  19.394  68.315  1.00  0.00    -0.500 C  
BRANCH  23  24
HETATM   24  C   UNL     1      -9.315  20.049  67.433  1.00  0.00    -0.492 C  
HETATM   25  C   UNL     1      -9.578  19.852  65.961  1.00  0.00    -0.346 C  
HETATM   26  O   UNL     1     -10.520  19.243  65.484  1.00  0.00    -0.502 OA 
HETATM   27  O   UNL     1      -8.627  20.439  65.196  1.00  0.00     0.337 OA 
ENDBRANCH  23  24
ENDBRANCH  22  23
ENDBRANCH  21  22
ENDBRANCH  19  20
ENDBRANCH  18  19
ENDBRANCH  10  11
ENDBRANCH   6   9
ENDBRANCH   5   6
ENDBRANCH   4   5
ENDBRANCH   3   4
ENDBRANCH   2   3
TORSDOF 11
ENDMDL
MODEL      243
REMARK 921   NORMALIZED FREE ENERGY PREDICTED BY IDOCK:   -3.92 KCAL/MOL
REMARK 922        TOTAL FREE ENERGY PREDICTED BY IDOCK:   -8.26 KCAL/MOL
REMARK 923 INTER-LIGAND FREE ENERGY PREDICTED BY IDOCK:   -6.78 KCAL/MOL
REMARK 924 INTRA-LIGAND FREE ENERGY PREDICTED BY IDOCK:   -1.48 KCAL/MOL
REMARK 927      BINDING AFFINITY PREDICTED BY RF-SCORE:    0.00 PKD
ROOT
HETATM    1  C   UNL     1      -9.949   4.561  70.483  1.00  0.00    -0.278 C  
HETATM    2  C   UNL     1      -9.751   4.747  71.976  1.00  0.00    -0.217 C  
ENDROOT
BRANCH   2   3
HETATM    3  C   UNL     1     -10.586   5.905  72.526  1.00  0.00    -0.256 C  
BRANCH   3   4
HETATM    4  C   UNL     1      -9.915   6.497  73.766  1.00  0.00    -0.274 C  
BRANCH   4   5
HETATM    5  C   UNL     1      -8.982   7.661  73.428  1.00  0.00    -0.281 C  
BRANCH   5   6
HETATM    6  C   UNL     1      -9.158   8.182  71.990  1.00  0.00    -0.180 C  
HETATM    7  O   UNL     1      -7.919   8.770  71.606  1.00  0.00    -0.207 OA 
HETATM    8  H   UNL     1      -8.027   9.092  70.719  1.00  0.00     0.000 HD 
BRANCH   6   9
HETATM    9  C   UNL     1     -10.291   9.179  71.855  1.00  0.00    -0.243 C  
HETATM   10  C   UNL     1     -11.298   9.137  70.965  1.00  0.00    -0.377 C  
BRANCH  10  11
HETATM   11  C   UNL     1     -12.303  10.248  70.739  1.00  0.00    -0.445 C  
HETATM   12  C   UNL     1     -12.897  10.691  72.094  1.00  0.00    -0.137 C  
HETATM   13  O   UNL     1     -13.902   9.797  72.551  1.00  0.00    -0.642 OA 
HETATM   14  C   UNL     1     -13.474  12.069  71.855  1.00  0.00    -0.305 C  
HETATM   15  H   UNL     1     -14.267  10.071  73.385  1.00  0.00     0.000 HD 
HETATM   16  C   UNL     1     -12.511  12.619  70.851  1.00  0.00    -0.278 C  
HETATM   17  O   UNL     1     -12.399  13.823  70.647  1.00  0.00    -0.339 OA 
HETATM   18  C   UNL     1     -11.731  11.541  70.111  1.00  0.00    -0.395 C  
BRANCH  18  19
HETATM   19  C   UNL     1     -12.003  11.590  68.599  1.00  0.00    -0.312 C  
BRANCH  19  20
HETATM   20  C   UNL     1     -10.775  11.810  67.754  1.00  0.00    -0.244 C  
HETATM   21  C   UNL     1     -10.064  10.892  67.080  1.00  0.00    -0.244 C  
BRANCH  21  22
HETATM   22  C   UNL     1     -10.334   9.419  67.046  1.00  0.00    -0.322 C  
BRANCH  22  23
HETATM   23  C   UNL     1      -9.378   8.667  66.121  1.00  0.00    -0.291 C  
BRANCH  23  24
HETATM   24  C   UNL     1      -9.347   7.189  66.510  1.00  0.00    -0.208 C  
HETATM   25  C   UNL     1      -8.112   6.818  67.291  1.00  0.00    -0.118 C  
HETATM   26  O   UNL     1      -7.212   7.581  67.598  1.00  0.00    -0.085 OA 
HETATM   27  O   UNL     1      -8.103   5.507  67.628  1.00  0.00    -0.101 OA 
ENDBRANCH  23  24
ENDBRANCH  22  23
ENDBRANCH  21  22
ENDBRANCH  19  20
ENDBRANCH  18  19
ENDBRANCH  10  11
ENDBRANCH   6   9
ENDBRANCH   5   6
ENDBRANCH   4   5
ENDBRANCH   3   4
ENDBRANCH   2   3
TORSDOF 11
ENDMDL
MODEL      244
REMARK 921   NORMALIZED FREE ENERGY PREDICTED BY IDOCK:   -3.92 KCAL/MOL
REMARK 922        TOTAL FREE ENERGY PREDICTED BY IDOCK:   -8.26 KCAL/MOL
REMARK 923 INTER-LIGAND FREE ENERGY PREDICTED BY IDOCK:   -6.52 KCAL/MOL
REMARK 924 INTRA-LIGAND FREE ENERGY PREDICTED BY IDOCK:   -1.74 KCAL/MOL
REMARK 927      BINDING AFFINITY PREDICTED BY RF-SCORE:    0.00 PKD
ROOT
HETATM    1  C   UNL     1      -6.736   7.703  65.533  1.00  0.00    -0.045 C  
HETATM    2  C   UNL     1      -8.053   7.218  64.957  1.00  0.00    -0.120 C  
ENDROOT
BRANCH   2   3
HETATM    3  C   UNL     1      -7.854   6.121  63.910  1.00  0.00    -0.113 C  
BRANCH   3   4
HETATM    4  C   UNL     1      -8.921   5.037  64.072  1.00  0.00     0.019 C  
BRANCH   4   5
HETATM    5  C   UNL     1      -8.965   4.465  65.490  1.00  0.00    -0.135 C  
BRANCH   5   6
HETATM    6  C   UNL     1     -10.344   4.606  66.159  1.00  0.00    -0.275 C  
HETATM    7  O   UNL     1     -11.291   4.832  65.118  1.00  0.00    -0.881 OA 
HETATM    8  H   UNL     1     -12.142   4.918  65.531  1.00  0.00     0.000 HD 
BRANCH   6   9
HETATM    9  C   UNL     1     -10.396   5.721  67.183  1.00  0.00    -0.293 C  
HETATM   10  C   UNL     1     -11.009   6.910  67.048  1.00  0.00    -0.404 C  
BRANCH  10  11
HETATM   11  C   UNL     1     -10.880   8.068  68.016  1.00  0.00    -0.011 C  
HETATM   12  C   UNL     1     -10.551   7.528  69.425  1.00  0.00    -0.223 C  
HETATM   13  O   UNL     1     -11.705   7.029  70.087  1.00  0.00    -0.507 OA 
HETATM   14  C   UNL     1      -9.963   8.699  70.183  1.00  0.00    -0.193 C  
HETATM   15  H   UNL     1     -11.502   6.698  70.954  1.00  0.00     0.000 HD 
HETATM   16  C   UNL     1      -9.238   9.419  69.091  1.00  0.00    -0.155 C  
HETATM   17  O   UNL     1      -8.341  10.222  69.324  1.00  0.00    -0.141 OA 
HETATM   18  C   UNL     1      -9.749   9.074  67.699  1.00  0.00    -0.196 C  
BRANCH  18  19
HETATM   19  C   UNL     1     -10.298  10.316  66.980  1.00  0.00    -0.299 C  
BRANCH  19  20
HETATM   20  C   UNL     1     -11.532  10.906  67.613  1.00  0.00    -0.281 C  
HETATM   21  C   UNL     1     -11.773  12.194  67.902  1.00  0.00    -0.403 C  
BRANCH  21  22
HETATM   22  C   UNL     1     -10.835  13.339  67.673  1.00  0.00    -0.273 C  
BRANCH  22  23
HETATM   23  C   UNL     1     -11.565  14.637  67.329  1.00  0.00    -0.404 C  
BRANCH  23  24
HETATM   24  C   UNL     1     -10.543  15.733  67.025  1.00  0.00    -0.316 C  
HETATM   25  C   UNL     1     -10.306  16.649  68.199  1.00  0.00    -0.303 C  
HETATM   26  O   UNL     1     -10.849  16.562  69.287  1.00  0.00    -0.309 OA 
HETATM   27  O   UNL     1      -9.397  17.611  67.913  1.00  0.00    -0.258 OA 
ENDBRANCH  23  24
ENDBRANCH  22  23
ENDBRANCH  21  22
ENDBRANCH  19  20
ENDBRANCH  18  19
ENDBRANCH  10  11
ENDBRANCH   6   9
ENDBRANCH   5   6
ENDBRANCH   4   5
ENDBRANCH   3   4
ENDBRANCH   2   3
TORSDOF 11
ENDMDL
MODEL      245
REMARK 921   NORMALIZED FREE ENERGY PREDICTED BY IDOCK:   -3.92 KCAL/MOL
REMARK 922        TOTAL FREE ENERGY PREDICTED BY IDOCK:   -8.25 KCAL/MOL
REMARK 923 INTER-LIGAND FREE ENERGY PREDICTED BY IDOCK:   -7.24 KCAL/MOL
REMARK 924 INTRA-LIGAND FREE ENERGY PREDICTED BY IDOCK:   -1.01 KCAL/MOL
REMARK 927      BINDING AFFINITY PREDICTED BY RF-SCORE:    0.00 PKD
ROOT
HETATM    1  C   UNL     1      -6.108  20.246  70.420  1.00  0.00    -0.359 C  
HETATM    2  C   UNL     1      -5.748  18.873  69.884  1.00  0.00    -0.257 C  
ENDROOT
BRANCH   2   3
HETATM    3  C   UNL     1      -6.222  18.676  68.442  1.00  0.00    -0.217 C  
BRANCH   3   4
HETATM    4  C   UNL     1      -7.724  18.944  68.339  1.00  0.00    -0.351 C  
BRANCH   4   5
HETATM    5  C   UNL     1      -8.542  17.658  68.224  1.00  0.00    -0.268 C  
BRANCH   5   6
HETATM    6  C   UNL     1      -8.818  17.241  66.769  1.00  0.00    -0.247 C  
HETATM    7  O   UNL     1      -9.650  18.247  66.198  1.00  0.00    -0.454 OA 
HETATM    8  H   UNL     1      -9.820  17.990  65.300  1.00  0.00     0.000 HD 
BRANCH   6   9
HETATM    9  C   UNL     1      -9.468  15.878  66.655  1.00  0.00    -0.263 C  
HETATM   10  C   UNL     1      -9.951  15.308  65.536  1.00  0.00    -0.383 C  
BRANCH  10  11
HETATM   11  C   UNL     1     -10.761  14.027  65.495  1.00  0.00    -0.317 C  
HETATM   12  C   UNL     1     -12.238  14.340  65.819  1.00  0.00    -0.403 C  
HETATM   13  O   UNL     1     -12.454  14.499  67.215  1.00  0.00    -0.578 OA 
HETATM   14  C   UNL     1     -13.030  13.166  65.285  1.00  0.00    -0.159 C  
HETATM   15  H   UNL     1     -13.363  14.691  67.414  1.00  0.00     0.000 HD 
HETATM   16  C   UNL     1     -12.230  12.801  64.075  1.00  0.00    -0.441 C  
HETATM   17  O   UNL     1     -12.700  12.136  63.159  1.00  0.00    -0.621 OA 
HETATM   18  C   UNL     1     -10.795  13.310  64.125  1.00  0.00    -0.369 C  
BRANCH  18  19
HETATM   19  C   UNL     1      -9.788  12.151  64.082  1.00  0.00    -0.189 C  
BRANCH  19  20
HETATM   20  C   UNL     1     -10.270  10.883  64.740  1.00  0.00    -0.398 C  
HETATM   21  C   UNL     1      -9.995  10.443  65.978  1.00  0.00    -0.301 C  
BRANCH  21  22
HETATM   22  C   UNL     1      -9.112  11.121  66.979  1.00  0.00    -0.158 C  
BRANCH  22  23
HETATM   23  C   UNL     1      -9.434  10.717  68.417  1.00  0.00    -0.165 C  
BRANCH  23  24
HETATM   24  C   UNL     1      -8.148  10.707  69.246  1.00  0.00    -0.133 C  
HETATM   25  C   UNL     1      -7.405   9.399  69.152  1.00  0.00    -0.071 C  
HETATM   26  O   UNL     1      -7.756   8.430  68.501  1.00  0.00    -0.100 OA 
HETATM   27  O   UNL     1      -6.270   9.410  69.889  1.00  0.00    -0.037 OA 
ENDBRANCH  23  24
ENDBRANCH  22  23
ENDBRANCH  21  22
ENDBRANCH  19  20
ENDBRANCH  18  19
ENDBRANCH  10  11
ENDBRANCH   6   9
ENDBRANCH   5   6
ENDBRANCH   4   5
ENDBRANCH   3   4
ENDBRANCH   2   3
TORSDOF 11
ENDMDL
MODEL      246
REMARK 921   NORMALIZED FREE ENERGY PREDICTED BY IDOCK:   -3.92 KCAL/MOL
REMARK 922        TOTAL FREE ENERGY PREDICTED BY IDOCK:   -8.25 KCAL/MOL
REMARK 923 INTER-LIGAND FREE ENERGY PREDICTED BY IDOCK:   -6.84 KCAL/MOL
REMARK 924 INTRA-LIGAND FREE ENERGY PREDICTED BY IDOCK:   -1.41 KCAL/MOL
REMARK 927      BINDING AFFINITY PREDICTED BY RF-SCORE:    0.00 PKD
ROOT
HETATM    1  C   UNL     1     -12.362  14.167  70.703  1.00  0.00    -0.435 C  
HETATM    2  C   UNL     1     -11.208  14.606  69.821  1.00  0.00    -0.296 C  
ENDROOT
BRANCH   2   3
HETATM    3  C   UNL     1     -11.078  13.738  68.569  1.00  0.00    -0.292 C  
BRANCH   3   4
HETATM    4  C   UNL     1     -11.973  14.283  67.454  1.00  0.00    -0.426 C  
BRANCH   4   5
HETATM    5  C   UNL     1     -11.175  14.727  66.227  1.00  0.00    -0.343 C  
BRANCH   5   6
HETATM    6  C   UNL     1     -11.712  14.143  64.909  1.00  0.00    -0.392 C  
HETATM    7  O   UNL     1     -13.101  13.889  65.101  1.00  0.00    -0.773 OA 
HETATM    8  H   UNL     1     -13.432  13.528  64.287  1.00  0.00     0.000 HD 
BRANCH   6   9
HETATM    9  C   UNL     1     -10.989  12.882  64.481  1.00  0.00    -0.377 C  
HETATM   10  C   UNL     1     -10.674  11.832  65.260  1.00  0.00    -0.338 C  
BRANCH  10  11
HETATM   11  C   UNL     1      -9.789  10.675  64.841  1.00  0.00    -0.363 C  
HETATM   12  C   UNL     1      -9.351  10.866  63.372  1.00  0.00    -0.290 C  
HETATM   13  O   UNL     1     -10.372  10.489  62.459  1.00  0.00    -0.722 OA 
HETATM   14  C   UNL     1      -8.126   9.995  63.196  1.00  0.00    -0.156 C  
HETATM   15  H   UNL     1     -10.102  10.607  61.556  1.00  0.00     0.000 HD 
HETATM   16  C   UNL     1      -7.495  10.101  64.548  1.00  0.00    -0.127 C  
HETATM   17  O   UNL     1      -6.313   9.838  64.737  1.00  0.00    -0.084 OA 
HETATM   18  C   UNL     1      -8.470  10.529  65.636  1.00  0.00    -0.179 C  
BRANCH  18  19
HETATM   19  C   UNL     1      -8.598   9.456  66.728  1.00  0.00    -0.134 C  
BRANCH  19  20
HETATM   20  C   UNL     1      -9.492   8.300  66.360  1.00  0.00    -0.287 C  
HETATM   21  C   UNL     1      -9.128   7.062  65.992  1.00  0.00    -0.105 C  
BRANCH  21  22
HETATM   22  C   UNL     1      -7.723   6.565  65.841  1.00  0.00    -0.090 C  
BRANCH  22  23
HETATM   23  C   UNL     1      -7.657   5.067  65.548  1.00  0.00    -0.086 C  
BRANCH  23  24
HETATM   24  C   UNL     1      -8.316   4.780  64.198  1.00  0.00    -0.124 C  
HETATM   25  C   UNL     1      -9.617   4.030  64.334  1.00  0.00    -0.170 C  
HETATM   26  O   UNL     1     -10.122   3.671  65.383  1.00  0.00    -0.088 OA 
HETATM   27  O   UNL     1     -10.187   3.788  63.129  1.00  0.00    -0.168 OA 
ENDBRANCH  23  24
ENDBRANCH  22  23
ENDBRANCH  21  22
ENDBRANCH  19  20
ENDBRANCH  18  19
ENDBRANCH  10  11
ENDBRANCH   6   9
ENDBRANCH   5   6
ENDBRANCH   4   5
ENDBRANCH   3   4
ENDBRANCH   2   3
TORSDOF 11
ENDMDL
MODEL      247
REMARK 921   NORMALIZED FREE ENERGY PREDICTED BY IDOCK:   -3.91 KCAL/MOL
REMARK 922        TOTAL FREE ENERGY PREDICTED BY IDOCK:   -8.23 KCAL/MOL
REMARK 923 INTER-LIGAND FREE ENERGY PREDICTED BY IDOCK:   -6.69 KCAL/MOL
REMARK 924 INTRA-LIGAND FREE ENERGY PREDICTED BY IDOCK:   -1.54 KCAL/MOL
REMARK 927      BINDING AFFINITY PREDICTED BY RF-SCORE:    0.00 PKD
ROOT
HETATM    1  C   UNL     1      -9.201   8.885  70.884  1.00  0.00    -0.286 C  
HETATM    2  C   UNL     1      -8.781   9.948  69.887  1.00  0.00    -0.225 C  
ENDROOT
BRANCH   2   3
HETATM    3  C   UNL     1      -7.284   9.886  69.577  1.00  0.00    -0.095 C  
BRANCH   3   4
HETATM    4  C   UNL     1      -6.635  11.247  69.837  1.00  0.00    -0.108 C  
BRANCH   4   5
HETATM    5  C   UNL     1      -5.852  11.763  68.628  1.00  0.00    -0.049 C  
BRANCH   5   6
HETATM    6  C   UNL     1      -6.723  11.939  67.372  1.00  0.00    -0.126 C  
HETATM    7  O   UNL     1      -5.856  11.834  66.246  1.00  0.00    -0.476 OA 
HETATM    8  H   UNL     1      -6.393  11.943  65.470  1.00  0.00     0.000 HD 
BRANCH   6   9
HETATM    9  C   UNL     1      -7.473  13.255  67.350  1.00  0.00    -0.134 C  
HETATM   10  C   UNL     1      -8.656  13.516  67.934  1.00  0.00    -0.182 C  
BRANCH  10  11
HETATM   11  C   UNL     1      -9.462  14.783  67.733  1.00  0.00    -0.204 C  
HETATM   12  C   UNL     1      -8.991  15.859  68.736  1.00  0.00    -0.216 C  
HETATM   13  O   UNL     1      -9.534  15.652  70.033  1.00  0.00    -0.214 OA 
HETATM   14  C   UNL     1      -9.458  17.181  68.165  1.00  0.00    -0.269 C  
HETATM   15  H   UNL     1      -9.244  16.314  70.649  1.00  0.00     0.000 HD 
HETATM   16  C   UNL     1      -9.332  16.925  66.697  1.00  0.00    -0.258 C  
HETATM   17  O   UNL     1      -9.272  17.837  65.880  1.00  0.00    -0.519 OA 
HETATM   18  C   UNL     1      -9.321  15.445  66.342  1.00  0.00    -0.331 C  
BRANCH  18  19
HETATM   19  C   UNL     1     -10.504  15.077  65.432  1.00  0.00    -0.406 C  
BRANCH  19  20
HETATM   20  C   UNL     1     -10.286  13.839  64.601  1.00  0.00    -0.393 C  
HETATM   21  C   UNL     1     -11.008  12.707  64.605  1.00  0.00    -0.346 C  
BRANCH  21  22
HETATM   22  C   UNL     1     -12.193  12.421  65.475  1.00  0.00    -0.356 C  
BRANCH  22  23
HETATM   23  C   UNL     1     -12.102  13.108  66.837  1.00  0.00    -0.377 C  
BRANCH  23  24
HETATM   24  C   UNL     1     -11.952  12.052  67.933  1.00  0.00    -0.204 C  
HETATM   25  C   UNL     1     -12.017  12.640  69.319  1.00  0.00    -0.246 C  
HETATM   26  O   UNL     1     -12.168  13.821  69.583  1.00  0.00    -0.332 OA 
HETATM   27  O   UNL     1     -11.884  11.691  70.277  1.00  0.00    -0.340 OA 
ENDBRANCH  23  24
ENDBRANCH  22  23
ENDBRANCH  21  22
ENDBRANCH  19  20
ENDBRANCH  18  19
ENDBRANCH  10  11
ENDBRANCH   6   9
ENDBRANCH   5   6
ENDBRANCH   4   5
ENDBRANCH   3   4
ENDBRANCH   2   3
TORSDOF 11
ENDMDL
MODEL      248
REMARK 921   NORMALIZED FREE ENERGY PREDICTED BY IDOCK:   -3.90 KCAL/MOL
REMARK 922        TOTAL FREE ENERGY PREDICTED BY IDOCK:   -8.22 KCAL/MOL
REMARK 923 INTER-LIGAND FREE ENERGY PREDICTED BY IDOCK:   -6.41 KCAL/MOL
REMARK 924 INTRA-LIGAND FREE ENERGY PREDICTED BY IDOCK:   -1.81 KCAL/MOL
REMARK 927      BINDING AFFINITY PREDICTED BY RF-SCORE:    0.00 PKD
ROOT
HETATM    1  C   UNL     1      -8.824   5.829  65.903  1.00  0.00    -0.153 C  
HETATM    2  C   UNL     1      -9.638   7.108  65.958  1.00  0.00     0.092 C  
ENDROOT
BRANCH   2   3
HETATM    3  C   UNL     1     -10.416   7.239  67.268  1.00  0.00    -0.380 C  
BRANCH   3   4
HETATM    4  C   UNL     1      -9.835   8.374  68.115  1.00  0.00    -0.196 C  
BRANCH   4   5
HETATM    5  C   UNL     1     -10.874   9.446  68.449  1.00  0.00    -0.156 C  
BRANCH   5   6
HETATM    6  C   UNL     1     -10.272  10.677  69.148  1.00  0.00    -0.220 C  
HETATM    7  O   UNL     1     -10.493  10.513  70.546  1.00  0.00    -0.390 OA 
HETATM    8  H   UNL     1     -10.122  11.273  70.977  1.00  0.00     0.000 HD 
BRANCH   6   9
HETATM    9  C   UNL     1     -10.863  11.984  68.661  1.00  0.00    -0.273 C  
HETATM   10  C   UNL     1     -10.531  12.649  67.540  1.00  0.00    -0.229 C  
BRANCH  10  11
HETATM   11  C   UNL     1     -11.009  14.042  67.183  1.00  0.00    -0.303 C  
HETATM   12  C   UNL     1     -10.053  15.089  67.797  1.00  0.00    -0.234 C  
HETATM   13  O   UNL     1     -10.306  15.294  69.180  1.00  0.00    -0.226 OA 
HETATM   14  C   UNL     1     -10.287  16.363  67.015  1.00  0.00    -0.293 C  
HETATM   15  H   UNL     1      -9.718  15.938  69.557  1.00  0.00     0.000 HD 
HETATM   16  C   UNL     1     -10.584  15.819  65.653  1.00  0.00    -0.377 C  
HETATM   17  O   UNL     1     -10.488  16.506  64.643  1.00  0.00    -0.501 OA 
HETATM   18  C   UNL     1     -11.038  14.366  65.671  1.00  0.00    -0.321 C  
BRANCH  18  19
HETATM   19  C   UNL     1     -12.456  14.214  65.100  1.00  0.00    -0.453 C  
BRANCH  19  20
HETATM   20  C   UNL     1     -12.874  12.789  64.845  1.00  0.00    -0.357 C  
HETATM   21  C   UNL     1     -12.258  11.875  64.078  1.00  0.00    -0.444 C  
BRANCH  21  22
HETATM   22  C   UNL     1     -11.011  12.093  63.277  1.00  0.00    -0.398 C  
BRANCH  22  23
HETATM   23  C   UNL     1     -10.014  10.944  63.417  1.00  0.00    -0.414 C  
BRANCH  23  24
HETATM   24  C   UNL     1      -9.658  10.754  64.892  1.00  0.00    -0.307 C  
HETATM   25  C   UNL     1      -8.170  10.769  65.138  1.00  0.00    -0.034 C  
HETATM   26  O   UNL     1      -7.312  10.912  64.284  1.00  0.00     0.285 OA 
HETATM   27  O   UNL     1      -7.874  10.601  66.449  1.00  0.00    -0.131 OA 
ENDBRANCH  23  24
ENDBRANCH  22  23
ENDBRANCH  21  22
ENDBRANCH  19  20
ENDBRANCH  18  19
ENDBRANCH  10  11
ENDBRANCH   6   9
ENDBRANCH   5   6
ENDBRANCH   4   5
ENDBRANCH   3   4
ENDBRANCH   2   3
TORSDOF 11
ENDMDL
MODEL      249
REMARK 921   NORMALIZED FREE ENERGY PREDICTED BY IDOCK:   -3.89 KCAL/MOL
REMARK 922        TOTAL FREE ENERGY PREDICTED BY IDOCK:   -8.21 KCAL/MOL
REMARK 923 INTER-LIGAND FREE ENERGY PREDICTED BY IDOCK:   -7.40 KCAL/MOL
REMARK 924 INTRA-LIGAND FREE ENERGY PREDICTED BY IDOCK:   -0.81 KCAL/MOL
REMARK 927      BINDING AFFINITY PREDICTED BY RF-SCORE:    0.00 PKD
ROOT
HETATM    1  C   UNL     1      -5.407  19.962  65.188  1.00  0.00    -0.189 C  
HETATM    2  C   UNL     1      -6.246  19.691  66.423  1.00  0.00    -0.180 C  
ENDROOT
BRANCH   2   3
HETATM    3  C   UNL     1      -7.720  20.034  66.203  1.00  0.00    -0.320 C  
BRANCH   3   4
HETATM    4  C   UNL     1      -8.583  19.363  67.274  1.00  0.00    -0.329 C  
BRANCH   4   5
HETATM    5  C   UNL     1      -9.032  17.959  66.869  1.00  0.00    -0.265 C  
BRANCH   5   6
HETATM    6  C   UNL     1     -10.456  17.616  67.343  1.00  0.00    -0.356 C  
HETATM    7  O   UNL     1     -11.070  18.840  67.737  1.00  0.00    -0.259 OA 
HETATM    8  H   UNL     1     -11.948  18.628  68.029  1.00  0.00     0.000 HD 
BRANCH   6   9
HETATM    9  C   UNL     1     -10.477  16.614  68.479  1.00  0.00    -0.319 C  
HETATM   10  C   UNL     1     -11.565  16.042  69.026  1.00  0.00    -0.350 C  
BRANCH  10  11
HETATM   11  C   UNL     1     -11.559  15.191  70.280  1.00  0.00    -0.325 C  
HETATM   12  C   UNL     1     -12.392  15.886  71.379  1.00  0.00    -0.430 C  
HETATM   13  O   UNL     1     -11.667  16.930  72.015  1.00  0.00    -0.534 OA 
HETATM   14  C   UNL     1     -12.747  14.799  72.370  1.00  0.00    -0.432 C  
HETATM   15  H   UNL     1     -12.179  17.357  72.692  1.00  0.00     0.000 HD 
HETATM   16  C   UNL     1     -12.900  13.618  71.466  1.00  0.00    -0.359 C  
HETATM   17  O   UNL     1     -13.521  12.616  71.802  1.00  0.00    -0.379 OA 
HETATM   18  C   UNL     1     -12.189  13.786  70.130  1.00  0.00    -0.425 C  
BRANCH  18  19
HETATM   19  C   UNL     1     -11.107  12.713  69.932  1.00  0.00     0.253 C  
BRANCH  19  20
HETATM   20  C   UNL     1     -11.615  11.420  69.345  1.00  0.00    -0.391 C  
HETATM   21  C   UNL     1     -11.134  10.183  69.541  1.00  0.00    -0.295 C  
BRANCH  21  22
HETATM   22  C   UNL     1      -9.949   9.821  70.383  1.00  0.00    -0.294 C  
BRANCH  22  23
HETATM   23  C   UNL     1      -9.989   8.371  70.863  1.00  0.00    -0.230 C  
BRANCH  23  24
HETATM   24  C   UNL     1     -11.441   7.896  70.933  1.00  0.00    -0.294 C  
HETATM   25  C   UNL     1     -11.636   6.764  71.910  1.00  0.00    -0.292 C  
HETATM   26  O   UNL     1     -10.760   6.253  72.587  1.00  0.00    -0.211 OA 
HETATM   27  O   UNL     1     -12.927   6.359  71.961  1.00  0.00    -0.199 OA 
ENDBRANCH  23  24
ENDBRANCH  22  23
ENDBRANCH  21  22
ENDBRANCH  19  20
ENDBRANCH  18  19
ENDBRANCH  10  11
ENDBRANCH   6   9
ENDBRANCH   5   6
ENDBRANCH   4   5
ENDBRANCH   3   4
ENDBRANCH   2   3
TORSDOF 11
ENDMDL
MODEL      250
REMARK 921   NORMALIZED FREE ENERGY PREDICTED BY IDOCK:   -3.88 KCAL/MOL
REMARK 922        TOTAL FREE ENERGY PREDICTED BY IDOCK:   -8.19 KCAL/MOL
REMARK 923 INTER-LIGAND FREE ENERGY PREDICTED BY IDOCK:   -7.37 KCAL/MOL
REMARK 924 INTRA-LIGAND FREE ENERGY PREDICTED BY IDOCK:   -0.82 KCAL/MOL
REMARK 927      BINDING AFFINITY PREDICTED BY RF-SCORE:    0.00 PKD
ROOT
HETATM    1  C   UNL     1     -10.941   6.464  71.582  1.00  0.00    -0.302 C  
HETATM    2  C   UNL     1      -9.507   6.936  71.424  1.00  0.00    -0.160 C  
ENDROOT
BRANCH   2   3
HETATM    3  C   UNL     1      -9.286   8.320  72.037  1.00  0.00    -0.270 C  
BRANCH   3   4
HETATM    4  C   UNL     1      -8.975   9.339  70.939  1.00  0.00    -0.273 C  
BRANCH   4   5
HETATM    5  C   UNL     1     -10.170   9.589  70.018  1.00  0.00    -0.281 C  
BRANCH   5   6
HETATM    6  C   UNL     1      -9.922   9.141  68.567  1.00  0.00    -0.174 C  
HETATM    7  O   UNL     1      -8.512   9.027  68.401  1.00  0.00    -0.126 OA 
HETATM    8  H   UNL     1      -8.359   8.750  67.505  1.00  0.00     0.000 HD 
BRANCH   6   9
HETATM    9  C   UNL     1     -10.509  10.091  67.544  1.00  0.00    -0.307 C  
HETATM   10  C   UNL     1      -9.897  10.566  66.444  1.00  0.00    -0.260 C  
BRANCH  10  11
HETATM   11  C   UNL     1     -10.447  11.658  65.548  1.00  0.00    -0.321 C  
HETATM   12  C   UNL     1     -11.155  11.021  64.332  1.00  0.00     0.040 C  
HETATM   13  O   UNL     1     -10.230  10.596  63.341  1.00  0.00    -0.503 OA 
HETATM   14  C   UNL     1     -12.070  12.094  63.785  1.00  0.00    -0.620 C  
HETATM   15  H   UNL     1     -10.666  10.204  62.593  1.00  0.00     0.000 HD 
HETATM   16  C   UNL     1     -12.476  12.800  65.040  1.00  0.00    -0.506 C  
HETATM   17  O   UNL     1     -13.476  13.506  65.096  1.00  0.00    -0.458 OA 
HETATM   18  C   UNL     1     -11.513  12.573  66.197  1.00  0.00    -0.426 C  
BRANCH  18  19
HETATM   19  C   UNL     1     -10.890  13.893  66.677  1.00  0.00    -0.289 C  
BRANCH  19  20
HETATM   20  C   UNL     1      -9.963  14.540  65.681  1.00  0.00    -0.376 C  
HETATM   21  C   UNL     1      -9.054  15.502  65.907  1.00  0.00    -0.231 C  
BRANCH  21  22
HETATM   22  C   UNL     1      -8.783  16.167  67.221  1.00  0.00    -0.202 C  
BRANCH  22  23
HETATM   23  C   UNL     1      -9.721  17.343  67.490  1.00  0.00    -0.266 C  
BRANCH  23  24
HETATM   24  C   UNL     1     -10.942  16.855  68.270  1.00  0.00    -0.298 C  
HETATM   25  C   UNL     1     -10.570  16.145  69.547  1.00  0.00    -0.306 C  
HETATM   26  O   UNL     1      -9.435  15.956  69.948  1.00  0.00    -0.144 OA 
HETATM   27  O   UNL     1     -11.664  15.722  70.225  1.00  0.00    -0.315 OA 
ENDBRANCH  23  24
ENDBRANCH  22  23
ENDBRANCH  21  22
ENDBRANCH  19  20
ENDBRANCH  18  19
ENDBRANCH  10  11
ENDBRANCH   6   9
ENDBRANCH   5   6
ENDBRANCH   4   5
ENDBRANCH   3   4
ENDBRANCH   2   3
TORSDOF 11
ENDMDL
MODEL      251
REMARK 921   NORMALIZED FREE ENERGY PREDICTED BY IDOCK:   -3.88 KCAL/MOL
REMARK 922        TOTAL FREE ENERGY PREDICTED BY IDOCK:   -8.19 KCAL/MOL
REMARK 923 INTER-LIGAND FREE ENERGY PREDICTED BY IDOCK:   -6.02 KCAL/MOL
REMARK 924 INTRA-LIGAND FREE ENERGY PREDICTED BY IDOCK:   -2.17 KCAL/MOL
REMARK 927      BINDING AFFINITY PREDICTED BY RF-SCORE:    0.00 PKD
ROOT
HETATM    1  C   UNL     1      -7.242   9.369  64.767  1.00  0.00    -0.106 C  
HETATM    2  C   UNL     1      -5.808   9.227  65.244  1.00  0.00    -0.061 C  
ENDROOT
BRANCH   2   3
HETATM    3  C   UNL     1      -5.544  10.031  66.518  1.00  0.00    -0.046 C  
BRANCH   3   4
HETATM    4  C   UNL     1      -6.072  11.458  66.360  1.00  0.00    -0.085 C  
BRANCH   4   5
HETATM    5  C   UNL     1      -5.982  12.263  67.657  1.00  0.00    -0.119 C  
BRANCH   5   6
HETATM    6  C   UNL     1      -7.332  12.399  68.383  1.00  0.00    -0.113 C  
HETATM    7  O   UNL     1      -8.295  11.688  67.609  1.00  0.00    -0.131 OA 
HETATM    8  H   UNL     1      -9.128  11.772  68.057  1.00  0.00     0.000 HD 
BRANCH   6   9
HETATM    9  C   UNL     1      -7.758  13.839  68.579  1.00  0.00    -0.138 C  
HETATM   10  C   UNL     1      -8.436  14.603  67.704  1.00  0.00    -0.187 C  
BRANCH  10  11
HETATM   11  C   UNL     1      -8.679  16.091  67.858  1.00  0.00    -0.165 C  
HETATM   12  C   UNL     1      -7.542  16.875  67.167  1.00  0.00    -0.179 C  
HETATM   13  O   UNL     1      -6.369  16.926  67.966  1.00  0.00    -0.137 OA 
HETATM   14  C   UNL     1      -8.090  18.265  66.930  1.00  0.00    -0.259 C  
HETATM   15  H   UNL     1      -5.669  17.408  67.541  1.00  0.00     0.000 HD 
HETATM   16  C   UNL     1      -9.532  17.970  66.665  1.00  0.00    -0.297 C  
HETATM   17  O   UNL     1     -10.264  18.764  66.087  1.00  0.00    -0.402 OA 
HETATM   18  C   UNL     1      -9.980  16.621  67.210  1.00  0.00    -0.270 C  
BRANCH  18  19
HETATM   19  C   UNL     1     -11.094  16.780  68.257  1.00  0.00    -0.259 C  
BRANCH  19  20
HETATM   20  C   UNL     1     -10.676  16.442  69.665  1.00  0.00    -0.337 C  
HETATM   21  C   UNL     1     -11.078  15.404  70.415  1.00  0.00    -0.351 C  
BRANCH  21  22
HETATM   22  C   UNL     1     -12.066  14.354  70.011  1.00  0.00    -0.401 C  
BRANCH  22  23
HETATM   23  C   UNL     1     -11.460  13.301  69.084  1.00  0.00    -0.357 C  
BRANCH  23  24
HETATM   24  C   UNL     1     -12.046  13.458  67.680  1.00  0.00    -0.311 C  
HETATM   25  C   UNL     1     -11.848  12.231  66.827  1.00  0.00    -0.277 C  
HETATM   26  O   UNL     1     -11.287  11.207  67.177  1.00  0.00    -0.395 OA 
HETATM   27  O   UNL     1     -12.374  12.388  65.588  1.00  0.00    -0.639 OA 
ENDBRANCH  23  24
ENDBRANCH  22  23
ENDBRANCH  21  22
ENDBRANCH  19  20
ENDBRANCH  18  19
ENDBRANCH  10  11
ENDBRANCH   6   9
ENDBRANCH   5   6
ENDBRANCH   4   5
ENDBRANCH   3   4
ENDBRANCH   2   3
TORSDOF 11
ENDMDL
MODEL      252
REMARK 921   NORMALIZED FREE ENERGY PREDICTED BY IDOCK:   -3.87 KCAL/MOL
REMARK 922        TOTAL FREE ENERGY PREDICTED BY IDOCK:   -8.17 KCAL/MOL
REMARK 923 INTER-LIGAND FREE ENERGY PREDICTED BY IDOCK:   -6.24 KCAL/MOL
REMARK 924 INTRA-LIGAND FREE ENERGY PREDICTED BY IDOCK:   -1.93 KCAL/MOL
REMARK 927      BINDING AFFINITY PREDICTED BY RF-SCORE:    0.00 PKD
ROOT
HETATM    1  C   UNL     1     -12.448  14.215  65.252  1.00  0.00    -0.474 C  
HETATM    2  C   UNL     1     -12.514  12.740  64.903  1.00  0.00    -0.563 C  
ENDROOT
BRANCH   2   3
HETATM    3  C   UNL     1     -11.983  12.457  63.497  1.00  0.00    -0.627 C  
BRANCH   3   4
HETATM    4  C   UNL     1     -10.640  11.729  63.576  1.00  0.00    -0.499 C  
BRANCH   4   5
HETATM    5  C   UNL     1     -10.382  11.126  64.958  1.00  0.00    -0.362 C  
BRANCH   5   6
HETATM    6  C   UNL     1      -9.312  10.019  64.947  1.00  0.00    -0.266 C  
HETATM    7  O   UNL     1      -9.954   8.816  65.358  1.00  0.00    -0.323 OA 
HETATM    8  H   UNL     1      -9.295   8.133  65.351  1.00  0.00     0.000 HD 
BRANCH   6   9
HETATM    9  C   UNL     1      -8.129  10.329  65.841  1.00  0.00    -0.143 C  
HETATM   10  C   UNL     1      -8.158  10.991  67.012  1.00  0.00    -0.136 C  
BRANCH  10  11
HETATM   11  C   UNL     1      -6.933  11.444  67.782  1.00  0.00    -0.076 C  
HETATM   12  C   UNL     1      -7.050  12.952  68.096  1.00  0.00    -0.108 C  
HETATM   13  O   UNL     1      -6.712  13.756  66.975  1.00  0.00    -0.398 OA 
HETATM   14  C   UNL     1      -6.095  13.204  69.243  1.00  0.00    -0.098 C  
HETATM   15  H   UNL     1      -6.783  14.684  67.169  1.00  0.00     0.000 HD 
HETATM   16  C   UNL     1      -6.202  11.918  70.000  1.00  0.00    -0.123 C  
HETATM   17  O   UNL     1      -5.869  11.824  71.176  1.00  0.00    -0.381 OA 
HETATM   18  C   UNL     1      -6.726  10.764  69.156  1.00  0.00    -0.074 C  
BRANCH  18  19
HETATM   19  C   UNL     1      -5.698   9.626  69.061  1.00  0.00    -0.035 C  
BRANCH  19  20
HETATM   20  C   UNL     1      -6.265   8.315  68.579  1.00  0.00    -0.053 C  
HETATM   21  C   UNL     1      -7.230   7.577  69.149  1.00  0.00    -0.084 C  
BRANCH  21  22
HETATM   22  C   UNL     1      -7.945   7.894  70.427  1.00  0.00    -0.097 C  
BRANCH  22  23
HETATM   23  C   UNL     1      -9.441   8.122  70.222  1.00  0.00    -0.170 C  
BRANCH  23  24
HETATM   24  C   UNL     1      -9.787   7.950  68.742  1.00  0.00    -0.171 C  
HETATM   25  C   UNL     1     -10.856   6.912  68.511  1.00  0.00    -0.180 C  
HETATM   26  O   UNL     1     -11.407   6.257  69.379  1.00  0.00    -0.412 OA 
HETATM   27  O   UNL     1     -11.150   6.776  67.196  1.00  0.00    -0.384 OA 
ENDBRANCH  23  24
ENDBRANCH  22  23
ENDBRANCH  21  22
ENDBRANCH  19  20
ENDBRANCH  18  19
ENDBRANCH  10  11
ENDBRANCH   6   9
ENDBRANCH   5   6
ENDBRANCH   4   5
ENDBRANCH   3   4
ENDBRANCH   2   3
TORSDOF 11
ENDMDL
MODEL      253
REMARK 921   NORMALIZED FREE ENERGY PREDICTED BY IDOCK:   -3.85 KCAL/MOL
REMARK 922        TOTAL FREE ENERGY PREDICTED BY IDOCK:   -8.14 KCAL/MOL
REMARK 923 INTER-LIGAND FREE ENERGY PREDICTED BY IDOCK:   -6.03 KCAL/MOL
REMARK 924 INTRA-LIGAND FREE ENERGY PREDICTED BY IDOCK:   -2.11 KCAL/MOL
REMARK 927      BINDING AFFINITY PREDICTED BY RF-SCORE:    0.00 PKD
ROOT
HETATM    1  C   UNL     1      -8.057   3.384  71.147  1.00  0.00    -0.067 C  
HETATM    2  C   UNL     1      -9.542   3.520  70.861  1.00  0.00    -0.242 C  
ENDROOT
BRANCH   2   3
HETATM    3  C   UNL     1     -10.158   4.718  71.586  1.00  0.00    -0.264 C  
BRANCH   3   4
HETATM    4  C   UNL     1      -9.423   4.974  72.902  1.00  0.00    -0.153 C  
BRANCH   4   5
HETATM    5  C   UNL     1      -8.675   6.308  72.905  1.00  0.00    -0.125 C  
BRANCH   5   6
HETATM    6  C   UNL     1      -9.544   7.491  73.367  1.00  0.00    -0.270 C  
HETATM    7  O   UNL     1     -10.704   6.940  73.984  1.00  0.00    -0.486 OA 
HETATM    8  H   UNL     1     -11.240   7.671  74.269  1.00  0.00     0.000 HD 
BRANCH   6   9
HETATM    9  C   UNL     1      -9.928   8.421  72.235  1.00  0.00    -0.383 C  
HETATM   10  C   UNL     1     -10.986   8.295  71.414  1.00  0.00    -0.301 C  
BRANCH  10  11
HETATM   11  C   UNL     1     -11.232   9.138  70.179  1.00  0.00    -0.211 C  
HETATM   12  C   UNL     1     -12.095  10.362  70.553  1.00  0.00    -0.332 C  
HETATM   13  O   UNL     1     -13.471  10.027  70.667  1.00  0.00    -0.582 OA 
HETATM   14  C   UNL     1     -11.880  11.368  69.443  1.00  0.00    -0.419 C  
HETATM   15  H   UNL     1     -14.002  10.781  70.897  1.00  0.00     0.000 HD 
HETATM   16  C   UNL     1     -10.451  11.106  69.085  1.00  0.00    -0.182 C  
HETATM   17  O   UNL     1      -9.770  11.926  68.481  1.00  0.00    -0.205 OA 
HETATM   18  C   UNL     1      -9.964   9.729  69.518  1.00  0.00    -0.230 C  
BRANCH  18  19
HETATM   19  C   UNL     1      -9.524   8.885  68.311  1.00  0.00    -0.150 C  
BRANCH  19  20
HETATM   20  C   UNL     1      -8.694   7.679  68.668  1.00  0.00    -0.128 C  
HETATM   21  C   UNL     1      -9.036   6.385  68.566  1.00  0.00    -0.125 C  
BRANCH  21  22
HETATM   22  C   UNL     1     -10.354   5.856  68.089  1.00  0.00    -0.259 C  
BRANCH  22  23
HETATM   23  C   UNL     1     -10.341   5.499  66.604  1.00  0.00    -0.322 C  
BRANCH  23  24
HETATM   24  C   UNL     1      -9.741   4.105  66.418  1.00  0.00    -0.223 C  
HETATM   25  C   UNL     1      -9.298   3.847  65.000  1.00  0.00    -0.158 C  
HETATM   26  O   UNL     1      -9.392   4.634  64.074  1.00  0.00    -0.115 OA 
HETATM   27  O   UNL     1      -8.767   2.610  64.855  1.00  0.00    -0.102 OA 
ENDBRANCH  23  24
ENDBRANCH  22  23
ENDBRANCH  21  22
ENDBRANCH  19  20
ENDBRANCH  18  19
ENDBRANCH  10  11
ENDBRANCH   6   9
ENDBRANCH   5   6
ENDBRANCH   4   5
ENDBRANCH   3   4
ENDBRANCH   2   3
TORSDOF 11
ENDMDL
MODEL      254
REMARK 921   NORMALIZED FREE ENERGY PREDICTED BY IDOCK:   -3.82 KCAL/MOL
REMARK 922        TOTAL FREE ENERGY PREDICTED BY IDOCK:   -8.09 KCAL/MOL
REMARK 923 INTER-LIGAND FREE ENERGY PREDICTED BY IDOCK:   -6.82 KCAL/MOL
REMARK 924 INTRA-LIGAND FREE ENERGY PREDICTED BY IDOCK:   -1.27 KCAL/MOL
REMARK 927      BINDING AFFINITY PREDICTED BY RF-SCORE:    0.00 PKD
ROOT
HETATM    1  C   UNL     1      -9.829   8.381  66.314  1.00  0.00    -0.257 C  
HETATM    2  C   UNL     1      -9.587   7.087  67.070  1.00  0.00    -0.199 C  
ENDROOT
BRANCH   2   3
HETATM    3  C   UNL     1     -10.469   6.976  68.315  1.00  0.00    -0.237 C  
BRANCH   3   4
HETATM    4  C   UNL     1      -9.607   6.699  69.548  1.00  0.00    -0.150 C  
BRANCH   4   5
HETATM    5  C   UNL     1      -9.131   7.982  70.231  1.00  0.00    -0.148 C  
BRANCH   5   6
HETATM    6  C   UNL     1      -9.927   8.325  71.502  1.00  0.00    -0.199 C  
HETATM    7  O   UNL     1     -10.399   7.095  72.043  1.00  0.00    -0.191 OA 
HETATM    8  H   UNL     1     -10.891   7.307  72.828  1.00  0.00     0.000 HD 
BRANCH   6   9
HETATM    9  C   UNL     1     -11.079   9.275  71.242  1.00  0.00    -0.427 C  
HETATM   10  C   UNL     1     -11.062  10.361  70.449  1.00  0.00    -0.371 C  
BRANCH  10  11
HETATM   11  C   UNL     1     -12.173  11.389  70.362  1.00  0.00    -0.450 C  
HETATM   12  C   UNL     1     -12.697  11.704  71.780  1.00  0.00    -0.217 C  
HETATM   13  O   UNL     1     -13.584  10.701  72.254  1.00  0.00    -0.542 OA 
HETATM   14  C   UNL     1     -13.406  13.036  71.665  1.00  0.00    -0.379 C  
HETATM   15  H   UNL     1     -13.907  10.896  73.127  1.00  0.00     0.000 HD 
HETATM   16  C   UNL     1     -12.573  13.723  70.630  1.00  0.00    -0.315 C  
HETATM   17  O   UNL     1     -12.580  14.940  70.490  1.00  0.00    -0.333 OA 
HETATM   18  C   UNL     1     -11.763  12.759  69.773  1.00  0.00    -0.352 C  
BRANCH  18  19
HETATM   19  C   UNL     1     -12.153  12.863  68.290  1.00  0.00    -0.173 C  
BRANCH  19  20
HETATM   20  C   UNL     1     -11.441  11.886  67.391  1.00  0.00    -0.393 C  
HETATM   21  C   UNL     1     -10.176  11.949  66.944  1.00  0.00    -0.233 C  
BRANCH  21  22
HETATM   22  C   UNL     1      -9.193  13.041  67.232  1.00  0.00    -0.213 C  
BRANCH  22  23
HETATM   23  C   UNL     1      -9.269  14.183  66.220  1.00  0.00    -0.152 C  
BRANCH  23  24
HETATM   24  C   UNL     1      -9.119  15.521  66.945  1.00  0.00    -0.264 C  
HETATM   25  C   UNL     1      -7.700  15.795  67.373  1.00  0.00    -0.183 C  
HETATM   26  O   UNL     1      -6.748  15.058  67.184  1.00  0.00    -0.273 OA 
HETATM   27  O   UNL     1      -7.586  16.984  68.011  1.00  0.00    -0.173 OA 
ENDBRANCH  23  24
ENDBRANCH  22  23
ENDBRANCH  21  22
ENDBRANCH  19  20
ENDBRANCH  18  19
ENDBRANCH  10  11
ENDBRANCH   6   9
ENDBRANCH   5   6
ENDBRANCH   4   5
ENDBRANCH   3   4
ENDBRANCH   2   3
TORSDOF 11
ENDMDL
MODEL      255
REMARK 921   NORMALIZED FREE ENERGY PREDICTED BY IDOCK:   -3.81 KCAL/MOL
REMARK 922        TOTAL FREE ENERGY PREDICTED BY IDOCK:   -8.07 KCAL/MOL
REMARK 923 INTER-LIGAND FREE ENERGY PREDICTED BY IDOCK:   -6.17 KCAL/MOL
REMARK 924 INTRA-LIGAND FREE ENERGY PREDICTED BY IDOCK:   -1.90 KCAL/MOL
REMARK 927      BINDING AFFINITY PREDICTED BY RF-SCORE:    0.00 PKD
ROOT
HETATM    1  C   UNL     1     -10.296   5.296  69.940  1.00  0.00    -0.374 C  
HETATM    2  C   UNL     1     -10.270   4.701  71.336  1.00  0.00    -0.212 C  
ENDROOT
BRANCH   2   3
HETATM    3  C   UNL     1     -11.176   5.464  72.304  1.00  0.00    -0.235 C  
BRANCH   3   4
HETATM    4  C   UNL     1     -10.384   5.893  73.540  1.00  0.00    -0.256 C  
BRANCH   4   5
HETATM    5  C   UNL     1     -10.233   7.411  73.643  1.00  0.00    -0.380 C  
BRANCH   5   6
HETATM    6  C   UNL     1      -9.407   8.018  72.495  1.00  0.00    -0.224 C  
HETATM    7  O   UNL     1      -8.294   8.682  73.089  1.00  0.00    -0.405 OA 
HETATM    8  H   UNL     1      -7.784   9.057  72.381  1.00  0.00     0.000 HD 
BRANCH   6   9
HETATM    9  C   UNL     1     -10.204   8.974  71.631  1.00  0.00    -0.418 C  
HETATM   10  C   UNL     1     -10.219   9.021  70.287  1.00  0.00    -0.235 C  
BRANCH  10  11
HETATM   11  C   UNL     1     -10.880  10.109  69.465  1.00  0.00    -0.289 C  
HETATM   12  C   UNL     1     -11.918  10.854  70.333  1.00  0.00    -0.362 C  
HETATM   13  O   UNL     1     -13.133  10.126  70.451  1.00  0.00    -0.590 OA 
HETATM   14  C   UNL     1     -12.153  12.178  69.640  1.00  0.00    -0.283 C  
HETATM   15  H   UNL     1     -13.771  10.584  70.985  1.00  0.00     0.000 HD 
HETATM   16  C   UNL     1     -10.796  12.459  69.078  1.00  0.00    -0.148 C  
HETATM   17  O   UNL     1     -10.449  13.586  68.744  1.00  0.00    -0.245 OA 
HETATM   18  C   UNL     1      -9.931  11.213  68.941  1.00  0.00    -0.188 C  
BRANCH  18  19
HETATM   19  C   UNL     1      -9.542  10.958  67.477  1.00  0.00    -0.171 C  
BRANCH  19  20
HETATM   20  C   UNL     1     -10.411   9.951  66.769  1.00  0.00    -0.285 C  
HETATM   21  C   UNL     1     -10.078   8.714  66.368  1.00  0.00    -0.294 C  
BRANCH  21  22
HETATM   22  C   UNL     1      -8.736   8.069  66.522  1.00  0.00    -0.161 C  
BRANCH  22  23
HETATM   23  C   UNL     1      -8.828   6.555  66.708  1.00  0.00    -0.130 C  
BRANCH  23  24
HETATM   24  C   UNL     1      -7.724   6.088  67.657  1.00  0.00    -0.097 C  
HETATM   25  C   UNL     1      -7.214   4.709  67.322  1.00  0.00    -0.073 C  
HETATM   26  O   UNL     1      -7.611   4.009  66.407  1.00  0.00    -0.086 OA 
HETATM   27  O   UNL     1      -6.236   4.313  68.172  1.00  0.00    -0.033 OA 
ENDBRANCH  23  24
ENDBRANCH  22  23
ENDBRANCH  21  22
ENDBRANCH  19  20
ENDBRANCH  18  19
ENDBRANCH  10  11
ENDBRANCH   6   9
ENDBRANCH   5   6
ENDBRANCH   4   5
ENDBRANCH   3   4
ENDBRANCH   2   3
TORSDOF 11
ENDMDL
MODEL      256
REMARK 921   NORMALIZED FREE ENERGY PREDICTED BY IDOCK:   -3.81 KCAL/MOL
REMARK 922        TOTAL FREE ENERGY PREDICTED BY IDOCK:   -8.07 KCAL/MOL
REMARK 923 INTER-LIGAND FREE ENERGY PREDICTED BY IDOCK:   -6.66 KCAL/MOL
REMARK 924 INTRA-LIGAND FREE ENERGY PREDICTED BY IDOCK:   -1.41 KCAL/MOL
REMARK 927      BINDING AFFINITY PREDICTED BY RF-SCORE:    0.00 PKD
ROOT
HETATM    1  C   UNL     1     -11.867  12.542  63.476  1.00  0.00    -0.616 C  
HETATM    2  C   UNL     1     -11.046  13.064  64.641  1.00  0.00    -0.357 C  
ENDROOT
BRANCH   2   3
HETATM    3  C   UNL     1     -11.893  13.257  65.900  1.00  0.00    -0.436 C  
BRANCH   3   4
HETATM    4  C   UNL     1     -11.852  11.994  66.761  1.00  0.00    -0.244 C  
BRANCH   4   5
HETATM    5  C   UNL     1     -10.425  11.524  67.045  1.00  0.00    -0.263 C  
BRANCH   5   6
HETATM    6  C   UNL     1     -10.050  11.584  68.537  1.00  0.00    -0.207 C  
HETATM    7  O   UNL     1      -8.873  12.381  68.639  1.00  0.00    -0.353 OA 
HETATM    8  H   UNL     1      -8.642  12.418  69.559  1.00  0.00     0.000 HD 
BRANCH   6   9
HETATM    9  C   UNL     1      -9.828  10.216  69.148  1.00  0.00    -0.225 C  
HETATM   10  C   UNL     1     -10.721   9.493  69.847  1.00  0.00    -0.268 C  
BRANCH  10  11
HETATM   11  C   UNL     1     -10.404   8.217  70.601  1.00  0.00    -0.214 C  
HETATM   12  C   UNL     1     -10.151   8.545  72.088  1.00  0.00    -0.323 C  
HETATM   13  O   UNL     1      -8.846   9.064  72.304  1.00  0.00    -0.363 OA 
HETATM   14  C   UNL     1     -10.338   7.240  72.831  1.00  0.00    -0.307 C  
HETATM   15  H   UNL     1      -8.690   9.266  73.219  1.00  0.00     0.000 HD 
HETATM   16  C   UNL     1     -11.419   6.596  72.022  1.00  0.00    -0.291 C  
HETATM   17  O   UNL     1     -12.114   5.691  72.468  1.00  0.00    -0.221 OA 
HETATM   18  C   UNL     1     -11.530   7.157  70.611  1.00  0.00    -0.346 C  
BRANCH  18  19
HETATM   19  C   UNL     1     -11.277   6.070  69.554  1.00  0.00    -0.416 C  
BRANCH  19  20
HETATM   20  C   UNL     1     -11.271   6.575  68.134  1.00  0.00    -0.250 C  
HETATM   21  C   UNL     1     -10.613   6.063  67.082  1.00  0.00    -0.374 C  
BRANCH  21  22
HETATM   22  C   UNL     1      -9.707   4.871  67.104  1.00  0.00    -0.194 C  
BRANCH  22  23
HETATM   23  C   UNL     1      -8.248   5.235  66.833  1.00  0.00    -0.108 C  
BRANCH  23  24
HETATM   24  C   UNL     1      -7.826   6.376  67.760  1.00  0.00    -0.104 C  
HETATM   25  C   UNL     1      -7.206   5.884  69.042  1.00  0.00    -0.082 C  
HETATM   26  O   UNL     1      -7.042   4.716  69.348  1.00  0.00    -0.049 OA 
HETATM   27  O   UNL     1      -6.836   6.908  69.849  1.00  0.00    -0.048 OA 
ENDBRANCH  23  24
ENDBRANCH  22  23
ENDBRANCH  21  22
ENDBRANCH  19  20
ENDBRANCH  18  19
ENDBRANCH  10  11
ENDBRANCH   6   9
ENDBRANCH   5   6
ENDBRANCH   4   5
ENDBRANCH   3   4
ENDBRANCH   2   3
TORSDOF 11
ENDMDL
MODEL      257
REMARK 921   NORMALIZED FREE ENERGY PREDICTED BY IDOCK:   -3.80 KCAL/MOL
REMARK 922        TOTAL FREE ENERGY PREDICTED BY IDOCK:   -8.07 KCAL/MOL
REMARK 923 INTER-LIGAND FREE ENERGY PREDICTED BY IDOCK:   -6.08 KCAL/MOL
REMARK 924 INTRA-LIGAND FREE ENERGY PREDICTED BY IDOCK:   -1.99 KCAL/MOL
REMARK 927      BINDING AFFINITY PREDICTED BY RF-SCORE:    0.00 PKD
ROOT
HETATM    1  C   UNL     1     -10.247   8.710  71.123  1.00  0.00    -0.294 C  
HETATM    2  C   UNL     1      -9.659   9.786  70.229  1.00  0.00    -0.264 C  
ENDROOT
BRANCH   2   3
HETATM    3  C   UNL     1      -8.262   9.417  69.727  1.00  0.00    -0.146 C  
BRANCH   3   4
HETATM    4  C   UNL     1      -7.330  10.625  69.827  1.00  0.00    -0.115 C  
BRANCH   4   5
HETATM    5  C   UNL     1      -6.774  11.050  68.467  1.00  0.00    -0.061 C  
BRANCH   5   6
HETATM    6  C   UNL     1      -7.860  11.202  67.388  1.00  0.00    -0.121 C  
HETATM    7  O   UNL     1      -7.190  11.305  66.134  1.00  0.00    -0.328 OA 
HETATM    8  H   UNL     1      -7.860  11.398  65.468  1.00  0.00     0.000 HD 
BRANCH   6   9
HETATM    9  C   UNL     1      -8.759  12.400  67.615  1.00  0.00    -0.178 C  
HETATM   10  C   UNL     1     -10.053  12.375  67.981  1.00  0.00    -0.214 C  
BRANCH  10  11
HETATM   11  C   UNL     1     -10.968  13.583  68.016  1.00  0.00    -0.271 C  
HETATM   12  C   UNL     1     -10.686  14.407  69.292  1.00  0.00    -0.206 C  
HETATM   13  O   UNL     1     -11.301  13.838  70.439  1.00  0.00    -0.499 OA 
HETATM   14  C   UNL     1     -11.242  15.788  69.016  1.00  0.00    -0.319 C  
HETATM   15  H   UNL     1     -11.128  14.345  71.224  1.00  0.00     0.000 HD 
HETATM   16  C   UNL     1     -10.981  15.920  67.549  1.00  0.00    -0.280 C  
HETATM   17  O   UNL     1     -10.952  17.010  66.988  1.00  0.00    -0.113 OA 
HETATM   18  C   UNL     1     -10.791  14.582  66.848  1.00  0.00    -0.305 C  
BRANCH  18  19
HETATM   19  C   UNL     1     -11.858  14.360  65.765  1.00  0.00    -0.365 C  
BRANCH  19  20
HETATM   20  C   UNL     1     -11.300  14.083  64.392  1.00  0.00    -0.330 C  
HETATM   21  C   UNL     1     -10.997  12.893  63.852  1.00  0.00    -0.422 C  
BRANCH  21  22
HETATM   22  C   UNL     1     -11.128  11.561  64.524  1.00  0.00    -0.340 C  
BRANCH  22  23
HETATM   23  C   UNL     1      -9.880  10.694  64.360  1.00  0.00    -0.395 C  
BRANCH  23  24
HETATM   24  C   UNL     1      -9.939   9.522  65.341  1.00  0.00    -0.135 C  
HETATM   25  C   UNL     1      -8.861   8.499  65.089  1.00  0.00    -0.071 C  
HETATM   26  O   UNL     1      -8.017   8.559  64.212  1.00  0.00    -0.135 OA 
HETATM   27  O   UNL     1      -8.927   7.470  65.968  1.00  0.00    -0.167 OA 
ENDBRANCH  23  24
ENDBRANCH  22  23
ENDBRANCH  21  22
ENDBRANCH  19  20
ENDBRANCH  18  19
ENDBRANCH  10  11
ENDBRANCH   6   9
ENDBRANCH   5   6
ENDBRANCH   4   5
ENDBRANCH   3   4
ENDBRANCH   2   3
TORSDOF 11
ENDMDL
MODEL      258
REMARK 921   NORMALIZED FREE ENERGY PREDICTED BY IDOCK:   -3.80 KCAL/MOL
REMARK 922        TOTAL FREE ENERGY PREDICTED BY IDOCK:   -8.07 KCAL/MOL
REMARK 923 INTER-LIGAND FREE ENERGY PREDICTED BY IDOCK:   -6.39 KCAL/MOL
REMARK 924 INTRA-LIGAND FREE ENERGY PREDICTED BY IDOCK:   -1.68 KCAL/MOL
REMARK 927      BINDING AFFINITY PREDICTED BY RF-SCORE:    0.00 PKD
ROOT
HETATM    1  C   UNL     1      -7.688  12.867  67.270  1.00  0.00    -0.122 C  
HETATM    2  C   UNL     1      -7.686  13.700  68.539  1.00  0.00    -0.129 C  
ENDROOT
BRANCH   2   3
HETATM    3  C   UNL     1      -7.885  15.189  68.249  1.00  0.00    -0.124 C  
BRANCH   3   4
HETATM    4  C   UNL     1      -9.027  15.384  67.250  1.00  0.00    -0.213 C  
BRANCH   4   5
HETATM    5  C   UNL     1     -10.273  15.991  67.896  1.00  0.00    -0.258 C  
BRANCH   5   6
HETATM    6  C   UNL     1     -11.450  15.004  67.991  1.00  0.00    -0.342 C  
HETATM    7  O   UNL     1     -11.347  14.353  69.255  1.00  0.00    -0.257 OA 
HETATM    8  H   UNL     1     -12.073  13.744  69.313  1.00  0.00     0.000 HD 
BRANCH   6   9
HETATM    9  C   UNL     1     -11.467  13.991  66.865  1.00  0.00    -0.373 C  
HETATM   10  C   UNL     1     -11.696  12.670  66.975  1.00  0.00    -0.438 C  
BRANCH  10  11
HETATM   11  C   UNL     1     -11.519  11.664  65.856  1.00  0.00    -0.189 C  
HETATM   12  C   UNL     1     -11.435  12.404  64.503  1.00  0.00    -0.337 C  
HETATM   13  O   UNL     1     -12.717  12.792  64.029  1.00  0.00    -0.665 OA 
HETATM   14  C   UNL     1     -10.782  11.431  63.546  1.00  0.00    -0.453 C  
HETATM   15  H   UNL     1     -12.666  13.247  63.197  1.00  0.00     0.000 HD 
HETATM   16  C   UNL     1      -9.840  10.712  64.458  1.00  0.00    -0.327 C  
HETATM   17  O   UNL     1      -8.873  10.088  64.036  1.00  0.00    -0.185 OA 
HETATM   18  C   UNL     1     -10.228  10.814  65.927  1.00  0.00    -0.319 C  
BRANCH  18  19
HETATM   19  C   UNL     1     -10.510   9.429  66.530  1.00  0.00    -0.199 C  
BRANCH  19  20
HETATM   20  C   UNL     1      -9.328   8.800  67.220  1.00  0.00    -0.181 C  
HETATM   21  C   UNL     1      -9.339   7.910  68.225  1.00  0.00    -0.145 C  
BRANCH  21  22
HETATM   22  C   UNL     1     -10.556   7.361  68.903  1.00  0.00    -0.191 C  
BRANCH  22  23
HETATM   23  C   UNL     1     -10.414   7.318  70.424  1.00  0.00    -0.232 C  
BRANCH  23  24
HETATM   24  C   UNL     1      -8.975   6.955  70.793  1.00  0.00    -0.150 C  
HETATM   25  C   UNL     1      -8.413   7.834  71.881  1.00  0.00    -0.114 C  
HETATM   26  O   UNL     1      -9.005   8.747  72.431  1.00  0.00    -0.379 OA 
HETATM   27  O   UNL     1      -7.140   7.496  72.195  1.00  0.00    -0.064 OA 
ENDBRANCH  23  24
ENDBRANCH  22  23
ENDBRANCH  21  22
ENDBRANCH  19  20
ENDBRANCH  18  19
ENDBRANCH  10  11
ENDBRANCH   6   9
ENDBRANCH   5   6
ENDBRANCH   4   5
ENDBRANCH   3   4
ENDBRANCH   2   3
TORSDOF 11
ENDMDL
MODEL      259
REMARK 921   NORMALIZED FREE ENERGY PREDICTED BY IDOCK:   -3.77 KCAL/MOL
REMARK 922        TOTAL FREE ENERGY PREDICTED BY IDOCK:   -8.02 KCAL/MOL
REMARK 923 INTER-LIGAND FREE ENERGY PREDICTED BY IDOCK:   -7.01 KCAL/MOL
REMARK 924 INTRA-LIGAND FREE ENERGY PREDICTED BY IDOCK:   -1.01 KCAL/MOL
REMARK 927      BINDING AFFINITY PREDICTED BY RF-SCORE:    0.00 PKD
ROOT
HETATM    1  C   UNL     1     -12.339  14.226  71.449  1.00  0.00    -0.431 C  
HETATM    2  C   UNL     1     -12.223  15.304  70.387  1.00  0.00    -0.404 C  
ENDROOT
BRANCH   2   3
HETATM    3  C   UNL     1     -11.211  14.935  69.302  1.00  0.00    -0.300 C  
BRANCH   3   4
HETATM    4  C   UNL     1     -11.897  14.140  68.189  1.00  0.00    -0.387 C  
BRANCH   4   5
HETATM    5  C   UNL     1     -11.895  14.882  66.852  1.00  0.00    -0.202 C  
BRANCH   5   6
HETATM    6  C   UNL     1     -11.489  13.993  65.664  1.00  0.00    -0.319 C  
HETATM    7  O   UNL     1     -12.687  13.433  65.133  1.00  0.00    -0.605 OA 
HETATM    8  H   UNL     1     -12.436  12.885  64.400  1.00  0.00     0.000 HD 
BRANCH   6   9
HETATM    9  C   UNL     1     -10.510  12.901  66.047  1.00  0.00    -0.290 C  
HETATM   10  C   UNL     1     -10.732  11.575  66.016  1.00  0.00    -0.332 C  
BRANCH  10  11
HETATM   11  C   UNL     1      -9.798  10.525  66.583  1.00  0.00    -0.246 C  
HETATM   12  C   UNL     1      -8.614  10.311  65.615  1.00  0.00    -0.161 C  
HETATM   13  O   UNL     1      -8.968   9.483  64.516  1.00  0.00    -0.214 OA 
HETATM   14  C   UNL     1      -7.523   9.665  66.442  1.00  0.00    -0.094 C  
HETATM   15  H   UNL     1      -8.239   9.351  63.921  1.00  0.00     0.000 HD 
HETATM   16  C   UNL     1      -7.745  10.311  67.773  1.00  0.00    -0.090 C  
HETATM   17  O   UNL     1      -6.874  10.342  68.636  1.00  0.00    -0.056 OA 
HETATM   18  C   UNL     1      -9.146  10.882  67.940  1.00  0.00    -0.149 C  
BRANCH  18  19
HETATM   19  C   UNL     1      -9.891  10.212  69.105  1.00  0.00    -0.225 C  
BRANCH  19  20
HETATM   20  C   UNL     1      -9.472   8.789  69.372  1.00  0.00    -0.161 C  
HETATM   21  C   UNL     1      -9.594   8.095  70.515  1.00  0.00    -0.177 C  
BRANCH  21  22
HETATM   22  C   UNL     1     -10.163   8.610  71.801  1.00  0.00    -0.378 C  
BRANCH  22  23
HETATM   23  C   UNL     1     -11.022   7.572  72.521  1.00  0.00    -0.362 C  
BRANCH  23  24
HETATM   24  C   UNL     1     -12.371   7.443  71.812  1.00  0.00    -0.365 C  
HETATM   25  C   UNL     1     -13.189   8.707  71.884  1.00  0.00    -0.375 C  
HETATM   26  O   UNL     1     -12.852   9.739  72.438  1.00  0.00    -0.328 OA 
HETATM   27  O   UNL     1     -14.378   8.575  71.249  1.00  0.00    -0.355 OA 
ENDBRANCH  23  24
ENDBRANCH  22  23
ENDBRANCH  21  22
ENDBRANCH  19  20
ENDBRANCH  18  19
ENDBRANCH  10  11
ENDBRANCH   6   9
ENDBRANCH   5   6
ENDBRANCH   4   5
ENDBRANCH   3   4
ENDBRANCH   2   3
TORSDOF 11
ENDMDL
MODEL      260
REMARK 921   NORMALIZED FREE ENERGY PREDICTED BY IDOCK:   -3.77 KCAL/MOL
REMARK 922        TOTAL FREE ENERGY PREDICTED BY IDOCK:   -8.01 KCAL/MOL
REMARK 923 INTER-LIGAND FREE ENERGY PREDICTED BY IDOCK:   -6.48 KCAL/MOL
REMARK 924 INTRA-LIGAND FREE ENERGY PREDICTED BY IDOCK:   -1.53 KCAL/MOL
REMARK 927      BINDING AFFINITY PREDICTED BY RF-SCORE:    0.00 PKD
ROOT
HETATM    1  C   UNL     1     -11.030   6.336  67.450  1.00  0.00    -0.447 C  
HETATM    2  C   UNL     1     -10.234   7.585  67.120  1.00  0.00    -0.350 C  
ENDROOT
BRANCH   2   3
HETATM    3  C   UNL     1      -8.727   7.359  67.254  1.00  0.00    -0.121 C  
BRANCH   3   4
HETATM    4  C   UNL     1      -8.127   8.369  68.234  1.00  0.00    -0.120 C  
BRANCH   4   5
HETATM    5  C   UNL     1      -8.646   9.789  68.002  1.00  0.00    -0.122 C  
BRANCH   5   6
HETATM    6  C   UNL     1      -7.830  10.571  66.959  1.00  0.00    -0.114 C  
HETATM    7  O   UNL     1      -6.552   9.947  66.876  1.00  0.00    -0.066 OA 
HETATM    8  H   UNL     1      -6.048  10.430  66.232  1.00  0.00     0.000 HD 
BRANCH   6   9
HETATM    9  C   UNL     1      -7.688  12.041  67.297  1.00  0.00    -0.168 C  
HETATM   10  C   UNL     1      -8.542  12.785  68.023  1.00  0.00    -0.186 C  
BRANCH  10  11
HETATM   11  C   UNL     1      -8.462  14.290  68.181  1.00  0.00    -0.167 C  
HETATM   12  C   UNL     1      -7.071  14.679  68.730  1.00  0.00    -0.113 C  
HETATM   13  O   UNL     1      -6.975  14.469  70.131  1.00  0.00    -0.367 OA 
HETATM   14  C   UNL     1      -6.896  16.144  68.394  1.00  0.00    -0.128 C  
HETATM   15  H   UNL     1      -6.119  14.709  70.468  1.00  0.00     0.000 HD 
HETATM   16  C   UNL     1      -7.620  16.233  67.088  1.00  0.00    -0.195 C  
HETATM   17  O   UNL     1      -7.429  17.151  66.298  1.00  0.00    -0.280 OA 
HETATM   18  C   UNL     1      -8.618  15.103  66.874  1.00  0.00    -0.289 C  
BRANCH  18  19
HETATM   19  C   UNL     1     -10.050  15.640  66.724  1.00  0.00    -0.277 C  
BRANCH  19  20
HETATM   20  C   UNL     1     -10.437  16.673  67.751  1.00  0.00    -0.316 C  
HETATM   21  C   UNL     1     -11.275  16.529  68.789  1.00  0.00    -0.277 C  
BRANCH  21  22
HETATM   22  C   UNL     1     -12.040  15.289  69.139  1.00  0.00    -0.266 C  
BRANCH  22  23
HETATM   23  C   UNL     1     -11.360  14.469  70.234  1.00  0.00    -0.225 C  
BRANCH  23  24
HETATM   24  C   UNL     1     -12.383  13.538  70.886  1.00  0.00    -0.437 C  
HETATM   25  C   UNL     1     -13.067  14.166  72.073  1.00  0.00    -0.387 C  
HETATM   26  O   UNL     1     -12.855  15.288  72.502  1.00  0.00    -0.321 OA 
HETATM   27  O   UNL     1     -13.971  13.329  72.636  1.00  0.00    -0.741 OA 
ENDBRANCH  23  24
ENDBRANCH  22  23
ENDBRANCH  21  22
ENDBRANCH  19  20
ENDBRANCH  18  19
ENDBRANCH  10  11
ENDBRANCH   6   9
ENDBRANCH   5   6
ENDBRANCH   4   5
ENDBRANCH   3   4
ENDBRANCH   2   3
TORSDOF 11
ENDMDL
MODEL      261
REMARK 921   NORMALIZED FREE ENERGY PREDICTED BY IDOCK:   -3.77 KCAL/MOL
REMARK 922        TOTAL FREE ENERGY PREDICTED BY IDOCK:   -8.00 KCAL/MOL
REMARK 923 INTER-LIGAND FREE ENERGY PREDICTED BY IDOCK:   -8.40 KCAL/MOL
REMARK 924 INTRA-LIGAND FREE ENERGY PREDICTED BY IDOCK:    0.40 KCAL/MOL
REMARK 927      BINDING AFFINITY PREDICTED BY RF-SCORE:    0.00 PKD
ROOT
HETATM    1  C   UNL     1      -9.124   5.813  69.118  1.00  0.00    -0.126 C  
HETATM    2  C   UNL     1      -9.805   7.007  69.761  1.00  0.00    -0.171 C  
ENDROOT
BRANCH   2   3
HETATM    3  C   UNL     1     -11.113   6.620  70.452  1.00  0.00    -0.374 C  
BRANCH   3   4
HETATM    4  C   UNL     1     -11.388   7.561  71.626  1.00  0.00    -0.283 C  
BRANCH   4   5
HETATM    5  C   UNL     1     -11.511   9.022  71.190  1.00  0.00    -0.376 C  
BRANCH   5   6
HETATM    6  C   UNL     1     -12.872   9.648  71.543  1.00  0.00    -0.392 C  
HETATM    7  O   UNL     1     -13.876   8.727  71.126  1.00  0.00    -0.575 OA 
HETATM    8  H   UNL     1     -14.715   9.114  71.343  1.00  0.00     0.000 HD 
BRANCH   6   9
HETATM    9  C   UNL     1     -13.086  11.003  70.899  1.00  0.00    -0.199 C  
HETATM   10  C   UNL     1     -12.162  11.964  70.722  1.00  0.00    -0.401 C  
BRANCH  10  11
HETATM   11  C   UNL     1     -12.455  13.373  70.247  1.00  0.00    -0.285 C  
HETATM   12  C   UNL     1     -12.941  14.229  71.437  1.00  0.00    -0.341 C  
HETATM   13  O   UNL     1     -14.307  13.987  71.743  1.00  0.00    -0.415 OA 
HETATM   14  C   UNL     1     -12.733  15.668  71.016  1.00  0.00    -0.517 C  
HETATM   15  H   UNL     1     -14.606  14.514  72.475  1.00  0.00     0.000 HD 
HETATM   16  C   UNL     1     -11.494  15.553  70.186  1.00  0.00    -0.327 C  
HETATM   17  O   UNL     1     -10.783  16.520  69.941  1.00  0.00    -0.329 OA 
HETATM   18  C   UNL     1     -11.244  14.143  69.669  1.00  0.00    -0.241 C  
BRANCH  18  19
HETATM   19  C   UNL     1     -11.243  14.100  68.133  1.00  0.00    -0.299 C  
BRANCH  19  20
HETATM   20  C   UNL     1     -10.787  15.378  67.477  1.00  0.00    -0.305 C  
HETATM   21  C   UNL     1     -10.877  15.715  66.181  1.00  0.00    -0.264 C  
BRANCH  21  22
HETATM   22  C   UNL     1     -11.440  14.863  65.085  1.00  0.00    -0.357 C  
BRANCH  22  23
HETATM   23  C   UNL     1     -12.206  13.652  65.617  1.00  0.00    -0.490 C  
BRANCH  23  24
HETATM   24  C   UNL     1     -11.952  12.448  64.709  1.00  0.00    -0.462 C  
HETATM   25  C   UNL     1     -10.664  11.736  65.035  1.00  0.00    -0.292 C  
HETATM   26  O   UNL     1      -9.882  12.052  65.914  1.00  0.00    -0.231 OA 
HETATM   27  O   UNL     1     -10.458  10.671  64.223  1.00  0.00    -0.349 OA 
ENDBRANCH  23  24
ENDBRANCH  22  23
ENDBRANCH  21  22
ENDBRANCH  19  20
ENDBRANCH  18  19
ENDBRANCH  10  11
ENDBRANCH   6   9
ENDBRANCH   5   6
ENDBRANCH   4   5
ENDBRANCH   3   4
ENDBRANCH   2   3
TORSDOF 11
ENDMDL
MODEL      262
REMARK 921   NORMALIZED FREE ENERGY PREDICTED BY IDOCK:   -3.74 KCAL/MOL
REMARK 922        TOTAL FREE ENERGY PREDICTED BY IDOCK:   -7.97 KCAL/MOL
REMARK 923 INTER-LIGAND FREE ENERGY PREDICTED BY IDOCK:   -6.26 KCAL/MOL
REMARK 924 INTRA-LIGAND FREE ENERGY PREDICTED BY IDOCK:   -1.71 KCAL/MOL
REMARK 927      BINDING AFFINITY PREDICTED BY RF-SCORE:    0.00 PKD
ROOT
HETATM    1  C   UNL     1      -9.682  14.645  68.466  1.00  0.00    -0.225 C  
HETATM    2  C   UNL     1     -10.848  15.443  67.914  1.00  0.00    -0.300 C  
ENDROOT
BRANCH   2   3
HETATM    3  C   UNL     1     -11.220  15.010  66.494  1.00  0.00    -0.312 C  
BRANCH   3   4
HETATM    4  C   UNL     1     -12.315  13.943  66.538  1.00  0.00    -0.447 C  
BRANCH   4   5
HETATM    5  C   UNL     1     -12.524  13.263  65.185  1.00  0.00    -0.525 C  
BRANCH   5   6
HETATM    6  C   UNL     1     -11.409  12.265  64.828  1.00  0.00    -0.323 C  
HETATM    7  O   UNL     1     -11.875  11.497  63.722  1.00  0.00    -0.466 OA 
HETATM    8  H   UNL     1     -11.186  10.881  63.501  1.00  0.00     0.000 HD 
BRANCH   6   9
HETATM    9  C   UNL     1     -11.026  11.364  65.984  1.00  0.00    -0.286 C  
HETATM   10  C   UNL     1      -9.837  11.320  66.609  1.00  0.00    -0.235 C  
BRANCH  10  11
HETATM   11  C   UNL     1      -9.433  10.278  67.634  1.00  0.00    -0.169 C  
HETATM   12  C   UNL     1      -9.386  10.924  69.036  1.00  0.00    -0.131 C  
HETATM   13  O   UNL     1      -8.193  11.668  69.239  1.00  0.00    -0.358 OA 
HETATM   14  C   UNL     1      -9.474   9.776  70.017  1.00  0.00    -0.278 C  
HETATM   15  H   UNL     1      -8.164  12.066  70.101  1.00  0.00     0.000 HD 
HETATM   16  C   UNL     1     -10.367   8.829  69.279  1.00  0.00    -0.214 C  
HETATM   17  O   UNL     1     -10.979   7.932  69.849  1.00  0.00    -0.243 OA 
HETATM   18  C   UNL     1     -10.402   9.081  67.778  1.00  0.00    -0.304 C  
BRANCH  18  19
HETATM   19  C   UNL     1      -9.895   7.861  66.993  1.00  0.00    -0.293 C  
BRANCH  19  20
HETATM   20  C   UNL     1     -10.890   6.734  66.886  1.00  0.00    -0.402 C  
HETATM   21  C   UNL     1     -10.718   5.448  67.230  1.00  0.00    -0.180 C  
BRANCH  21  22
HETATM   22  C   UNL     1      -9.463   4.844  67.782  1.00  0.00    -0.168 C  
BRANCH  22  23
HETATM   23  C   UNL     1      -8.657   4.092  66.724  1.00  0.00    -0.106 C  
BRANCH  23  24
HETATM   24  C   UNL     1      -7.274   4.728  66.586  1.00  0.00    -0.080 C  
HETATM   25  C   UNL     1      -7.181   5.671  65.414  1.00  0.00    -0.067 C  
HETATM   26  O   UNL     1      -8.084   5.925  64.635  1.00  0.00    -0.125 OA 
HETATM   27  O   UNL     1      -5.950   6.226  65.309  1.00  0.00    -0.024 OA 
ENDBRANCH  23  24
ENDBRANCH  22  23
ENDBRANCH  21  22
ENDBRANCH  19  20
ENDBRANCH  18  19
ENDBRANCH  10  11
ENDBRANCH   6   9
ENDBRANCH   5   6
ENDBRANCH   4   5
ENDBRANCH   3   4
ENDBRANCH   2   3
TORSDOF 11
ENDMDL
MODEL      263
REMARK 921   NORMALIZED FREE ENERGY PREDICTED BY IDOCK:   -3.74 KCAL/MOL
REMARK 922        TOTAL FREE ENERGY PREDICTED BY IDOCK:   -7.96 KCAL/MOL
REMARK 923 INTER-LIGAND FREE ENERGY PREDICTED BY IDOCK:   -5.96 KCAL/MOL
REMARK 924 INTRA-LIGAND FREE ENERGY PREDICTED BY IDOCK:   -2.00 KCAL/MOL
REMARK 927      BINDING AFFINITY PREDICTED BY RF-SCORE:    0.00 PKD
ROOT
HETATM    1  C   UNL     1      -6.965   8.600  64.969  1.00  0.00    -0.076 C  
HETATM    2  C   UNL     1      -8.153   7.732  64.599  1.00  0.00    -0.123 C  
ENDROOT
BRANCH   2   3
HETATM    3  C   UNL     1      -7.808   6.722  63.504  1.00  0.00    -0.110 C  
BRANCH   3   4
HETATM    4  C   UNL     1      -8.350   5.339  63.872  1.00  0.00    -0.122 C  
BRANCH   4   5
HETATM    5  C   UNL     1      -8.157   5.010  65.353  1.00  0.00    -0.116 C  
BRANCH   5   6
HETATM    6  C   UNL     1      -9.475   4.695  66.081  1.00  0.00    -0.169 C  
HETATM    7  O   UNL     1     -10.499   4.654  65.091  1.00  0.00    -0.436 OA 
HETATM    8  H   UNL     1     -11.313   4.459  65.541  1.00  0.00     0.000 HD 
BRANCH   6   9
HETATM    9  C   UNL     1      -9.812   5.704  67.160  1.00  0.00    -0.167 C  
HETATM   10  C   UNL     1     -10.554   6.816  67.018  1.00  0.00    -0.405 C  
BRANCH  10  11
HETATM   11  C   UNL     1     -10.712   7.895  68.071  1.00  0.00    -0.119 C  
HETATM   12  C   UNL     1     -10.699   7.251  69.475  1.00  0.00    -0.232 C  
HETATM   13  O   UNL     1     -11.952   6.667  69.803  1.00  0.00    -0.654 OA 
HETATM   14  C   UNL     1     -10.363   8.372  70.434  1.00  0.00    -0.219 C  
HETATM   15  H   UNL     1     -11.944   6.272  70.667  1.00  0.00     0.000 HD 
HETATM   16  C   UNL     1      -9.435   9.200  69.602  1.00  0.00    -0.172 C  
HETATM   17  O   UNL     1      -8.657  10.006  70.100  1.00  0.00    -0.168 OA 
HETATM   18  C   UNL     1      -9.586   8.955  68.107  1.00  0.00    -0.161 C  
BRANCH  18  19
HETATM   19  C   UNL     1     -10.008  10.235  67.369  1.00  0.00    -0.230 C  
BRANCH  19  20
HETATM   20  C   UNL     1     -11.461  10.600  67.539  1.00  0.00    -0.097 C  
HETATM   21  C   UNL     1     -11.977  11.607  68.261  1.00  0.00    -0.236 C  
BRANCH  21  22
HETATM   22  C   UNL     1     -11.202  12.587  69.088  1.00  0.00    -0.297 C  
BRANCH  22  23
HETATM   23  C   UNL     1     -12.011  13.837  69.430  1.00  0.00    -0.397 C  
BRANCH  23  24
HETATM   24  C   UNL     1     -11.592  14.358  70.805  1.00  0.00    -0.224 C  
HETATM   25  C   UNL     1     -12.718  14.328  71.806  1.00  0.00    -0.347 C  
HETATM   26  O   UNL     1     -13.853  13.941  71.586  1.00  0.00    -0.355 OA 
HETATM   27  O   UNL     1     -12.327  14.790  73.018  1.00  0.00    -0.330 OA 
ENDBRANCH  23  24
ENDBRANCH  22  23
ENDBRANCH  21  22
ENDBRANCH  19  20
ENDBRANCH  18  19
ENDBRANCH  10  11
ENDBRANCH   6   9
ENDBRANCH   5   6
ENDBRANCH   4   5
ENDBRANCH   3   4
ENDBRANCH   2   3
TORSDOF 11
ENDMDL
MODEL      264
REMARK 921   NORMALIZED FREE ENERGY PREDICTED BY IDOCK:   -3.74 KCAL/MOL
REMARK 922        TOTAL FREE ENERGY PREDICTED BY IDOCK:   -7.95 KCAL/MOL
REMARK 923 INTER-LIGAND FREE ENERGY PREDICTED BY IDOCK:   -5.89 KCAL/MOL
REMARK 924 INTRA-LIGAND FREE ENERGY PREDICTED BY IDOCK:   -2.06 KCAL/MOL
REMARK 927      BINDING AFFINITY PREDICTED BY RF-SCORE:    0.00 PKD
ROOT
HETATM    1  C   UNL     1     -12.328  12.390  69.750  1.00  0.00    -0.077 C  
HETATM    2  C   UNL     1     -11.360  13.057  68.791  1.00  0.00    -0.332 C  
ENDROOT
BRANCH   2   3
HETATM    3  C   UNL     1     -10.538  12.036  68.001  1.00  0.00    -0.233 C  
BRANCH   3   4
HETATM    4  C   UNL     1     -11.067  11.928  66.570  1.00  0.00    -0.357 C  
BRANCH   4   5
HETATM    5  C   UNL     1     -10.001  12.260  65.525  1.00  0.00    -0.264 C  
BRANCH   5   6
HETATM    6  C   UNL     1      -9.524  11.030  64.732  1.00  0.00    -0.230 C  
HETATM    7  O   UNL     1     -10.598  10.642  63.880  1.00  0.00    -0.479 OA 
HETATM    8  H   UNL     1     -10.304   9.883  63.390  1.00  0.00     0.000 HD 
BRANCH   6   9
HETATM    9  C   UNL     1      -9.100   9.879  65.620  1.00  0.00    -0.220 C  
HETATM   10  C   UNL     1      -9.860   8.837  66.003  1.00  0.00    -0.234 C  
BRANCH  10  11
HETATM   11  C   UNL     1      -9.460   7.807  67.041  1.00  0.00    -0.210 C  
HETATM   12  C   UNL     1     -10.289   6.520  66.837  1.00  0.00    -0.243 C  
HETATM   13  O   UNL     1     -11.598   6.640  67.378  1.00  0.00    -0.727 OA 
HETATM   14  C   UNL     1      -9.519   5.423  67.539  1.00  0.00    -0.129 C  
HETATM   15  H   UNL     1     -12.108   5.848  67.253  1.00  0.00     0.000 HD 
HETATM   16  C   UNL     1      -8.108   5.863  67.306  1.00  0.00    -0.102 C  
HETATM   17  O   UNL     1      -7.161   5.090  67.399  1.00  0.00    -0.068 OA 
HETATM   18  C   UNL     1      -7.985   7.345  66.981  1.00  0.00    -0.116 C  
BRANCH  18  19
HETATM   19  C   UNL     1      -7.132   8.080  68.028  1.00  0.00    -0.086 C  
BRANCH  19  20
HETATM   20  C   UNL     1      -7.252   7.527  69.425  1.00  0.00    -0.082 C  
HETATM   21  C   UNL     1      -7.935   8.043  70.459  1.00  0.00    -0.096 C  
BRANCH  21  22
HETATM   22  C   UNL     1      -8.720   9.318  70.448  1.00  0.00    -0.263 C  
BRANCH  22  23
HETATM   23  C   UNL     1     -10.230   9.080  70.456  1.00  0.00    -0.268 C  
BRANCH  23  24
HETATM   24  C   UNL     1     -10.633   8.404  71.768  1.00  0.00    -0.352 C  
HETATM   25  C   UNL     1     -11.518   7.203  71.554  1.00  0.00    -0.268 C  
HETATM   26  O   UNL     1     -11.896   6.783  70.474  1.00  0.00    -0.372 OA 
HETATM   27  O   UNL     1     -11.863   6.616  72.726  1.00  0.00    -0.082 OA 
ENDBRANCH  23  24
ENDBRANCH  22  23
ENDBRANCH  21  22
ENDBRANCH  19  20
ENDBRANCH  18  19
ENDBRANCH  10  11
ENDBRANCH   6   9
ENDBRANCH   5   6
ENDBRANCH   4   5
ENDBRANCH   3   4
ENDBRANCH   2   3
TORSDOF 11
ENDMDL
MODEL      265
REMARK 921   NORMALIZED FREE ENERGY PREDICTED BY IDOCK:   -3.73 KCAL/MOL
REMARK 922        TOTAL FREE ENERGY PREDICTED BY IDOCK:   -7.94 KCAL/MOL
REMARK 923 INTER-LIGAND FREE ENERGY PREDICTED BY IDOCK:   -6.43 KCAL/MOL
REMARK 924 INTRA-LIGAND FREE ENERGY PREDICTED BY IDOCK:   -1.51 KCAL/MOL
REMARK 927      BINDING AFFINITY PREDICTED BY RF-SCORE:    0.00 PKD
ROOT
HETATM    1  C   UNL     1      -8.431  19.366  67.230  1.00  0.00    -0.325 C  
HETATM    2  C   UNL     1      -8.834  18.054  66.583  1.00  0.00    -0.280 C  
ENDROOT
BRANCH   2   3
HETATM    3  C   UNL     1     -10.059  17.434  67.256  1.00  0.00    -0.310 C  
BRANCH   3   4
HETATM    4  C   UNL     1      -9.807  15.954  67.550  1.00  0.00    -0.230 C  
BRANCH   4   5
HETATM    5  C   UNL     1      -8.605  15.736  68.469  1.00  0.00    -0.183 C  
BRANCH   5   6
HETATM    6  C   UNL     1      -7.651  14.635  67.971  1.00  0.00    -0.128 C  
HETATM    7  O   UNL     1      -7.331  14.942  66.617  1.00  0.00    -0.228 OA 
HETATM    8  H   UNL     1      -6.742  14.263  66.310  1.00  0.00     0.000 HD 
BRANCH   6   9
HETATM    9  C   UNL     1      -8.242  13.244  68.081  1.00  0.00    -0.160 C  
HETATM   10  C   UNL     1      -8.670  12.470  67.067  1.00  0.00    -0.205 C  
BRANCH  10  11
HETATM   11  C   UNL     1      -9.426  11.167  67.231  1.00  0.00    -0.178 C  
HETATM   12  C   UNL     1      -9.258  10.310  65.957  1.00  0.00    -0.164 C  
HETATM   13  O   UNL     1     -10.116  10.741  64.909  1.00  0.00    -0.278 OA 
HETATM   14  C   UNL     1      -9.591   8.893  66.372  1.00  0.00    -0.304 C  
HETATM   15  H   UNL     1     -10.013  10.214  64.126  1.00  0.00     0.000 HD 
HETATM   16  C   UNL     1      -9.080   8.873  67.778  1.00  0.00    -0.134 C  
HETATM   17  O   UNL     1      -8.830   7.827  68.365  1.00  0.00    -0.131 OA 
HETATM   18  C   UNL     1      -8.942  10.261  68.388  1.00  0.00    -0.132 C  
BRANCH  18  19
HETATM   19  C   UNL     1      -9.837  10.421  69.627  1.00  0.00    -0.179 C  
BRANCH  19  20
HETATM   20  C   UNL     1     -11.312  10.282  69.350  1.00  0.00    -0.279 C  
HETATM   21  C   UNL     1     -12.172  11.240  68.970  1.00  0.00    -0.211 C  
BRANCH  21  22
HETATM   22  C   UNL     1     -11.844  12.686  68.762  1.00  0.00    -0.341 C  
BRANCH  22  23
HETATM   23  C   UNL     1     -11.616  13.433  70.075  1.00  0.00    -0.219 C  
BRANCH  23  24
HETATM   24  C   UNL     1     -12.573  12.898  71.141  1.00  0.00    -0.373 C  
HETATM   25  C   UNL     1     -13.291  13.997  71.882  1.00  0.00    -0.406 C  
HETATM   26  O   UNL     1     -13.152  15.192  71.687  1.00  0.00    -0.330 OA 
HETATM   27  O   UNL     1     -14.136  13.505  72.819  1.00  0.00    -0.719 OA 
ENDBRANCH  23  24
ENDBRANCH  22  23
ENDBRANCH  21  22
ENDBRANCH  19  20
ENDBRANCH  18  19
ENDBRANCH  10  11
ENDBRANCH   6   9
ENDBRANCH   5   6
ENDBRANCH   4   5
ENDBRANCH   3   4
ENDBRANCH   2   3
TORSDOF 11
ENDMDL
MODEL      266
REMARK 921   NORMALIZED FREE ENERGY PREDICTED BY IDOCK:   -3.73 KCAL/MOL
REMARK 922        TOTAL FREE ENERGY PREDICTED BY IDOCK:   -7.94 KCAL/MOL
REMARK 923 INTER-LIGAND FREE ENERGY PREDICTED BY IDOCK:   -6.51 KCAL/MOL
REMARK 924 INTRA-LIGAND FREE ENERGY PREDICTED BY IDOCK:   -1.43 KCAL/MOL
REMARK 927      BINDING AFFINITY PREDICTED BY RF-SCORE:    0.00 PKD
ROOT
HETATM    1  C   UNL     1      -6.448   8.222  71.013  1.00  0.00    -0.039 C  
HETATM    2  C   UNL     1      -7.911   8.581  71.192  1.00  0.00    -0.133 C  
ENDROOT
BRANCH   2   3
HETATM    3  C   UNL     1      -8.800   7.340  71.291  1.00  0.00    -0.135 C  
BRANCH   3   4
HETATM    4  C   UNL     1     -10.164   7.616  70.656  1.00  0.00    -0.199 C  
BRANCH   4   5
HETATM    5  C   UNL     1     -10.831   6.346  70.127  1.00  0.00    -0.355 C  
BRANCH   5   6
HETATM    6  C   UNL     1     -11.106   6.390  68.613  1.00  0.00    -0.311 C  
HETATM    7  O   UNL     1     -10.492   5.236  68.044  1.00  0.00    -0.153 OA 
HETATM    8  H   UNL     1     -10.662   5.263  67.110  1.00  0.00     0.000 HD 
BRANCH   6   9
HETATM    9  C   UNL     1     -10.592   7.652  67.953  1.00  0.00    -0.233 C  
HETATM   10  C   UNL     1      -9.804   7.728  66.866  1.00  0.00    -0.305 C  
BRANCH  10  11
HETATM   11  C   UNL     1      -9.158   8.998  66.348  1.00  0.00    -0.213 C  
HETATM   12  C   UNL     1      -8.009   8.636  65.382  1.00  0.00    -0.111 C  
HETATM   13  O   UNL     1      -6.831   8.252  66.077  1.00  0.00    -0.062 OA 
HETATM   14  C   UNL     1      -7.763   9.880  64.557  1.00  0.00    -0.142 C  
HETATM   15  H   UNL     1      -6.124   8.030  65.482  1.00  0.00     0.000 HD 
HETATM   16  C   UNL     1      -9.148  10.438  64.450  1.00  0.00    -0.234 C  
HETATM   17  O   UNL     1      -9.460  11.243  63.580  1.00  0.00    -0.233 OA 
HETATM   18  C   UNL     1     -10.087   9.929  65.534  1.00  0.00    -0.297 C  
BRANCH  18  19
HETATM   19  C   UNL     1     -10.617  11.080  66.403  1.00  0.00    -0.308 C  
BRANCH  19  20
HETATM   20  C   UNL     1      -9.624  11.609  67.406  1.00  0.00    -0.173 C  
HETATM   21  C   UNL     1      -9.055  12.824  67.438  1.00  0.00    -0.192 C  
BRANCH  21  22
HETATM   22  C   UNL     1      -9.274  13.926  66.448  1.00  0.00    -0.174 C  
BRANCH  22  23
HETATM   23  C   UNL     1     -10.150  15.049  67.003  1.00  0.00    -0.244 C  
BRANCH  23  24
HETATM   24  C   UNL     1     -10.410  16.083  65.907  1.00  0.00    -0.386 C  
HETATM   25  C   UNL     1     -11.304  15.558  64.812  1.00  0.00    -0.357 C  
HETATM   26  O   UNL     1     -11.785  14.439  64.764  1.00  0.00    -0.375 OA 
HETATM   27  O   UNL     1     -11.525  16.488  63.852  1.00  0.00    -1.145 OA 
ENDBRANCH  23  24
ENDBRANCH  22  23
ENDBRANCH  21  22
ENDBRANCH  19  20
ENDBRANCH  18  19
ENDBRANCH  10  11
ENDBRANCH   6   9
ENDBRANCH   5   6
ENDBRANCH   4   5
ENDBRANCH   3   4
ENDBRANCH   2   3
TORSDOF 11
ENDMDL
MODEL      267
REMARK 921   NORMALIZED FREE ENERGY PREDICTED BY IDOCK:   -3.72 KCAL/MOL
REMARK 922        TOTAL FREE ENERGY PREDICTED BY IDOCK:   -7.92 KCAL/MOL
REMARK 923 INTER-LIGAND FREE ENERGY PREDICTED BY IDOCK:   -6.31 KCAL/MOL
REMARK 924 INTRA-LIGAND FREE ENERGY PREDICTED BY IDOCK:   -1.62 KCAL/MOL
REMARK 927      BINDING AFFINITY PREDICTED BY RF-SCORE:    0.00 PKD
ROOT
HETATM    1  C   UNL     1     -10.798   6.163  66.844  1.00  0.00    -0.411 C  
HETATM    2  C   UNL     1     -11.161   6.169  68.317  1.00  0.00    -0.336 C  
ENDROOT
BRANCH   2   3
HETATM    3  C   UNL     1     -10.251   7.092  69.130  1.00  0.00    -0.196 C  
BRANCH   3   4
HETATM    4  C   UNL     1     -10.133   8.454  68.443  1.00  0.00    -0.224 C  
BRANCH   4   5
HETATM    5  C   UNL     1      -8.699   8.985  68.438  1.00  0.00    -0.130 C  
BRANCH   5   6
HETATM    6  C   UNL     1      -8.516  10.248  69.299  1.00  0.00    -0.166 C  
HETATM    7  O   UNL     1      -8.863   9.895  70.635  1.00  0.00    -0.345 OA 
HETATM    8  H   UNL     1      -8.750  10.674  71.166  1.00  0.00     0.000 HD 
BRANCH   6   9
HETATM    9  C   UNL     1      -9.348  11.419  68.819  1.00  0.00    -0.115 C  
HETATM   10  C   UNL     1      -9.186  12.105  67.674  1.00  0.00    -0.181 C  
BRANCH  10  11
HETATM   11  C   UNL     1      -9.916  13.385  67.318  1.00  0.00    -0.232 C  
HETATM   12  C   UNL     1     -11.360  13.051  66.882  1.00  0.00    -0.311 C  
HETATM   13  O   UNL     1     -11.415  12.579  65.543  1.00  0.00    -0.320 OA 
HETATM   14  C   UNL     1     -12.138  14.340  67.029  1.00  0.00    -0.424 C  
HETATM   15  H   UNL     1     -12.304  12.374  65.275  1.00  0.00     0.000 HD 
HETATM   16  C   UNL     1     -11.469  14.952  68.219  1.00  0.00    -0.324 C  
HETATM   17  O   UNL     1     -12.006  15.825  68.891  1.00  0.00    -0.382 OA 
HETATM   18  C   UNL     1     -10.072  14.402  68.473  1.00  0.00    -0.244 C  
BRANCH  18  19
HETATM   19  C   UNL     1      -9.009  15.508  68.384  1.00  0.00    -0.189 C  
BRANCH  19  20
HETATM   20  C   UNL     1      -7.803  15.282  69.259  1.00  0.00    -0.221 C  
HETATM   21  C   UNL     1      -6.514  15.497  68.955  1.00  0.00    -0.123 C  
BRANCH  21  22
HETATM   22  C   UNL     1      -5.989  15.996  67.644  1.00  0.00    -0.176 C  
BRANCH  22  23
HETATM   23  C   UNL     1      -5.751  17.505  67.642  1.00  0.00    -0.143 C  
BRANCH  23  24
HETATM   24  C   UNL     1      -6.735  18.177  66.684  1.00  0.00    -0.233 C  
HETATM   25  C   UNL     1      -7.786  18.985  67.402  1.00  0.00    -0.234 C  
HETATM   26  O   UNL     1      -7.878  19.114  68.611  1.00  0.00    -0.331 OA 
HETATM   27  O   UNL     1      -8.647  19.574  66.538  1.00  0.00    -0.314 OA 
ENDBRANCH  23  24
ENDBRANCH  22  23
ENDBRANCH  21  22
ENDBRANCH  19  20
ENDBRANCH  18  19
ENDBRANCH  10  11
ENDBRANCH   6   9
ENDBRANCH   5   6
ENDBRANCH   4   5
ENDBRANCH   3   4
ENDBRANCH   2   3
TORSDOF 11
ENDMDL
MODEL      268
REMARK 921   NORMALIZED FREE ENERGY PREDICTED BY IDOCK:   -3.71 KCAL/MOL
REMARK 922        TOTAL FREE ENERGY PREDICTED BY IDOCK:   -7.91 KCAL/MOL
REMARK 923 INTER-LIGAND FREE ENERGY PREDICTED BY IDOCK:   -6.15 KCAL/MOL
REMARK 924 INTRA-LIGAND FREE ENERGY PREDICTED BY IDOCK:   -1.76 KCAL/MOL
REMARK 927      BINDING AFFINITY PREDICTED BY RF-SCORE:    0.00 PKD
ROOT
HETATM    1  C   UNL     1     -11.841   6.422  72.243  1.00  0.00    -0.315 C  
HETATM    2  C   UNL     1     -12.659   7.521  71.589  1.00  0.00    -0.376 C  
ENDROOT
BRANCH   2   3
HETATM    3  C   UNL     1     -12.942   8.677  72.551  1.00  0.00    -0.346 C  
BRANCH   3   4
HETATM    4  C   UNL     1     -12.851  10.012  71.810  1.00  0.00    -0.546 C  
BRANCH   4   5
HETATM    5  C   UNL     1     -11.577  10.132  70.973  1.00  0.00    -0.462 C  
BRANCH   5   6
HETATM    6  C   UNL     1     -11.847  10.514  69.507  1.00  0.00    -0.215 C  
HETATM    7  O   UNL     1     -11.512   9.380  68.712  1.00  0.00    -0.397 OA 
HETATM    8  H   UNL     1     -11.679   9.615  67.808  1.00  0.00     0.000 HD 
BRANCH   6   9
HETATM    9  C   UNL     1     -11.068  11.733  69.058  1.00  0.00    -0.301 C  
HETATM   10  C   UNL     1     -11.548  12.979  68.896  1.00  0.00    -0.355 C  
BRANCH  10  11
HETATM   11  C   UNL     1     -10.784  14.128  68.268  1.00  0.00    -0.256 C  
HETATM   12  C   UNL     1     -10.340  15.116  69.368  1.00  0.00    -0.255 C  
HETATM   13  O   UNL     1     -11.401  15.969  69.776  1.00  0.00    -0.306 OA 
HETATM   14  C   UNL     1      -9.209  15.919  68.763  1.00  0.00    -0.218 C  
HETATM   15  H   UNL     1     -11.127  16.577  70.453  1.00  0.00     0.000 HD 
HETATM   16  C   UNL     1      -8.561  14.895  67.886  1.00  0.00    -0.160 C  
HETATM   17  O   UNL     1      -7.409  15.017  67.485  1.00  0.00    -0.171 OA 
HETATM   18  C   UNL     1      -9.480  13.734  67.534  1.00  0.00    -0.220 C  
BRANCH  18  19
HETATM   19  C   UNL     1      -9.706  13.638  66.017  1.00  0.00    -0.239 C  
BRANCH  19  20
HETATM   20  C   UNL     1     -10.233  12.304  65.551  1.00  0.00    -0.296 C  
HETATM   21  C   UNL     1      -9.529  11.204  65.241  1.00  0.00    -0.257 C  
BRANCH  21  22
HETATM   22  C   UNL     1      -8.037  11.075  65.270  1.00  0.00     0.158 C  
BRANCH  22  23
HETATM   23  C   UNL     1      -7.555  10.051  66.296  1.00  0.00    -0.106 C  
BRANCH  23  24
HETATM   24  C   UNL     1      -8.312   8.737  66.101  1.00  0.00    -0.126 C  
HETATM   25  C   UNL     1      -8.721   8.102  67.406  1.00  0.00    -0.124 C  
HETATM   26  O   UNL     1      -8.492   8.552  68.516  1.00  0.00    -0.129 OA 
HETATM   27  O   UNL     1      -9.391   6.941  67.213  1.00  0.00    -0.130 OA 
ENDBRANCH  23  24
ENDBRANCH  22  23
ENDBRANCH  21  22
ENDBRANCH  19  20
ENDBRANCH  18  19
ENDBRANCH  10  11
ENDBRANCH   6   9
ENDBRANCH   5   6
ENDBRANCH   4   5
ENDBRANCH   3   4
ENDBRANCH   2   3
TORSDOF 11
ENDMDL
MODEL      269
REMARK 921   NORMALIZED FREE ENERGY PREDICTED BY IDOCK:   -3.71 KCAL/MOL
REMARK 922        TOTAL FREE ENERGY PREDICTED BY IDOCK:   -7.90 KCAL/MOL
REMARK 923 INTER-LIGAND FREE ENERGY PREDICTED BY IDOCK:   -6.94 KCAL/MOL
REMARK 924 INTRA-LIGAND FREE ENERGY PREDICTED BY IDOCK:   -0.97 KCAL/MOL
REMARK 927      BINDING AFFINITY PREDICTED BY RF-SCORE:    0.00 PKD
ROOT
HETATM    1  C   UNL     1     -10.790  15.491  66.987  1.00  0.00    -0.314 C  
HETATM    2  C   UNL     1      -9.970  14.423  67.686  1.00  0.00    -0.224 C  
ENDROOT
BRANCH   2   3
HETATM    3  C   UNL     1     -10.301  13.019  67.177  1.00  0.00    -0.243 C  
BRANCH   3   4
HETATM    4  C   UNL     1      -9.354  11.994  67.804  1.00  0.00    -0.190 C  
BRANCH   4   5
HETATM    5  C   UNL     1      -9.311  10.681  67.021  1.00  0.00    -0.175 C  
BRANCH   5   6
HETATM    6  C   UNL     1     -10.409   9.687  67.441  1.00  0.00    -0.247 C  
HETATM    7  O   UNL     1     -11.571  10.453  67.745  1.00  0.00    -0.654 OA 
HETATM    8  H   UNL     1     -12.248   9.840  68.004  1.00  0.00     0.000 HD 
BRANCH   6   9
HETATM    9  C   UNL     1     -10.009   8.826  68.622  1.00  0.00    -0.197 C  
HETATM   10  C   UNL     1     -10.826   8.075  69.382  1.00  0.00    -0.104 C  
BRANCH  10  11
HETATM   11  C   UNL     1     -10.419   7.379  70.665  1.00  0.00    -0.224 C  
HETATM   12  C   UNL     1      -8.986   6.822  70.519  1.00  0.00    -0.152 C  
HETATM   13  O   UNL     1      -8.960   5.607  69.784  1.00  0.00    -0.125 OA 
HETATM   14  C   UNL     1      -8.487   6.605  71.931  1.00  0.00    -0.114 C  
HETATM   15  H   UNL     1      -8.078   5.265  69.694  1.00  0.00     0.000 HD 
HETATM   16  C   UNL     1      -9.154   7.733  72.653  1.00  0.00    -0.173 C  
HETATM   17  O   UNL     1      -8.752   8.140  73.738  1.00  0.00    -0.262 OA 
HETATM   18  C   UNL     1     -10.372   8.280  71.922  1.00  0.00    -0.324 C  
BRANCH  18  19
HETATM   19  C   UNL     1     -11.648   8.123  72.764  1.00  0.00    -0.371 C  
BRANCH  19  20
HETATM   20  C   UNL     1     -12.897   8.647  72.102  1.00  0.00    -0.442 C  
HETATM   21  C   UNL     1     -13.125   9.885  71.637  1.00  0.00    -0.538 C  
BRANCH  21  22
HETATM   22  C   UNL     1     -12.173  11.040  71.703  1.00  0.00    -0.055 C  
BRANCH  22  23
HETATM   23  C   UNL     1     -12.679  12.263  70.940  1.00  0.00    -0.277 C  
BRANCH  23  24
HETATM   24  C   UNL     1     -13.240  13.287  71.929  1.00  0.00    -0.523 C  
HETATM   25  C   UNL     1     -12.630  14.655  71.757  1.00  0.00    -0.340 C  
HETATM   26  O   UNL     1     -11.781  14.955  70.936  1.00  0.00    -0.294 OA 
HETATM   27  O   UNL     1     -13.140  15.548  72.639  1.00  0.00    -0.379 OA 
ENDBRANCH  23  24
ENDBRANCH  22  23
ENDBRANCH  21  22
ENDBRANCH  19  20
ENDBRANCH  18  19
ENDBRANCH  10  11
ENDBRANCH   6   9
ENDBRANCH   5   6
ENDBRANCH   4   5
ENDBRANCH   3   4
ENDBRANCH   2   3
TORSDOF 11
ENDMDL
MODEL      270
REMARK 921   NORMALIZED FREE ENERGY PREDICTED BY IDOCK:   -3.70 KCAL/MOL
REMARK 922        TOTAL FREE ENERGY PREDICTED BY IDOCK:   -7.89 KCAL/MOL
REMARK 923 INTER-LIGAND FREE ENERGY PREDICTED BY IDOCK:   -5.25 KCAL/MOL
REMARK 924 INTRA-LIGAND FREE ENERGY PREDICTED BY IDOCK:   -2.65 KCAL/MOL
REMARK 927      BINDING AFFINITY PREDICTED BY RF-SCORE:    0.00 PKD
ROOT
HETATM    1  C   UNL     1     -10.625   6.314  66.495  1.00  0.00    -0.179 C  
HETATM    2  C   UNL     1      -9.737   7.526  66.709  1.00  0.00    -0.283 C  
ENDROOT
BRANCH   2   3
HETATM    3  C   UNL     1     -10.531   8.833  66.674  1.00  0.00    -0.240 C  
BRANCH   3   4
HETATM    4  C   UNL     1      -9.587  10.018  66.460  1.00  0.00    -0.237 C  
BRANCH   4   5
HETATM    5  C   UNL     1      -8.438  10.040  67.469  1.00  0.00    -0.118 C  
BRANCH   5   6
HETATM    6  C   UNL     1      -8.803  10.740  68.790  1.00  0.00    -0.163 C  
HETATM    7  O   UNL     1      -7.589  11.231  69.352  1.00  0.00    -0.317 OA 
HETATM    8  H   UNL     1      -7.815  11.663  70.167  1.00  0.00     0.000 HD 
BRANCH   6   9
HETATM    9  C   UNL     1      -9.516   9.827  69.768  1.00  0.00    -0.253 C  
HETATM   10  C   UNL     1      -9.073   8.646  70.234  1.00  0.00    -0.172 C  
BRANCH  10  11
HETATM   11  C   UNL     1      -9.894   7.677  71.061  1.00  0.00    -0.181 C  
HETATM   12  C   UNL     1     -10.260   8.332  72.411  1.00  0.00    -0.327 C  
HETATM   13  O   UNL     1      -9.179   8.291  73.333  1.00  0.00    -0.241 OA 
HETATM   14  C   UNL     1     -11.442   7.547  72.937  1.00  0.00    -0.311 C  
HETATM   15  H   UNL     1      -9.405   8.694  74.163  1.00  0.00     0.000 HD 
HETATM   16  C   UNL     1     -12.147   7.195  71.666  1.00  0.00    -0.336 C  
HETATM   17  O   UNL     1     -13.328   6.866  71.646  1.00  0.00    -0.341 OA 
HETATM   18  C   UNL     1     -11.247   7.258  70.440  1.00  0.00    -0.302 C  
BRANCH  18  19
HETATM   19  C   UNL     1     -11.139   5.888  69.752  1.00  0.00    -0.422 C  
BRANCH  19  20
HETATM   20  C   UNL     1     -10.405   4.845  70.556  1.00  0.00    -0.242 C  
HETATM   21  C   UNL     1      -9.403   4.049  70.152  1.00  0.00    -0.240 C  
BRANCH  21  22
HETATM   22  C   UNL     1      -8.806   4.012  68.779  1.00  0.00    -0.147 C  
BRANCH  22  23
HETATM   23  C   UNL     1      -7.528   4.841  68.670  1.00  0.00    -0.065 C  
BRANCH  23  24
HETATM   24  C   UNL     1      -7.022   5.187  70.072  1.00  0.00    -0.056 C  
HETATM   25  C   UNL     1      -6.076   6.360  70.075  1.00  0.00    -0.030 C  
HETATM   26  O   UNL     1      -5.724   6.990  69.093  1.00  0.00    -0.017 OA 
HETATM   27  O   UNL     1      -5.641   6.653  71.324  1.00  0.00    -0.026 OA 
ENDBRANCH  23  24
ENDBRANCH  22  23
ENDBRANCH  21  22
ENDBRANCH  19  20
ENDBRANCH  18  19
ENDBRANCH  10  11
ENDBRANCH   6   9
ENDBRANCH   5   6
ENDBRANCH   4   5
ENDBRANCH   3   4
ENDBRANCH   2   3
TORSDOF 11
ENDMDL
MODEL      271
REMARK 921   NORMALIZED FREE ENERGY PREDICTED BY IDOCK:   -3.70 KCAL/MOL
REMARK 922        TOTAL FREE ENERGY PREDICTED BY IDOCK:   -7.89 KCAL/MOL
REMARK 923 INTER-LIGAND FREE ENERGY PREDICTED BY IDOCK:   -6.68 KCAL/MOL
REMARK 924 INTRA-LIGAND FREE ENERGY PREDICTED BY IDOCK:   -1.21 KCAL/MOL
REMARK 927      BINDING AFFINITY PREDICTED BY RF-SCORE:    0.00 PKD
ROOT
HETATM    1  C   UNL     1     -12.365  14.030  70.350  1.00  0.00    -0.429 C  
HETATM    2  C   UNL     1     -11.350  14.521  69.335  1.00  0.00    -0.314 C  
ENDROOT
BRANCH   2   3
HETATM    3  C   UNL     1     -11.326  13.649  68.078  1.00  0.00    -0.316 C  
BRANCH   3   4
HETATM    4  C   UNL     1     -12.015  14.374  66.920  1.00  0.00    -0.425 C  
BRANCH   4   5
HETATM    5  C   UNL     1     -11.051  14.710  65.782  1.00  0.00    -0.331 C  
BRANCH   5   6
HETATM    6  C   UNL     1     -11.442  14.061  64.443  1.00  0.00    -0.344 C  
HETATM    7  O   UNL     1     -12.851  13.849  64.478  1.00  0.00    -0.644 OA 
HETATM    8  H   UNL     1     -13.093  13.449  63.651  1.00  0.00     0.000 HD 
BRANCH   6   9
HETATM    9  C   UNL     1     -10.710  12.762  64.177  1.00  0.00    -0.441 C  
HETATM   10  C   UNL     1     -10.588  11.721  65.019  1.00  0.00    -0.338 C  
BRANCH  10  11
HETATM   11  C   UNL     1      -9.693  10.520  64.789  1.00  0.00    -0.365 C  
HETATM   12  C   UNL     1      -9.173  10.533  63.335  1.00  0.00    -0.276 C  
HETATM   13  O   UNL     1     -10.147  10.055  62.418  1.00  0.00    -0.613 OA 
HETATM   14  C   UNL     1      -7.950   9.642  63.331  1.00  0.00    -0.145 C  
HETATM   15  H   UNL     1      -9.827  10.063  61.523  1.00  0.00     0.000 HD 
HETATM   16  C   UNL     1      -7.392   9.906  64.694  1.00  0.00    -0.140 C  
HETATM   17  O   UNL     1      -6.225   9.663  64.978  1.00  0.00    -0.077 OA 
HETATM   18  C   UNL     1      -8.421  10.464  65.668  1.00  0.00    -0.169 C  
BRANCH  18  19
HETATM   19  C   UNL     1      -8.619   9.528  66.871  1.00  0.00    -0.132 C  
BRANCH  19  20
HETATM   20  C   UNL     1      -9.947   9.685  67.567  1.00  0.00    -0.231 C  
HETATM   21  C   UNL     1     -10.664   8.740  68.195  1.00  0.00    -0.131 C  
BRANCH  21  22
HETATM   22  C   UNL     1     -10.298   7.293  68.319  1.00  0.00    -0.227 C  
BRANCH  22  23
HETATM   23  C   UNL     1     -10.048   6.871  69.766  1.00  0.00    -0.196 C  
BRANCH  23  24
HETATM   24  C   UNL     1      -8.692   7.406  70.227  1.00  0.00    -0.146 C  
HETATM   25  C   UNL     1      -7.764   6.313  70.695  1.00  0.00    -0.105 C  
HETATM   26  O   UNL     1      -8.027   5.123  70.722  1.00  0.00    -0.091 OA 
HETATM   27  O   UNL     1      -6.568   6.806  71.098  1.00  0.00    -0.051 OA 
ENDBRANCH  23  24
ENDBRANCH  22  23
ENDBRANCH  21  22
ENDBRANCH  19  20
ENDBRANCH  18  19
ENDBRANCH  10  11
ENDBRANCH   6   9
ENDBRANCH   5   6
ENDBRANCH   4   5
ENDBRANCH   3   4
ENDBRANCH   2   3
TORSDOF 11
ENDMDL
MODEL      272
REMARK 921   NORMALIZED FREE ENERGY PREDICTED BY IDOCK:   -3.69 KCAL/MOL
REMARK 922        TOTAL FREE ENERGY PREDICTED BY IDOCK:   -7.88 KCAL/MOL
REMARK 923 INTER-LIGAND FREE ENERGY PREDICTED BY IDOCK:   -6.83 KCAL/MOL
REMARK 924 INTRA-LIGAND FREE ENERGY PREDICTED BY IDOCK:   -1.06 KCAL/MOL
REMARK 927      BINDING AFFINITY PREDICTED BY RF-SCORE:    0.00 PKD
ROOT
HETATM    1  C   UNL     1      -5.885  19.935  70.501  1.00  0.00    -0.343 C  
HETATM    2  C   UNL     1      -5.434  18.494  70.652  1.00  0.00    -0.229 C  
ENDROOT
BRANCH   2   3
HETATM    3  C   UNL     1      -5.464  17.740  69.322  1.00  0.00    -0.195 C  
BRANCH   3   4
HETATM    4  C   UNL     1      -6.002  18.646  68.213  1.00  0.00    -0.203 C  
BRANCH   4   5
HETATM    5  C   UNL     1      -7.419  18.264  67.781  1.00  0.00    -0.224 C  
BRANCH   5   6
HETATM    6  C   UNL     1      -7.453  17.397  66.510  1.00  0.00    -0.280 C  
HETATM    7  O   UNL     1      -7.691  18.275  65.413  1.00  0.00    -0.340 OA 
HETATM    8  H   UNL     1      -7.712  17.740  64.629  1.00  0.00     0.000 HD 
BRANCH   6   9
HETATM    9  C   UNL     1      -8.504  16.308  66.564  1.00  0.00    -0.338 C  
HETATM   10  C   UNL     1      -9.289  15.897  65.552  1.00  0.00    -0.016 C  
BRANCH  10  11
HETATM   11  C   UNL     1     -10.454  14.938  65.692  1.00  0.00    -0.366 C  
HETATM   12  C   UNL     1     -11.220  14.857  64.353  1.00  0.00    -0.160 C  
HETATM   13  O   UNL     1     -12.084  15.969  64.166  1.00  0.00    -0.853 OA 
HETATM   14  C   UNL     1     -12.011  13.569  64.413  1.00  0.00    -0.466 C  
HETATM   15  H   UNL     1     -12.555  15.919  63.342  1.00  0.00     0.000 HD 
HETATM   16  C   UNL     1     -11.085  12.694  65.198  1.00  0.00    -0.294 C  
HETATM   17  O   UNL     1     -11.172  11.471  65.179  1.00  0.00    -0.245 OA 
HETATM   18  C   UNL     1     -10.073  13.476  66.023  1.00  0.00    -0.316 C  
BRANCH  18  19
HETATM   19  C   UNL     1     -10.232  13.189  67.524  1.00  0.00    -0.225 C  
BRANCH  19  20
HETATM   20  C   UNL     1     -11.662  13.118  67.995  1.00  0.00    -0.394 C  
HETATM   21  C   UNL     1     -12.131  13.320  69.236  1.00  0.00    -0.291 C  
BRANCH  21  22
HETATM   22  C   UNL     1     -11.311  13.642  70.447  1.00  0.00     0.183 C  
BRANCH  22  23
HETATM   23  C   UNL     1     -11.734  14.951  71.113  1.00  0.00    -0.377 C  
BRANCH  23  24
HETATM   24  C   UNL     1     -12.094  15.978  70.039  1.00  0.00    -0.140 C  
HETATM   25  C   UNL     1     -10.891  16.463  69.271  1.00  0.00    -0.327 C  
HETATM   26  O   UNL     1      -9.740  16.105  69.455  1.00  0.00    -0.244 OA 
HETATM   27  O   UNL     1     -11.229  17.370  68.324  1.00  0.00    -0.142 OA 
ENDBRANCH  23  24
ENDBRANCH  22  23
ENDBRANCH  21  22
ENDBRANCH  19  20
ENDBRANCH  18  19
ENDBRANCH  10  11
ENDBRANCH   6   9
ENDBRANCH   5   6
ENDBRANCH   4   5
ENDBRANCH   3   4
ENDBRANCH   2   3
TORSDOF 11
ENDMDL
MODEL      273
REMARK 921   NORMALIZED FREE ENERGY PREDICTED BY IDOCK:   -3.69 KCAL/MOL
REMARK 922        TOTAL FREE ENERGY PREDICTED BY IDOCK:   -7.87 KCAL/MOL
REMARK 923 INTER-LIGAND FREE ENERGY PREDICTED BY IDOCK:   -6.55 KCAL/MOL
REMARK 924 INTRA-LIGAND FREE ENERGY PREDICTED BY IDOCK:   -1.32 KCAL/MOL
REMARK 927      BINDING AFFINITY PREDICTED BY RF-SCORE:    0.00 PKD
ROOT
HETATM    1  C   UNL     1      -9.129   7.758  73.619  1.00  0.00    -0.345 C  
HETATM    2  C   UNL     1     -10.225   6.741  73.882  1.00  0.00    -0.396 C  
ENDROOT
BRANCH   2   3
HETATM    3  C   UNL     1     -10.662   6.024  72.604  1.00  0.00    -0.266 C  
BRANCH   3   4
HETATM    4  C   UNL     1     -12.181   6.115  72.442  1.00  0.00    -0.125 C  
BRANCH   4   5
HETATM    5  C   UNL     1     -12.596   7.135  71.381  1.00  0.00    -0.432 C  
BRANCH   5   6
HETATM    6  C   UNL     1     -12.370   8.593  71.819  1.00  0.00    -0.346 C  
HETATM    7  O   UNL     1     -13.631   9.100  72.249  1.00  0.00    -0.433 OA 
HETATM    8  H   UNL     1     -13.491   9.999  72.519  1.00  0.00     0.000 HD 
BRANCH   6   9
HETATM    9  C   UNL     1     -11.789   9.459  70.720  1.00  0.00    -0.323 C  
HETATM   10  C   UNL     1     -10.886   9.087  69.796  1.00  0.00    -0.215 C  
BRANCH  10  11
HETATM   11  C   UNL     1     -10.191  10.030  68.834  1.00  0.00    -0.206 C  
HETATM   12  C   UNL     1      -9.619   9.225  67.646  1.00  0.00    -0.142 C  
HETATM   13  O   UNL     1      -8.400   8.577  67.981  1.00  0.00    -0.124 OA 
HETATM   14  C   UNL     1      -9.403  10.233  66.538  1.00  0.00    -0.200 C  
HETATM   15  H   UNL     1      -8.048   8.082  67.249  1.00  0.00     0.000 HD 
HETATM   16  C   UNL     1     -10.541  11.175  66.773  1.00  0.00    -0.263 C  
HETATM   17  O   UNL     1     -10.949  11.934  65.902  1.00  0.00    -0.288 OA 
HETATM   18  C   UNL     1     -11.097  11.105  68.189  1.00  0.00    -0.324 C  
BRANCH  18  19
HETATM   19  C   UNL     1     -10.958  12.453  68.913  1.00  0.00    -0.268 C  
BRANCH  19  20
HETATM   20  C   UNL     1     -12.138  13.375  68.741  1.00  0.00    -0.281 C  
HETATM   21  C   UNL     1     -12.229  14.456  67.950  1.00  0.00    -0.178 C  
BRANCH  21  22
HETATM   22  C   UNL     1     -11.145  14.999  67.071  1.00  0.00    -0.334 C  
BRANCH  22  23
HETATM   23  C   UNL     1      -9.919  15.452  67.861  1.00  0.00    -0.221 C  
BRANCH  23  24
HETATM   24  C   UNL     1      -8.652  14.920  67.189  1.00  0.00    -0.248 C  
HETATM   25  C   UNL     1      -7.404  15.227  67.976  1.00  0.00    -0.124 C  
HETATM   26  O   UNL     1      -7.363  15.831  69.034  1.00  0.00    -0.150 OA 
HETATM   27  O   UNL     1      -6.293  14.747  67.367  1.00  0.00    -0.320 OA 
ENDBRANCH  23  24
ENDBRANCH  22  23
ENDBRANCH  21  22
ENDBRANCH  19  20
ENDBRANCH  18  19
ENDBRANCH  10  11
ENDBRANCH   6   9
ENDBRANCH   5   6
ENDBRANCH   4   5
ENDBRANCH   3   4
ENDBRANCH   2   3
TORSDOF 11
ENDMDL
MODEL      274
REMARK 921   NORMALIZED FREE ENERGY PREDICTED BY IDOCK:   -3.68 KCAL/MOL
REMARK 922        TOTAL FREE ENERGY PREDICTED BY IDOCK:   -7.87 KCAL/MOL
REMARK 923 INTER-LIGAND FREE ENERGY PREDICTED BY IDOCK:   -6.74 KCAL/MOL
REMARK 924 INTRA-LIGAND FREE ENERGY PREDICTED BY IDOCK:   -1.13 KCAL/MOL
REMARK 927      BINDING AFFINITY PREDICTED BY RF-SCORE:    0.00 PKD
ROOT
HETATM    1  C   UNL     1     -10.718   3.727  64.014  1.00  0.00    -0.256 C  
HETATM    2  C   UNL     1      -9.632   3.084  64.856  1.00  0.00    -0.099 C  
ENDROOT
BRANCH   2   3
HETATM    3  C   UNL     1      -8.310   3.849  64.773  1.00  0.00    -0.101 C  
BRANCH   3   4
HETATM    4  C   UNL     1      -7.698   3.997  66.167  1.00  0.00    -0.090 C  
BRANCH   4   5
HETATM    5  C   UNL     1      -7.893   5.399  66.747  1.00  0.00    -0.101 C  
BRANCH   5   6
HETATM    6  C   UNL     1      -8.131   6.473  65.671  1.00  0.00    -0.128 C  
HETATM    7  O   UNL     1      -6.851   6.861  65.179  1.00  0.00    -0.049 OA 
HETATM    8  H   UNL     1      -6.997   7.524  64.515  1.00  0.00     0.000 HD 
BRANCH   6   9
HETATM    9  C   UNL     1      -8.892   7.675  66.191  1.00  0.00    -0.192 C  
HETATM   10  C   UNL     1      -9.635   7.734  67.311  1.00  0.00    -0.207 C  
BRANCH  10  11
HETATM   11  C   UNL     1     -10.531   8.893  67.698  1.00  0.00    -0.320 C  
HETATM   12  C   UNL     1     -10.674   8.944  69.235  1.00  0.00    -0.162 C  
HETATM   13  O   UNL     1     -11.609   7.987  69.714  1.00  0.00    -0.435 OA 
HETATM   14  C   UNL     1     -11.134  10.350  69.555  1.00  0.00    -0.314 C  
HETATM   15  H   UNL     1     -11.696   8.019  70.660  1.00  0.00     0.000 HD 
HETATM   16  C   UNL     1     -10.429  11.136  68.496  1.00  0.00    -0.191 C  
HETATM   17  O   UNL     1     -10.242  12.343  68.597  1.00  0.00    -0.218 OA 
HETATM   18  C   UNL     1     -10.011  10.294  67.298  1.00  0.00    -0.233 C  
BRANCH  18  19
HETATM   19  C   UNL     1     -10.682  10.785  66.006  1.00  0.00    -0.168 C  
BRANCH  19  20
HETATM   20  C   UNL     1      -9.818  11.684  65.159  1.00  0.00    -0.281 C  
HETATM   21  C   UNL     1     -10.212  12.566  64.228  1.00  0.00    -0.359 C  
BRANCH  21  22
HETATM   22  C   UNL     1     -11.624  12.831  63.806  1.00  0.00    -0.548 C  
BRANCH  22  23
HETATM   23  C   UNL     1     -12.201  14.094  64.445  1.00  0.00    -0.466 C  
BRANCH  23  24
HETATM   24  C   UNL     1     -11.080  14.882  65.123  1.00  0.00    -0.399 C  
HETATM   25  C   UNL     1     -10.949  16.285  64.586  1.00  0.00    -0.194 C  
HETATM   26  O   UNL     1     -11.638  16.776  63.709  1.00  0.00    -0.920 OA 
HETATM   27  O   UNL     1      -9.953  16.968  65.199  1.00  0.00    -0.310 OA 
ENDBRANCH  23  24
ENDBRANCH  22  23
ENDBRANCH  21  22
ENDBRANCH  19  20
ENDBRANCH  18  19
ENDBRANCH  10  11
ENDBRANCH   6   9
ENDBRANCH   5   6
ENDBRANCH   4   5
ENDBRANCH   3   4
ENDBRANCH   2   3
TORSDOF 11
ENDMDL
MODEL      275
REMARK 921   NORMALIZED FREE ENERGY PREDICTED BY IDOCK:   -3.66 KCAL/MOL
REMARK 922        TOTAL FREE ENERGY PREDICTED BY IDOCK:   -7.83 KCAL/MOL
REMARK 923 INTER-LIGAND FREE ENERGY PREDICTED BY IDOCK:   -5.73 KCAL/MOL
REMARK 924 INTRA-LIGAND FREE ENERGY PREDICTED BY IDOCK:   -2.09 KCAL/MOL
REMARK 927      BINDING AFFINITY PREDICTED BY RF-SCORE:    0.00 PKD
ROOT
HETATM    1  C   UNL     1     -10.559  14.367  66.866  1.00  0.00    -0.278 C  
HETATM    2  C   UNL     1     -12.017  13.968  66.733  1.00  0.00    -0.473 C  
ENDROOT
BRANCH   2   3
HETATM    3  C   UNL     1     -12.501  14.030  65.283  1.00  0.00    -0.495 C  
BRANCH   3   4
HETATM    4  C   UNL     1     -12.447  12.640  64.649  1.00  0.00    -0.538 C  
BRANCH   4   5
HETATM    5  C   UNL     1     -11.733  12.640  63.296  1.00  0.00    -0.466 C  
BRANCH   5   6
HETATM    6  C   UNL     1     -10.380  11.908  63.324  1.00  0.00    -0.391 C  
HETATM    7  O   UNL     1     -10.488  10.799  62.435  1.00  0.00    -0.601 OA 
HETATM    8  H   UNL     1      -9.653  10.347  62.452  1.00  0.00     0.000 HD 
BRANCH   6   9
HETATM    9  C   UNL     1      -9.982  11.447  64.711  1.00  0.00    -0.313 C  
HETATM   10  C   UNL     1      -9.059  10.519  65.016  1.00  0.00    -0.231 C  
BRANCH  10  11
HETATM   11  C   UNL     1      -8.823   9.952  66.402  1.00  0.00    -0.159 C  
HETATM   12  C   UNL     1      -7.673  10.722  67.086  1.00  0.00    -0.120 C  
HETATM   13  O   UNL     1      -6.398  10.289  66.630  1.00  0.00    -0.067 OA 
HETATM   14  C   UNL     1      -7.830  10.457  68.568  1.00  0.00    -0.107 C  
HETATM   15  H   UNL     1      -5.691  10.763  67.052  1.00  0.00     0.000 HD 
HETATM   16  C   UNL     1      -9.318  10.377  68.694  1.00  0.00    -0.167 C  
HETATM   17  O   UNL     1      -9.890  10.523  69.768  1.00  0.00    -0.160 OA 
HETATM   18  C   UNL     1     -10.018  10.069  67.377  1.00  0.00    -0.242 C  
BRANCH  18  19
HETATM   19  C   UNL     1     -10.801   8.749  67.454  1.00  0.00    -0.087 C  
BRANCH  19  20
HETATM   20  C   UNL     1     -10.248   7.647  66.586  1.00  0.00    -0.272 C  
HETATM   21  C   UNL     1      -9.617   6.529  66.978  1.00  0.00    -0.174 C  
BRANCH  21  22
HETATM   22  C   UNL     1      -9.302   6.144  68.390  1.00  0.00    -0.116 C  
BRANCH  22  23
HETATM   23  C   UNL     1      -7.979   6.733  68.879  1.00  0.00    -0.116 C  
BRANCH  23  24
HETATM   24  C   UNL     1      -6.838   6.232  67.993  1.00  0.00    -0.070 C  
HETATM   25  C   UNL     1      -6.306   4.892  68.432  1.00  0.00    -0.036 C  
HETATM   26  O   UNL     1      -6.710   4.246  69.384  1.00  0.00    -0.042 OA 
HETATM   27  O   UNL     1      -5.298   4.463  67.635  1.00  0.00    -0.011 OA 
ENDBRANCH  23  24
ENDBRANCH  22  23
ENDBRANCH  21  22
ENDBRANCH  19  20
ENDBRANCH  18  19
ENDBRANCH  10  11
ENDBRANCH   6   9
ENDBRANCH   5   6
ENDBRANCH   4   5
ENDBRANCH   3   4
ENDBRANCH   2   3
TORSDOF 11
ENDMDL
MODEL      276
REMARK 921   NORMALIZED FREE ENERGY PREDICTED BY IDOCK:   -3.65 KCAL/MOL
REMARK 922        TOTAL FREE ENERGY PREDICTED BY IDOCK:   -7.82 KCAL/MOL
REMARK 923 INTER-LIGAND FREE ENERGY PREDICTED BY IDOCK:   -6.18 KCAL/MOL
REMARK 924 INTRA-LIGAND FREE ENERGY PREDICTED BY IDOCK:   -1.64 KCAL/MOL
REMARK 927      BINDING AFFINITY PREDICTED BY RF-SCORE:    0.00 PKD
ROOT
HETATM    1  C   UNL     1     -12.062  12.607  63.403  1.00  0.00    -0.614 C  
HETATM    2  C   UNL     1     -11.318  13.538  64.343  1.00  0.00    -0.407 C  
ENDROOT
BRANCH   2   3
HETATM    3  C   UNL     1     -12.136  13.866  65.593  1.00  0.00    -0.442 C  
BRANCH   3   4
HETATM    4  C   UNL     1     -12.019  12.731  66.613  1.00  0.00    -0.411 C  
BRANCH   4   5
HETATM    5  C   UNL     1     -10.566  12.362  66.914  1.00  0.00    -0.251 C  
BRANCH   5   6
HETATM    6  C   UNL     1     -10.275  12.220  68.418  1.00  0.00    -0.217 C  
HETATM    7  O   UNL     1      -9.206  13.113  68.722  1.00  0.00    -0.388 OA 
HETATM    8  H   UNL     1      -9.027  13.025  69.651  1.00  0.00     0.000 HD 
BRANCH   6   9
HETATM    9  C   UNL     1      -9.922  10.803  68.823  1.00  0.00    -0.201 C  
HETATM   10  C   UNL     1      -8.746  10.377  69.316  1.00  0.00    -0.160 C  
BRANCH  10  11
HETATM   11  C   UNL     1      -8.370   8.925  69.532  1.00  0.00    -0.119 C  
HETATM   12  C   UNL     1      -7.474   8.445  68.369  1.00  0.00    -0.095 C  
HETATM   13  O   UNL     1      -8.230   8.136  67.207  1.00  0.00    -0.118 OA 
HETATM   14  C   UNL     1      -6.760   7.215  68.886  1.00  0.00    -0.060 C  
HETATM   15  H   UNL     1      -7.678   7.841  66.492  1.00  0.00     0.000 HD 
HETATM   16  C   UNL     1      -6.584   7.564  70.330  1.00  0.00    -0.039 C  
HETATM   17  O   UNL     1      -5.751   7.009  71.038  1.00  0.00    -0.027 OA 
HETATM   18  C   UNL     1      -7.553   8.635  70.813  1.00  0.00    -0.083 C  
BRANCH  18  19
HETATM   19  C   UNL     1      -8.456   8.107  71.938  1.00  0.00    -0.196 C  
BRANCH  19  20
HETATM   20  C   UNL     1      -9.716   8.907  72.149  1.00  0.00    -0.232 C  
HETATM   21  C   UNL     1     -10.956   8.445  72.375  1.00  0.00    -0.425 C  
BRANCH  21  22
HETATM   22  C   UNL     1     -11.362   7.005  72.442  1.00  0.00    -0.307 C  
BRANCH  22  23
HETATM   23  C   UNL     1     -12.286   6.601  71.294  1.00  0.00    -0.329 C  
BRANCH  23  24
HETATM   24  C   UNL     1     -11.551   6.766  69.963  1.00  0.00    -0.367 C  
HETATM   25  C   UNL     1     -10.556   5.663  69.708  1.00  0.00    -0.329 C  
HETATM   26  O   UNL     1     -10.329   4.725  70.454  1.00  0.00    -0.223 OA 
HETATM   27  O   UNL     1      -9.917   5.824  68.525  1.00  0.00    -0.136 OA 
ENDBRANCH  23  24
ENDBRANCH  22  23
ENDBRANCH  21  22
ENDBRANCH  19  20
ENDBRANCH  18  19
ENDBRANCH  10  11
ENDBRANCH   6   9
ENDBRANCH   5   6
ENDBRANCH   4   5
ENDBRANCH   3   4
ENDBRANCH   2   3
TORSDOF 11
ENDMDL
MODEL      277
REMARK 921   NORMALIZED FREE ENERGY PREDICTED BY IDOCK:   -3.65 KCAL/MOL
REMARK 922        TOTAL FREE ENERGY PREDICTED BY IDOCK:   -7.81 KCAL/MOL
REMARK 923 INTER-LIGAND FREE ENERGY PREDICTED BY IDOCK:   -6.21 KCAL/MOL
REMARK 924 INTRA-LIGAND FREE ENERGY PREDICTED BY IDOCK:   -1.61 KCAL/MOL
REMARK 927      BINDING AFFINITY PREDICTED BY RF-SCORE:    0.00 PKD
ROOT
HETATM    1  C   UNL     1     -10.453   5.851  70.545  1.00  0.00    -0.319 C  
HETATM    2  C   UNL     1      -8.951   6.018  70.680  1.00  0.00    -0.150 C  
ENDROOT
BRANCH   2   3
HETATM    3  C   UNL     1      -8.583   7.146  71.645  1.00  0.00    -0.114 C  
BRANCH   3   4
HETATM    4  C   UNL     1      -7.857   8.265  70.896  1.00  0.00    -0.091 C  
BRANCH   4   5
HETATM    5  C   UNL     1      -8.822   9.263  70.255  1.00  0.00    -0.254 C  
BRANCH   5   6
HETATM    6  C   UNL     1      -8.836   9.193  68.717  1.00  0.00    -0.132 C  
HETATM    7  O   UNL     1      -7.482   9.057  68.294  1.00  0.00    -0.082 OA 
HETATM    8  H   UNL     1      -7.491   9.014  67.346  1.00  0.00     0.000 HD 
BRANCH   6   9
HETATM    9  C   UNL     1      -9.481  10.404  68.074  1.00  0.00    -0.152 C  
HETATM   10  C   UNL     1      -9.161  11.693  68.286  1.00  0.00    -0.187 C  
BRANCH  10  11
HETATM   11  C   UNL     1      -9.950  12.879  67.769  1.00  0.00    -0.230 C  
HETATM   12  C   UNL     1      -9.310  13.394  66.461  1.00  0.00    -0.215 C  
HETATM   13  O   UNL     1      -8.163  14.194  66.709  1.00  0.00    -0.399 OA 
HETATM   14  C   UNL     1     -10.388  14.203  65.772  1.00  0.00    -0.338 C  
HETATM   15  H   UNL     1      -7.770  14.511  65.904  1.00  0.00     0.000 HD 
HETATM   16  C   UNL     1     -11.617  13.446  66.163  1.00  0.00    -0.346 C  
HETATM   17  O   UNL     1     -12.670  13.547  65.543  1.00  0.00    -0.491 OA 
HETATM   18  C   UNL     1     -11.424  12.585  67.404  1.00  0.00    -0.404 C  
BRANCH  18  19
HETATM   19  C   UNL     1     -12.370  13.014  68.537  1.00  0.00     0.169 C  
BRANCH  19  20
HETATM   20  C   UNL     1     -11.671  13.537  69.766  1.00  0.00    -0.363 C  
HETATM   21  C   UNL     1     -11.447  14.816  70.104  1.00  0.00    -0.313 C  
BRANCH  21  22
HETATM   22  C   UNL     1     -11.832  16.020  69.300  1.00  0.00    -0.264 C  
BRANCH  22  23
HETATM   23  C   UNL     1     -10.744  16.441  68.314  1.00  0.00    -0.337 C  
BRANCH  23  24
HETATM   24  C   UNL     1     -10.210  17.822  68.699  1.00  0.00    -0.377 C  
HETATM   25  C   UNL     1      -8.932  18.172  67.980  1.00  0.00    -0.283 C  
HETATM   26  O   UNL     1      -8.353  17.463  67.176  1.00  0.00    -0.204 OA 
HETATM   27  O   UNL     1      -8.476  19.398  68.332  1.00  0.00    -0.333 OA 
ENDBRANCH  23  24
ENDBRANCH  22  23
ENDBRANCH  21  22
ENDBRANCH  19  20
ENDBRANCH  18  19
ENDBRANCH  10  11
ENDBRANCH   6   9
ENDBRANCH   5   6
ENDBRANCH   4   5
ENDBRANCH   3   4
ENDBRANCH   2   3
TORSDOF 11
ENDMDL
MODEL      278
REMARK 921   NORMALIZED FREE ENERGY PREDICTED BY IDOCK:   -3.64 KCAL/MOL
REMARK 922        TOTAL FREE ENERGY PREDICTED BY IDOCK:   -7.79 KCAL/MOL
REMARK 923 INTER-LIGAND FREE ENERGY PREDICTED BY IDOCK:   -6.21 KCAL/MOL
REMARK 924 INTRA-LIGAND FREE ENERGY PREDICTED BY IDOCK:   -1.58 KCAL/MOL
REMARK 927      BINDING AFFINITY PREDICTED BY RF-SCORE:    0.00 PKD
ROOT
HETATM    1  C   UNL     1      -6.904  20.130  71.615  1.00  0.00     0.549 C  
HETATM    2  C   UNL     1      -5.612  19.362  71.407  1.00  0.00    -0.255 C  
ENDROOT
BRANCH   2   3
HETATM    3  C   UNL     1      -5.172  19.363  69.942  1.00  0.00    -0.217 C  
BRANCH   3   4
HETATM    4  C   UNL     1      -5.705  20.609  69.232  1.00  0.00    -0.408 C  
BRANCH   4   5
HETATM    5  C   UNL     1      -6.764  20.275  68.181  1.00  0.00    -0.330 C  
BRANCH   5   6
HETATM    6  C   UNL     1      -6.461  18.984  67.401  1.00  0.00    -0.196 C  
HETATM    7  O   UNL     1      -6.252  19.357  66.042  1.00  0.00    -0.177 OA 
HETATM    8  H   UNL     1      -6.064  18.560  65.561  1.00  0.00     0.000 HD 
BRANCH   6   9
HETATM    9  C   UNL     1      -7.564  17.951  67.511  1.00  0.00    -0.217 C  
HETATM   10  C   UNL     1      -8.050  17.185  66.518  1.00  0.00    -0.318 C  
BRANCH  10  11
HETATM   11  C   UNL     1      -9.277  16.302  66.626  1.00  0.00    -0.271 C  
HETATM   12  C   UNL     1     -10.118  16.427  65.337  1.00  0.00    -0.100 C  
HETATM   13  O   UNL     1     -10.902  17.612  65.326  1.00  0.00    -0.600 OA 
HETATM   14  C   UNL     1     -11.002  15.199  65.306  1.00  0.00    -0.405 C  
HETATM   15  H   UNL     1     -11.420  17.688  64.533  1.00  0.00     0.000 HD 
HETATM   16  C   UNL     1     -10.106  14.178  65.932  1.00  0.00    -0.321 C  
HETATM   17  O   UNL     1     -10.288  12.975  65.786  1.00  0.00    -0.277 OA 
HETATM   18  C   UNL     1      -8.993  14.788  66.772  1.00  0.00    -0.292 C  
BRANCH  18  19
HETATM   19  C   UNL     1      -9.092  14.346  68.241  1.00  0.00    -0.193 C  
BRANCH  19  20
HETATM   20  C   UNL     1     -10.036  15.173  69.075  1.00  0.00    -0.239 C  
HETATM   21  C   UNL     1     -11.307  14.891  69.403  1.00  0.00    -0.312 C  
BRANCH  21  22
HETATM   22  C   UNL     1     -12.079  13.681  68.976  1.00  0.00    -0.348 C  
BRANCH  22  23
HETATM   23  C   UNL     1     -12.070  12.576  70.032  1.00  0.00    -0.337 C  
BRANCH  23  24
HETATM   24  C   UNL     1     -12.145  11.212  69.344  1.00  0.00    -0.396 C  
HETATM   25  C   UNL     1     -10.790  10.692  68.935  1.00  0.00    -0.231 C  
HETATM   26  O   UNL     1      -9.729  11.265  69.110  1.00  0.00    -0.112 OA 
HETATM   27  O   UNL     1     -10.876   9.483  68.331  1.00  0.00    -0.207 OA 
ENDBRANCH  23  24
ENDBRANCH  22  23
ENDBRANCH  21  22
ENDBRANCH  19  20
ENDBRANCH  18  19
ENDBRANCH  10  11
ENDBRANCH   6   9
ENDBRANCH   5   6
ENDBRANCH   4   5
ENDBRANCH   3   4
ENDBRANCH   2   3
TORSDOF 11
ENDMDL
MODEL      279
REMARK 921   NORMALIZED FREE ENERGY PREDICTED BY IDOCK:   -3.63 KCAL/MOL
REMARK 922        TOTAL FREE ENERGY PREDICTED BY IDOCK:   -7.78 KCAL/MOL
REMARK 923 INTER-LIGAND FREE ENERGY PREDICTED BY IDOCK:   -7.64 KCAL/MOL
REMARK 924 INTRA-LIGAND FREE ENERGY PREDICTED BY IDOCK:   -0.14 KCAL/MOL
REMARK 927      BINDING AFFINITY PREDICTED BY RF-SCORE:    0.00 PKD
ROOT
HETATM    1  C   UNL     1      -6.215  18.682  65.207  1.00  0.00    -0.312 C  
HETATM    2  C   UNL     1      -6.074  18.317  66.673  1.00  0.00    -0.189 C  
ENDROOT
BRANCH   2   3
HETATM    3  C   UNL     1      -7.432  18.140  67.354  1.00  0.00    -0.219 C  
BRANCH   3   4
HETATM    4  C   UNL     1      -8.481  17.699  66.332  1.00  0.00    -0.279 C  
BRANCH   4   5
HETATM    5  C   UNL     1      -9.646  18.685  66.227  1.00  0.00    -0.295 C  
BRANCH   5   6
HETATM    6  C   UNL     1     -10.397  18.881  67.555  1.00  0.00    -0.426 C  
HETATM    7  O   UNL     1      -9.819  20.013  68.198  1.00  0.00    -0.379 OA 
HETATM    8  H   UNL     1     -10.282  20.135  69.018  1.00  0.00     0.000 HD 
BRANCH   6   9
HETATM    9  C   UNL     1     -10.339  17.664  68.456  1.00  0.00    -0.370 C  
HETATM   10  C   UNL     1     -10.744  16.419  68.151  1.00  0.00    -0.336 C  
BRANCH  10  11
HETATM   11  C   UNL     1     -10.843  15.273  69.139  1.00  0.00    -0.250 C  
HETATM   12  C   UNL     1     -12.177  15.371  69.911  1.00  0.00    -0.334 C  
HETATM   13  O   UNL     1     -12.119  16.337  70.951  1.00  0.00    -0.530 OA 
HETATM   14  C   UNL     1     -12.423  13.989  70.477  1.00  0.00    -0.429 C  
HETATM   15  H   UNL     1     -12.940  16.397  71.427  1.00  0.00     0.000 HD 
HETATM   16  C   UNL     1     -11.843  13.126  69.402  1.00  0.00    -0.326 C  
HETATM   17  O   UNL     1     -12.140  11.942  69.286  1.00  0.00    -0.282 OA 
HETATM   18  C   UNL     1     -10.847  13.858  68.514  1.00  0.00    -0.274 C  
BRANCH  18  19
HETATM   19  C   UNL     1      -9.452  13.217  68.588  1.00  0.00    -0.020 C  
BRANCH  19  20
HETATM   20  C   UNL     1      -9.458  11.711  68.544  1.00  0.00    -0.175 C  
HETATM   21  C   UNL     1      -9.272  10.917  67.477  1.00  0.00    -0.153 C  
BRANCH  21  22
HETATM   22  C   UNL     1      -9.040  11.373  66.070  1.00  0.00    -0.218 C  
BRANCH  22  23
HETATM   23  C   UNL     1     -10.240  11.112  65.161  1.00  0.00    -0.347 C  
BRANCH  23  24
HETATM   24  C   UNL     1     -11.481  11.789  65.745  1.00  0.00    -0.258 C  
HETATM   25  C   UNL     1     -11.724  13.158  65.163  1.00  0.00    -0.336 C  
HETATM   26  O   UNL     1     -11.033  13.703  64.320  1.00  0.00    -0.382 OA 
HETATM   27  O   UNL     1     -12.828  13.741  65.689  1.00  0.00    -0.521 OA 
ENDBRANCH  23  24
ENDBRANCH  22  23
ENDBRANCH  21  22
ENDBRANCH  19  20
ENDBRANCH  18  19
ENDBRANCH  10  11
ENDBRANCH   6   9
ENDBRANCH   5   6
ENDBRANCH   4   5
ENDBRANCH   3   4
ENDBRANCH   2   3
TORSDOF 11
ENDMDL
MODEL      280
REMARK 921   NORMALIZED FREE ENERGY PREDICTED BY IDOCK:   -3.58 KCAL/MOL
REMARK 922        TOTAL FREE ENERGY PREDICTED BY IDOCK:   -7.69 KCAL/MOL
REMARK 923 INTER-LIGAND FREE ENERGY PREDICTED BY IDOCK:   -5.48 KCAL/MOL
REMARK 924 INTRA-LIGAND FREE ENERGY PREDICTED BY IDOCK:   -2.21 KCAL/MOL
REMARK 927      BINDING AFFINITY PREDICTED BY RF-SCORE:    0.00 PKD
ROOT
HETATM    1  C   UNL     1      -9.977  11.105  63.208  1.00  0.00    -0.419 C  
HETATM    2  C   UNL     1      -8.744  10.537  62.531  1.00  0.00    -0.270 C  
ENDROOT
BRANCH   2   3
HETATM    3  C   UNL     1      -8.077   9.448  63.373  1.00  0.00    -0.153 C  
BRANCH   3   4
HETATM    4  C   UNL     1      -6.717   9.933  63.881  1.00  0.00    -0.126 C  
BRANCH   4   5
HETATM    5  C   UNL     1      -6.430   9.477  65.312  1.00  0.00    -0.078 C  
BRANCH   5   6
HETATM    6  C   UNL     1      -6.575  10.604  66.349  1.00  0.00    -0.120 C  
HETATM    7  O   UNL     1      -6.297  10.034  67.625  1.00  0.00    -0.058 OA 
HETATM    8  H   UNL     1      -6.387  10.730  68.266  1.00  0.00     0.000 HD 
BRANCH   6   9
HETATM    9  C   UNL     1      -7.945  11.250  66.336  1.00  0.00    -0.125 C  
HETATM   10  C   UNL     1      -8.305  12.386  66.959  1.00  0.00    -0.157 C  
BRANCH  10  11
HETATM   11  C   UNL     1      -9.726  12.899  67.076  1.00  0.00    -0.230 C  
HETATM   12  C   UNL     1      -9.881  14.188  66.241  1.00  0.00    -0.306 C  
HETATM   13  O   UNL     1      -9.355  15.324  66.913  1.00  0.00    -0.215 OA 
HETATM   14  C   UNL     1     -11.367  14.346  66.006  1.00  0.00    -0.335 C  
HETATM   15  H   UNL     1      -9.451  16.117  66.399  1.00  0.00     0.000 HD 
HETATM   16  C   UNL     1     -11.800  12.917  65.902  1.00  0.00    -0.424 C  
HETATM   17  O   UNL     1     -12.855  12.593  65.370  1.00  0.00    -0.582 OA 
HETATM   18  C   UNL     1     -10.821  11.944  66.545  1.00  0.00    -0.317 C  
BRANCH  18  19
HETATM   19  C   UNL     1     -11.479  11.162  67.693  1.00  0.00    -0.328 C  
BRANCH  19  20
HETATM   20  C   UNL     1     -11.051   9.720  67.787  1.00  0.00    -0.142 C  
HETATM   21  C   UNL     1     -10.137   9.185  68.611  1.00  0.00    -0.212 C  
BRANCH  21  22
HETATM   22  C   UNL     1      -9.313   9.930  69.616  1.00  0.00    -0.247 C  
BRANCH  22  23
HETATM   23  C   UNL     1      -8.975   9.084  70.843  1.00  0.00    -0.300 C  
BRANCH  23  24
HETATM   24  C   UNL     1      -8.871   7.613  70.437  1.00  0.00    -0.144 C  
HETATM   25  C   UNL     1      -7.449   7.176  70.194  1.00  0.00    -0.089 C  
HETATM   26  O   UNL     1      -6.462   7.884  70.297  1.00  0.00    -0.037 OA 
HETATM   27  O   UNL     1      -7.377   5.871  69.839  1.00  0.00    -0.071 OA 
ENDBRANCH  23  24
ENDBRANCH  22  23
ENDBRANCH  21  22
ENDBRANCH  19  20
ENDBRANCH  18  19
ENDBRANCH  10  11
ENDBRANCH   6   9
ENDBRANCH   5   6
ENDBRANCH   4   5
ENDBRANCH   3   4
ENDBRANCH   2   3
TORSDOF 11
ENDMDL
MODEL      281
REMARK 921   NORMALIZED FREE ENERGY PREDICTED BY IDOCK:   -3.57 KCAL/MOL
REMARK 922        TOTAL FREE ENERGY PREDICTED BY IDOCK:   -7.69 KCAL/MOL
REMARK 923 INTER-LIGAND FREE ENERGY PREDICTED BY IDOCK:   -6.46 KCAL/MOL
REMARK 924 INTRA-LIGAND FREE ENERGY PREDICTED BY IDOCK:   -1.23 KCAL/MOL
REMARK 927      BINDING AFFINITY PREDICTED BY RF-SCORE:    0.00 PKD
ROOT
HETATM    1  C   UNL     1     -13.181   6.844  71.904  1.00  0.00    -0.218 C  
HETATM    2  C   UNL     1     -11.980   5.947  72.139  1.00  0.00    -0.191 C  
ENDROOT
BRANCH   2   3
HETATM    3  C   UNL     1     -10.901   6.139  71.073  1.00  0.00    -0.338 C  
BRANCH   3   4
HETATM    4  C   UNL     1     -11.306   7.255  70.108  1.00  0.00    -0.236 C  
BRANCH   4   5
HETATM    5  C   UNL     1     -10.557   8.561  70.377  1.00  0.00    -0.242 C  
BRANCH   5   6
HETATM    6  C   UNL     1     -10.161   9.310  69.093  1.00  0.00    -0.199 C  
HETATM    7  O   UNL     1      -8.762   9.568  69.175  1.00  0.00    -0.133 OA 
HETATM    8  H   UNL     1      -8.517  10.029  68.382  1.00  0.00     0.000 HD 
BRANCH   6   9
HETATM    9  C   UNL     1     -10.933  10.598  68.895  1.00  0.00    -0.296 C  
HETATM   10  C   UNL     1     -11.163  11.548  69.819  1.00  0.00    -0.237 C  
BRANCH  10  11
HETATM   11  C   UNL     1     -12.095  12.729  69.636  1.00  0.00    -0.286 C  
HETATM   12  C   UNL     1     -12.297  13.442  70.991  1.00  0.00    -0.315 C  
HETATM   13  O   UNL     1     -13.231  12.760  71.817  1.00  0.00    -0.429 OA 
HETATM   14  C   UNL     1     -12.797  14.829  70.651  1.00  0.00    -0.398 C  
HETATM   15  H   UNL     1     -13.355  13.199  72.650  1.00  0.00     0.000 HD 
HETATM   16  C   UNL     1     -12.068  15.097  69.372  1.00  0.00    -0.260 C  
HETATM   17  O   UNL     1     -11.908  16.233  68.939  1.00  0.00    -0.284 OA 
HETATM   18  C   UNL     1     -11.588  13.831  68.676  1.00  0.00    -0.369 C  
BRANCH  18  19
HETATM   19  C   UNL     1     -12.220  13.684  67.283  1.00  0.00    -0.317 C  
BRANCH  19  20
HETATM   20  C   UNL     1     -11.275  13.177  66.223  1.00  0.00    -0.328 C  
HETATM   21  C   UNL     1      -9.987  13.509  66.041  1.00  0.00    -0.308 C  
BRANCH  21  22
HETATM   22  C   UNL     1      -9.208  14.495  66.856  1.00  0.00    -0.267 C  
BRANCH  22  23
HETATM   23  C   UNL     1      -8.453  13.837  68.010  1.00  0.00    -0.176 C  
BRANCH  23  24
HETATM   24  C   UNL     1      -7.009  13.564  67.587  1.00  0.00    -0.176 C  
HETATM   25  C   UNL     1      -6.794  12.142  67.135  1.00  0.00    -0.119 C  
HETATM   26  O   UNL     1      -7.648  11.273  67.096  1.00  0.00    -0.121 OA 
HETATM   27  O   UNL     1      -5.511  11.920  66.762  1.00  0.00    -0.215 OA 
ENDBRANCH  23  24
ENDBRANCH  22  23
ENDBRANCH  21  22
ENDBRANCH  19  20
ENDBRANCH  18  19
ENDBRANCH  10  11
ENDBRANCH   6   9
ENDBRANCH   5   6
ENDBRANCH   4   5
ENDBRANCH   3   4
ENDBRANCH   2   3
TORSDOF 11
ENDMDL
MODEL      282
REMARK 921   NORMALIZED FREE ENERGY PREDICTED BY IDOCK:   -3.57 KCAL/MOL
REMARK 922        TOTAL FREE ENERGY PREDICTED BY IDOCK:   -7.68 KCAL/MOL
REMARK 923 INTER-LIGAND FREE ENERGY PREDICTED BY IDOCK:   -6.93 KCAL/MOL
REMARK 924 INTRA-LIGAND FREE ENERGY PREDICTED BY IDOCK:   -0.75 KCAL/MOL
REMARK 927      BINDING AFFINITY PREDICTED BY RF-SCORE:    0.00 PKD
ROOT
HETATM    1  C   UNL     1     -13.673   7.136  71.471  1.00  0.00    -0.413 C  
HETATM    2  C   UNL     1     -14.136   8.581  71.487  1.00  0.00    -0.428 C  
ENDROOT
BRANCH   2   3
HETATM    3  C   UNL     1     -13.110   9.507  72.142  1.00  0.00    -0.522 C  
BRANCH   3   4
HETATM    4  C   UNL     1     -11.794   9.470  71.363  1.00  0.00    -0.464 C  
BRANCH   4   5
HETATM    5  C   UNL     1     -11.827  10.356  70.116  1.00  0.00    -0.379 C  
BRANCH   5   6
HETATM    6  C   UNL     1     -10.739   9.998  69.088  1.00  0.00    -0.220 C  
HETATM    7  O   UNL     1     -11.188  10.475  67.823  1.00  0.00    -0.303 OA 
HETATM    8  H   UNL     1     -10.516  10.255  67.189  1.00  0.00     0.000 HD 
BRANCH   6   9
HETATM    9  C   UNL     1     -10.445   8.513  69.028  1.00  0.00    -0.216 C  
HETATM   10  C   UNL     1     -11.067   7.600  68.261  1.00  0.00     0.228 C  
BRANCH  10  11
HETATM   11  C   UNL     1     -10.873   6.101  68.366  1.00  0.00    -0.382 C  
HETATM   12  C   UNL     1     -10.293   5.561  67.040  1.00  0.00    -0.254 C  
HETATM   13  O   UNL     1     -11.294   5.419  66.041  1.00  0.00    -0.773 OA 
HETATM   14  C   UNL     1      -9.681   4.219  67.379  1.00  0.00    -0.210 C  
HETATM   15  H   UNL     1     -10.937   5.087  65.225  1.00  0.00     0.000 HD 
HETATM   16  C   UNL     1      -9.185   4.468  68.768  1.00  0.00    -0.131 C  
HETATM   17  O   UNL     1      -8.323   3.768  69.287  1.00  0.00    -0.063 OA 
HETATM   18  C   UNL     1      -9.878   5.636  69.456  1.00  0.00    -0.238 C  
BRANCH  18  19
HETATM   19  C   UNL     1     -10.619   5.183  70.723  1.00  0.00    -0.205 C  
BRANCH  19  20
HETATM   20  C   UNL     1      -9.949   4.053  71.463  1.00  0.00    -0.220 C  
HETATM   21  C   UNL     1      -9.788   3.918  72.788  1.00  0.00    -0.199 C  
BRANCH  21  22
HETATM   22  C   UNL     1     -10.228   4.896  73.834  1.00  0.00    -0.257 C  
BRANCH  22  23
HETATM   23  C   UNL     1     -10.749   6.202  73.235  1.00  0.00    -0.282 C  
BRANCH  23  24
HETATM   24  C   UNL     1      -9.961   7.379  73.812  1.00  0.00    -0.333 C  
HETATM   25  C   UNL     1      -8.626   7.571  73.139  1.00  0.00    -0.150 C  
HETATM   26  O   UNL     1      -8.183   6.885  72.234  1.00  0.00    -0.104 OA 
HETATM   27  O   UNL     1      -7.944   8.618  73.661  1.00  0.00    -0.412 OA 
ENDBRANCH  23  24
ENDBRANCH  22  23
ENDBRANCH  21  22
ENDBRANCH  19  20
ENDBRANCH  18  19
ENDBRANCH  10  11
ENDBRANCH   6   9
ENDBRANCH   5   6
ENDBRANCH   4   5
ENDBRANCH   3   4
ENDBRANCH   2   3
TORSDOF 11
ENDMDL
MODEL      283
REMARK 921   NORMALIZED FREE ENERGY PREDICTED BY IDOCK:   -3.56 KCAL/MOL
REMARK 922        TOTAL FREE ENERGY PREDICTED BY IDOCK:   -7.66 KCAL/MOL
REMARK 923 INTER-LIGAND FREE ENERGY PREDICTED BY IDOCK:   -5.94 KCAL/MOL
REMARK 924 INTRA-LIGAND FREE ENERGY PREDICTED BY IDOCK:   -1.72 KCAL/MOL
REMARK 927      BINDING AFFINITY PREDICTED BY RF-SCORE:    0.00 PKD
ROOT
HETATM    1  C   UNL     1     -10.156  11.324  63.264  1.00  0.00    -0.428 C  
HETATM    2  C   UNL     1      -8.948  10.721  63.958  1.00  0.00    -0.167 C  
ENDROOT
BRANCH   2   3
HETATM    3  C   UNL     1      -8.645   9.307  63.458  1.00  0.00    -0.201 C  
BRANCH   3   4
HETATM    4  C   UNL     1      -8.272   8.401  64.633  1.00  0.00    -0.157 C  
BRANCH   4   5
HETATM    5  C   UNL     1      -6.899   8.737  65.218  1.00  0.00    -0.072 C  
BRANCH   5   6
HETATM    6  C   UNL     1      -6.898   8.820  66.755  1.00  0.00    -0.069 C  
HETATM    7  O   UNL     1      -7.783   7.809  67.228  1.00  0.00    -0.108 OA 
HETATM    8  H   UNL     1      -7.782   7.860  68.176  1.00  0.00     0.000 HD 
BRANCH   6   9
HETATM    9  C   UNL     1      -7.311  10.181  67.276  1.00  0.00    -0.090 C  
HETATM   10  C   UNL     1      -6.505  11.118  67.807  1.00  0.00    -0.063 C  
BRANCH  10  11
HETATM   11  C   UNL     1      -6.979  12.386  68.487  1.00  0.00    -0.092 C  
HETATM   12  C   UNL     1      -6.029  12.733  69.654  1.00  0.00    -0.121 C  
HETATM   13  O   UNL     1      -6.296  11.947  70.808  1.00  0.00    -0.518 OA 
HETATM   14  C   UNL     1      -6.255  14.201  69.942  1.00  0.00    -0.146 C  
HETATM   15  H   UNL     1      -5.711  12.161  71.526  1.00  0.00     0.000 HD 
HETATM   16  C   UNL     1      -6.539  14.727  68.571  1.00  0.00    -0.094 C  
HETATM   17  O   UNL     1      -6.432  15.916  68.295  1.00  0.00    -0.111 OA 
HETATM   18  C   UNL     1      -6.993  13.650  67.595  1.00  0.00    -0.183 C  
BRANCH  18  19
HETATM   19  C   UNL     1      -8.406  13.936  67.062  1.00  0.00    -0.113 C  
BRANCH  19  20
HETATM   20  C   UNL     1      -9.444  14.143  68.135  1.00  0.00    -0.213 C  
HETATM   21  C   UNL     1     -10.361  13.267  68.574  1.00  0.00    -0.244 C  
BRANCH  21  22
HETATM   22  C   UNL     1     -10.566  11.875  68.061  1.00  0.00    -0.234 C  
BRANCH  22  23
HETATM   23  C   UNL     1     -11.490  11.827  66.845  1.00  0.00    -0.364 C  
BRANCH  23  24
HETATM   24  C   UNL     1     -11.771  13.249  66.359  1.00  0.00    -0.418 C  
HETATM   25  C   UNL     1     -12.742  13.289  65.207  1.00  0.00    -0.412 C  
HETATM   26  O   UNL     1     -13.267  12.319  64.688  1.00  0.00    -0.763 OA 
HETATM   27  O   UNL     1     -12.980  14.556  64.793  1.00  0.00    -0.562 OA 
ENDBRANCH  23  24
ENDBRANCH  22  23
ENDBRANCH  21  22
ENDBRANCH  19  20
ENDBRANCH  18  19
ENDBRANCH  10  11
ENDBRANCH   6   9
ENDBRANCH   5   6
ENDBRANCH   4   5
ENDBRANCH   3   4
ENDBRANCH   2   3
TORSDOF 11
ENDMDL
MODEL      284
REMARK 921   NORMALIZED FREE ENERGY PREDICTED BY IDOCK:   -3.54 KCAL/MOL
REMARK 922        TOTAL FREE ENERGY PREDICTED BY IDOCK:   -7.64 KCAL/MOL
REMARK 923 INTER-LIGAND FREE ENERGY PREDICTED BY IDOCK:   -6.98 KCAL/MOL
REMARK 924 INTRA-LIGAND FREE ENERGY PREDICTED BY IDOCK:   -0.65 KCAL/MOL
REMARK 927      BINDING AFFINITY PREDICTED BY RF-SCORE:    0.00 PKD
ROOT
HETATM    1  C   UNL     1      -6.556   4.552  73.186  1.00  0.00    -0.052 C  
HETATM    2  C   UNL     1      -7.881   5.289  73.228  1.00  0.00    -0.104 C  
ENDROOT
BRANCH   2   3
HETATM    3  C   UNL     1      -7.955   6.273  74.396  1.00  0.00    -0.108 C  
BRANCH   3   4
HETATM    4  C   UNL     1      -9.195   7.160  74.262  1.00  0.00    -0.250 C  
BRANCH   4   5
HETATM    5  C   UNL     1      -9.959   6.905  72.962  1.00  0.00    -0.212 C  
BRANCH   5   6
HETATM    6  C   UNL     1     -10.998   7.995  72.645  1.00  0.00    -0.382 C  
HETATM    7  O   UNL     1     -12.203   7.328  72.279  1.00  0.00    -0.443 OA 
HETATM    8  H   UNL     1     -12.844   8.000  72.084  1.00  0.00     0.000 HD 
BRANCH   6   9
HETATM    9  C   UNL     1     -10.552   8.938  71.547  1.00  0.00    -0.399 C  
HETATM   10  C   UNL     1     -11.189   9.180  70.387  1.00  0.00    -0.279 C  
BRANCH  10  11
HETATM   11  C   UNL     1     -10.618   9.984  69.236  1.00  0.00    -0.249 C  
HETATM   12  C   UNL     1      -9.966   9.029  68.212  1.00  0.00    -0.173 C  
HETATM   13  O   UNL     1      -8.676   8.604  68.629  1.00  0.00    -0.136 OA 
HETATM   14  C   UNL     1      -9.880   9.813  66.920  1.00  0.00    -0.256 C  
HETATM   15  H   UNL     1      -8.275   8.016  67.998  1.00  0.00     0.000 HD 
HETATM   16  C   UNL     1     -11.119  10.647  67.002  1.00  0.00    -0.145 C  
HETATM   17  O   UNL     1     -11.622  11.166  66.012  1.00  0.00    -0.082 OA 
HETATM   18  C   UNL     1     -11.651  10.799  68.421  1.00  0.00    -0.311 C  
BRANCH  18  19
HETATM   19  C   UNL     1     -11.665  12.271  68.861  1.00  0.00    -0.380 C  
BRANCH  19  20
HETATM   20  C   UNL     1     -10.396  13.023  68.553  1.00  0.00    -0.247 C  
HETATM   21  C   UNL     1     -10.138  14.324  68.763  1.00  0.00    -0.217 C  
BRANCH  21  22
HETATM   22  C   UNL     1     -11.088  15.329  69.337  1.00  0.00    -0.283 C  
BRANCH  22  23
HETATM   23  C   UNL     1     -11.264  15.175  70.847  1.00  0.00    -0.324 C  
BRANCH  23  24
HETATM   24  C   UNL     1     -12.416  14.209  71.132  1.00  0.00    -0.445 C  
HETATM   25  C   UNL     1     -12.884  14.269  72.563  1.00  0.00    -0.357 C  
HETATM   26  O   UNL     1     -12.423  14.991  73.431  1.00  0.00    -0.432 OA 
HETATM   27  O   UNL     1     -13.905  13.409  72.796  1.00  0.00    -0.720 OA 
ENDBRANCH  23  24
ENDBRANCH  22  23
ENDBRANCH  21  22
ENDBRANCH  19  20
ENDBRANCH  18  19
ENDBRANCH  10  11
ENDBRANCH   6   9
ENDBRANCH   5   6
ENDBRANCH   4   5
ENDBRANCH   3   4
ENDBRANCH   2   3
TORSDOF 11
ENDMDL
MODEL      285
REMARK 921   NORMALIZED FREE ENERGY PREDICTED BY IDOCK:   -3.53 KCAL/MOL
REMARK 922        TOTAL FREE ENERGY PREDICTED BY IDOCK:   -7.62 KCAL/MOL
REMARK 923 INTER-LIGAND FREE ENERGY PREDICTED BY IDOCK:   -5.14 KCAL/MOL
REMARK 924 INTRA-LIGAND FREE ENERGY PREDICTED BY IDOCK:   -2.48 KCAL/MOL
REMARK 927      BINDING AFFINITY PREDICTED BY RF-SCORE:    0.00 PKD
ROOT
HETATM    1  C   UNL     1      -6.948   9.714  69.758  1.00  0.00    -0.078 C  
HETATM    2  C   UNL     1      -7.965  10.142  68.715  1.00  0.00    -0.104 C  
ENDROOT
BRANCH   2   3
HETATM    3  C   UNL     1      -7.647   9.568  67.333  1.00  0.00    -0.095 C  
BRANCH   3   4
HETATM    4  C   UNL     1      -8.196   8.145  67.214  1.00  0.00    -0.121 C  
BRANCH   4   5
HETATM    5  C   UNL     1      -9.725   8.106  67.210  1.00  0.00    -0.233 C  
BRANCH   5   6
HETATM    6  C   UNL     1     -10.299   6.773  67.723  1.00  0.00    -0.198 C  
HETATM    7  O   UNL     1     -11.703   6.805  67.484  1.00  0.00    -0.548 OA 
HETATM    8  H   UNL     1     -12.057   5.983  67.800  1.00  0.00     0.000 HD 
BRANCH   6   9
HETATM    9  C   UNL     1     -10.009   6.527  69.189  1.00  0.00    -0.163 C  
HETATM   10  C   UNL     1     -10.609   5.626  69.987  1.00  0.00    -0.388 C  
BRANCH  10  11
HETATM   11  C   UNL     1     -10.424   5.539  71.489  1.00  0.00    -0.298 C  
HETATM   12  C   UNL     1     -11.750   5.101  72.148  1.00  0.00     0.387 C  
HETATM   13  O   UNL     1     -12.667   6.180  72.266  1.00  0.00    -0.486 OA 
HETATM   14  C   UNL     1     -11.371   4.568  73.512  1.00  0.00    -0.355 C  
HETATM   15  H   UNL     1     -13.483   5.910  72.672  1.00  0.00     0.000 HD 
HETATM   16  C   UNL     1     -10.038   3.954  73.226  1.00  0.00    -0.141 C  
HETATM   17  O   UNL     1      -9.538   3.111  73.962  1.00  0.00    -0.091 OA 
HETATM   18  C   UNL     1      -9.379   4.504  71.969  1.00  0.00    -0.184 C  
BRANCH  18  19
HETATM   19  C   UNL     1      -8.037   5.181  72.289  1.00  0.00    -0.110 C  
BRANCH  19  20
HETATM   20  C   UNL     1      -8.027   5.959  73.580  1.00  0.00    -0.103 C  
HETATM   21  C   UNL     1      -8.277   7.266  73.756  1.00  0.00    -0.164 C  
BRANCH  21  22
HETATM   22  C   UNL     1      -8.602   8.254  72.679  1.00  0.00    -0.264 C  
BRANCH  22  23
HETATM   23  C   UNL     1     -10.094   8.577  72.608  1.00  0.00    -0.253 C  
BRANCH  23  24
HETATM   24  C   UNL     1     -10.407   9.261  71.277  1.00  0.00    -0.397 C  
HETATM   25  C   UNL     1     -11.887   9.416  71.036  1.00  0.00    -0.322 C  
HETATM   26  O   UNL     1     -12.770   9.049  71.792  1.00  0.00    -0.322 OA 
HETATM   27  O   UNL     1     -12.144  10.025  69.854  1.00  0.00    -0.106 OA 
ENDBRANCH  23  24
ENDBRANCH  22  23
ENDBRANCH  21  22
ENDBRANCH  19  20
ENDBRANCH  18  19
ENDBRANCH  10  11
ENDBRANCH   6   9
ENDBRANCH   5   6
ENDBRANCH   4   5
ENDBRANCH   3   4
ENDBRANCH   2   3
TORSDOF 11
ENDMDL
MODEL      286
REMARK 921   NORMALIZED FREE ENERGY PREDICTED BY IDOCK:   -3.53 KCAL/MOL
REMARK 922        TOTAL FREE ENERGY PREDICTED BY IDOCK:   -7.61 KCAL/MOL
REMARK 923 INTER-LIGAND FREE ENERGY PREDICTED BY IDOCK:   -6.42 KCAL/MOL
REMARK 924 INTRA-LIGAND FREE ENERGY PREDICTED BY IDOCK:   -1.19 KCAL/MOL
REMARK 927      BINDING AFFINITY PREDICTED BY RF-SCORE:    0.00 PKD
ROOT
HETATM    1  C   UNL     1      -8.628  10.240  63.061  1.00  0.00    -0.190 C  
HETATM    2  C   UNL     1      -9.944  10.482  63.777  1.00  0.00    -0.324 C  
ENDROOT
BRANCH   2   3
HETATM    3  C   UNL     1     -10.104  11.941  64.209  1.00  0.00    -0.325 C  
BRANCH   3   4
HETATM    4  C   UNL     1     -11.186  12.057  65.285  1.00  0.00    -0.374 C  
BRANCH   4   5
HETATM    5  C   UNL     1     -11.132  10.910  66.295  1.00  0.00    -0.038 C  
BRANCH   5   6
HETATM    6  C   UNL     1     -10.907  11.385  67.741  1.00  0.00    -0.231 C  
HETATM    7  O   UNL     1     -12.177  11.369  68.388  1.00  0.00    -0.571 OA 
HETATM    8  H   UNL     1     -12.038  11.662  69.280  1.00  0.00     0.000 HD 
BRANCH   6   9
HETATM    9  C   UNL     1     -10.281  12.763  67.823  1.00  0.00    -0.223 C  
HETATM   10  C   UNL     1     -10.831  13.921  67.417  1.00  0.00    -0.291 C  
BRANCH  10  11
HETATM   11  C   UNL     1     -10.102  15.248  67.342  1.00  0.00    -0.232 C  
HETATM   12  C   UNL     1     -10.738  16.125  66.242  1.00  0.00    -0.213 C  
HETATM   13  O   UNL     1     -10.303  15.747  64.943  1.00  0.00    -0.492 OA 
HETATM   14  C   UNL     1     -10.317  17.544  66.557  1.00  0.00    -0.325 C  
HETATM   15  H   UNL     1     -10.694  16.287  64.266  1.00  0.00     0.000 HD 
HETATM   16  C   UNL     1     -10.290  17.515  68.052  1.00  0.00    -0.368 C  
HETATM   17  O   UNL     1     -10.341  18.539  68.724  1.00  0.00    -0.338 OA 
HETATM   18  C   UNL     1     -10.163  16.110  68.625  1.00  0.00    -0.244 C  
BRANCH  18  19
HETATM   19  C   UNL     1      -8.879  15.957  69.456  1.00  0.00    -0.115 C  
BRANCH  19  20
HETATM   20  C   UNL     1      -7.656  15.606  68.649  1.00  0.00    -0.143 C  
HETATM   21  C   UNL     1      -6.570  16.364  68.427  1.00  0.00    -0.136 C  
BRANCH  21  22
HETATM   22  C   UNL     1      -6.353  17.760  68.926  1.00  0.00    -0.211 C  
BRANCH  22  23
HETATM   23  C   UNL     1      -7.031  18.811  68.049  1.00  0.00    -0.255 C  
BRANCH  23  24
HETATM   24  C   UNL     1      -6.131  19.140  66.857  1.00  0.00    -0.170 C  
HETATM   25  C   UNL     1      -6.810  20.025  65.843  1.00  0.00    -0.265 C  
HETATM   26  O   UNL     1      -7.949  20.451  65.923  1.00  0.00    -0.140 OA 
HETATM   27  O   UNL     1      -5.997  20.308  64.797  1.00  0.00    -0.211 OA 
ENDBRANCH  23  24
ENDBRANCH  22  23
ENDBRANCH  21  22
ENDBRANCH  19  20
ENDBRANCH  18  19
ENDBRANCH  10  11
ENDBRANCH   6   9
ENDBRANCH   5   6
ENDBRANCH   4   5
ENDBRANCH   3   4
ENDBRANCH   2   3
TORSDOF 11
ENDMDL
MODEL      287
REMARK 921   NORMALIZED FREE ENERGY PREDICTED BY IDOCK:   -3.53 KCAL/MOL
REMARK 922        TOTAL FREE ENERGY PREDICTED BY IDOCK:   -7.61 KCAL/MOL
REMARK 923 INTER-LIGAND FREE ENERGY PREDICTED BY IDOCK:   -5.97 KCAL/MOL
REMARK 924 INTRA-LIGAND FREE ENERGY PREDICTED BY IDOCK:   -1.64 KCAL/MOL
REMARK 927      BINDING AFFINITY PREDICTED BY RF-SCORE:    0.00 PKD
ROOT
HETATM    1  C   UNL     1     -12.501  13.950  65.542  1.00  0.00    -0.541 C  
HETATM    2  C   UNL     1     -12.452  12.509  65.070  1.00  0.00    -0.494 C  
ENDROOT
BRANCH   2   3
HETATM    3  C   UNL     1     -12.129  12.404  63.578  1.00  0.00    -0.651 C  
BRANCH   3   4
HETATM    4  C   UNL     1     -10.723  11.834  63.382  1.00  0.00    -0.468 C  
BRANCH   4   5
HETATM    5  C   UNL     1     -10.370  10.772  64.424  1.00  0.00    -0.405 C  
BRANCH   5   6
HETATM    6  C   UNL     1      -8.963  10.179  64.234  1.00  0.00    -0.237 C  
HETATM    7  O   UNL     1      -9.100   9.046  63.381  1.00  0.00    -0.419 OA 
HETATM    8  H   UNL     1      -8.231   8.680  63.264  1.00  0.00     0.000 HD 
BRANCH   6   9
HETATM    9  C   UNL     1      -8.302   9.790  65.541  1.00  0.00    -0.141 C  
HETATM   10  C   UNL     1      -8.920   9.394  66.668  1.00  0.00    -0.170 C  
BRANCH  10  11
HETATM   11  C   UNL     1      -8.239   9.194  68.007  1.00  0.00    -0.112 C  
HETATM   12  C   UNL     1      -9.134   9.761  69.131  1.00  0.00    -0.165 C  
HETATM   13  O   UNL     1      -9.036  11.175  69.228  1.00  0.00    -0.391 OA 
HETATM   14  C   UNL     1      -8.653   9.102  70.406  1.00  0.00    -0.236 C  
HETATM   15  H   UNL     1      -9.587  11.523  69.919  1.00  0.00     0.000 HD 
HETATM   16  C   UNL     1      -8.252   7.751  69.903  1.00  0.00    -0.125 C  
HETATM   17  O   UNL     1      -8.137   6.786  70.650  1.00  0.00    -0.115 OA 
HETATM   18  C   UNL     1      -7.980   7.722  68.406  1.00  0.00    -0.122 C  
BRANCH  18  19
HETATM   19  C   UNL     1      -6.528   7.316  68.107  1.00  0.00    -0.045 C  
BRANCH  19  20
HETATM   20  C   UNL     1      -6.386   6.261  67.040  1.00  0.00    -0.041 C  
HETATM   21  C   UNL     1      -6.586   4.939  67.157  1.00  0.00    -0.050 C  
BRANCH  21  22
HETATM   22  C   UNL     1      -6.978   4.214  68.408  1.00  0.00    -0.051 C  
BRANCH  22  23
HETATM   23  C   UNL     1      -8.491   4.056  68.546  1.00  0.00    -0.106 C  
BRANCH  23  24
HETATM   24  C   UNL     1      -9.131   4.022  67.158  1.00  0.00    -0.166 C  
HETATM   25  C   UNL     1     -10.278   4.990  67.022  1.00  0.00    -0.208 C  
HETATM   26  O   UNL     1     -10.685   5.735  67.896  1.00  0.00    -0.244 OA 
HETATM   27  O   UNL     1     -10.830   4.948  65.785  1.00  0.00    -0.262 OA 
ENDBRANCH  23  24
ENDBRANCH  22  23
ENDBRANCH  21  22
ENDBRANCH  19  20
ENDBRANCH  18  19
ENDBRANCH  10  11
ENDBRANCH   6   9
ENDBRANCH   5   6
ENDBRANCH   4   5
ENDBRANCH   3   4
ENDBRANCH   2   3
TORSDOF 11
ENDMDL
MODEL      288
REMARK 921   NORMALIZED FREE ENERGY PREDICTED BY IDOCK:   -3.49 KCAL/MOL
REMARK 922        TOTAL FREE ENERGY PREDICTED BY IDOCK:   -7.55 KCAL/MOL
REMARK 923 INTER-LIGAND FREE ENERGY PREDICTED BY IDOCK:   -6.41 KCAL/MOL
REMARK 924 INTRA-LIGAND FREE ENERGY PREDICTED BY IDOCK:   -1.14 KCAL/MOL
REMARK 927      BINDING AFFINITY PREDICTED BY RF-SCORE:    0.00 PKD
ROOT
HETATM    1  C   UNL     1     -11.072   5.887  70.193  1.00  0.00    -0.395 C  
HETATM    2  C   UNL     1     -10.326   6.743  71.199  1.00  0.00    -0.227 C  
ENDROOT
BRANCH   2   3
HETATM    3  C   UNL     1      -9.737   8.001  70.558  1.00  0.00    -0.179 C  
BRANCH   3   4
HETATM    4  C   UNL     1     -10.255   8.156  69.127  1.00  0.00    -0.219 C  
BRANCH   4   5
HETATM    5  C   UNL     1      -9.142   8.496  68.135  1.00  0.00    -0.138 C  
BRANCH   5   6
HETATM    6  C   UNL     1      -8.802   9.996  68.093  1.00  0.00    -0.122 C  
HETATM    7  O   UNL     1      -7.516  10.149  68.689  1.00  0.00    -0.079 OA 
HETATM    8  H   UNL     1      -7.307  11.075  68.663  1.00  0.00     0.000 HD 
BRANCH   6   9
HETATM    9  C   UNL     1      -9.828  10.857  68.802  1.00  0.00    -0.203 C  
HETATM   10  C   UNL     1     -10.796  11.592  68.226  1.00  0.00    -0.257 C  
BRANCH  10  11
HETATM   11  C   UNL     1     -11.681  12.584  68.954  1.00  0.00    -0.367 C  
HETATM   12  C   UNL     1     -12.003  12.049  70.367  1.00  0.00    -0.291 C  
HETATM   13  O   UNL     1     -13.028  11.065  70.342  1.00  0.00    -0.201 OA 
HETATM   14  C   UNL     1     -12.437  13.255  71.171  1.00  0.00    -0.397 C  
HETATM   15  H   UNL     1     -13.226  10.737  71.211  1.00  0.00     0.000 HD 
HETATM   16  C   UNL     1     -11.578  14.326  70.577  1.00  0.00    -0.177 C  
HETATM   17  O   UNL     1     -11.352  15.379  71.162  1.00  0.00    -0.329 OA 
HETATM   18  C   UNL     1     -11.057  13.980  69.189  1.00  0.00    -0.294 C  
BRANCH  18  19
HETATM   19  C   UNL     1     -11.548  14.988  68.138  1.00  0.00    -0.360 C  
BRANCH  19  20
HETATM   20  C   UNL     1     -10.488  15.438  67.166  1.00  0.00    -0.290 C  
HETATM   21  C   UNL     1      -9.944  16.660  67.048  1.00  0.00    -0.271 C  
BRANCH  21  22
HETATM   22  C   UNL     1     -10.303  17.866  67.860  1.00  0.00    -0.396 C  
BRANCH  22  23
HETATM   23  C   UNL     1      -9.109  18.435  68.625  1.00  0.00    -0.317 C  
BRANCH  23  24
HETATM   24  C   UNL     1      -7.907  17.504  68.465  1.00  0.00    -0.274 C  
HETATM   25  C   UNL     1      -6.670  18.029  69.147  1.00  0.00    -0.247 C  
HETATM   26  O   UNL     1      -6.591  19.075  69.767  1.00  0.00    -0.234 OA 
HETATM   27  O   UNL     1      -5.617  17.190  68.996  1.00  0.00    -0.145 OA 
ENDBRANCH  23  24
ENDBRANCH  22  23
ENDBRANCH  21  22
ENDBRANCH  19  20
ENDBRANCH  18  19
ENDBRANCH  10  11
ENDBRANCH   6   9
ENDBRANCH   5   6
ENDBRANCH   4   5
ENDBRANCH   3   4
ENDBRANCH   2   3
TORSDOF 11
ENDMDL
MODEL      289
REMARK 921   NORMALIZED FREE ENERGY PREDICTED BY IDOCK:   -3.49 KCAL/MOL
REMARK 922        TOTAL FREE ENERGY PREDICTED BY IDOCK:   -7.55 KCAL/MOL
REMARK 923 INTER-LIGAND FREE ENERGY PREDICTED BY IDOCK:   -6.47 KCAL/MOL
REMARK 924 INTRA-LIGAND FREE ENERGY PREDICTED BY IDOCK:   -1.08 KCAL/MOL
REMARK 927      BINDING AFFINITY PREDICTED BY RF-SCORE:    0.00 PKD
ROOT
HETATM    1  C   UNL     1      -7.368   3.055  65.710  1.00  0.00    -0.072 C  
HETATM    2  C   UNL     1      -7.294   4.571  65.675  1.00  0.00    -0.080 C  
ENDROOT
BRANCH   2   3
HETATM    3  C   UNL     1      -8.531   5.221  66.297  1.00  0.00    -0.115 C  
BRANCH   3   4
HETATM    4  C   UNL     1      -8.259   5.582  67.758  1.00  0.00    -0.100 C  
BRANCH   4   5
HETATM    5  C   UNL     1      -9.507   5.461  68.633  1.00  0.00    -0.159 C  
BRANCH   5   6
HETATM    6  C   UNL     1     -10.259   6.793  68.807  1.00  0.00    -0.175 C  
HETATM    7  O   UNL     1     -11.611   6.561  68.424  1.00  0.00    -0.525 OA 
HETATM    8  H   UNL     1     -12.075   7.383  68.532  1.00  0.00     0.000 HD 
BRANCH   6   9
HETATM    9  C   UNL     1      -9.657   7.924  67.998  1.00  0.00    -0.168 C  
HETATM   10  C   UNL     1     -10.320   8.792  67.213  1.00  0.00    -0.360 C  
BRANCH  10  11
HETATM   11  C   UNL     1      -9.666   9.787  66.275  1.00  0.00    -0.295 C  
HETATM   12  C   UNL     1      -8.958   9.030  65.131  1.00  0.00    -0.165 C  
HETATM   13  O   UNL     1      -7.703   8.503  65.538  1.00  0.00    -0.087 OA 
HETATM   14  C   UNL     1      -8.779  10.043  64.021  1.00  0.00    -0.222 C  
HETATM   15  H   UNL     1      -7.268   8.037  64.833  1.00  0.00     0.000 HD 
HETATM   16  C   UNL     1     -10.012  10.875  64.184  1.00  0.00    -0.344 C  
HETATM   17  O   UNL     1     -10.442  11.585  63.282  1.00  0.00    -0.372 OA 
HETATM   18  C   UNL     1     -10.634  10.765  65.569  1.00  0.00    -0.205 C  
BRANCH  18  19
HETATM   19  C   UNL     1     -10.661  12.127  66.281  1.00  0.00    -0.296 C  
BRANCH  19  20
HETATM   20  C   UNL     1     -12.024  12.767  66.345  1.00  0.00    -0.443 C  
HETATM   21  C   UNL     1     -12.462  13.841  65.669  1.00  0.00    -0.541 C  
BRANCH  21  22
HETATM   22  C   UNL     1     -11.662  14.662  64.705  1.00  0.00    -0.431 C  
BRANCH  22  23
HETATM   23  C   UNL     1     -10.364  15.189  65.317  1.00  0.00    -0.425 C  
BRANCH  23  24
HETATM   24  C   UNL     1     -10.688  16.266  66.352  1.00  0.00    -0.182 C  
HETATM   25  C   UNL     1      -9.986  16.039  67.666  1.00  0.00    -0.239 C  
HETATM   26  O   UNL     1      -9.236  15.112  67.919  1.00  0.00    -0.182 OA 
HETATM   27  O   UNL     1     -10.282  17.004  68.570  1.00  0.00    -0.282 OA 
ENDBRANCH  23  24
ENDBRANCH  22  23
ENDBRANCH  21  22
ENDBRANCH  19  20
ENDBRANCH  18  19
ENDBRANCH  10  11
ENDBRANCH   6   9
ENDBRANCH   5   6
ENDBRANCH   4   5
ENDBRANCH   3   4
ENDBRANCH   2   3
TORSDOF 11
ENDMDL
MODEL      290
REMARK 921   NORMALIZED FREE ENERGY PREDICTED BY IDOCK:   -3.49 KCAL/MOL
REMARK 922        TOTAL FREE ENERGY PREDICTED BY IDOCK:   -7.54 KCAL/MOL
REMARK 923 INTER-LIGAND FREE ENERGY PREDICTED BY IDOCK:   -5.79 KCAL/MOL
REMARK 924 INTRA-LIGAND FREE ENERGY PREDICTED BY IDOCK:   -1.75 KCAL/MOL
REMARK 927      BINDING AFFINITY PREDICTED BY RF-SCORE:    0.00 PKD
ROOT
HETATM    1  C   UNL     1     -12.060  14.771  71.879  1.00  0.00    -0.409 C  
HETATM    2  C   UNL     1     -12.489  15.273  70.512  1.00  0.00    -0.454 C  
ENDROOT
BRANCH   2   3
HETATM    3  C   UNL     1     -11.467  14.929  69.427  1.00  0.00    -0.324 C  
BRANCH   3   4
HETATM    4  C   UNL     1     -11.856  13.622  68.733  1.00  0.00    -0.395 C  
BRANCH   4   5
HETATM    5  C   UNL     1     -11.865  13.748  67.209  1.00  0.00    -0.436 C  
BRANCH   5   6
HETATM    6  C   UNL     1     -11.192  12.562  66.497  1.00  0.00    -0.307 C  
HETATM    7  O   UNL     1     -12.202  11.904  65.737  1.00  0.00    -0.422 OA 
HETATM    8  H   UNL     1     -11.786  11.172  65.298  1.00  0.00     0.000 HD 
BRANCH   6   9
HETATM    9  C   UNL     1     -10.526  11.595  67.455  1.00  0.00    -0.239 C  
HETATM   10  C   UNL     1     -10.473  10.257  67.339  1.00  0.00    -0.303 C  
BRANCH  10  11
HETATM   11  C   UNL     1      -9.963   9.313  68.410  1.00  0.00    -0.196 C  
HETATM   12  C   UNL     1      -8.554   9.758  68.862  1.00  0.00    -0.134 C  
HETATM   13  O   UNL     1      -7.548   9.352  67.944  1.00  0.00    -0.087 OA 
HETATM   14  C   UNL     1      -8.338   9.113  70.214  1.00  0.00    -0.187 C  
HETATM   15  H   UNL     1      -6.682   9.625  68.223  1.00  0.00     0.000 HD 
HETATM   16  C   UNL     1      -9.724   9.138  70.775  1.00  0.00    -0.273 C  
HETATM   17  O   UNL     1      -9.943   9.036  71.976  1.00  0.00    -0.321 OA 
HETATM   18  C   UNL     1     -10.803   9.267  69.708  1.00  0.00    -0.239 C  
BRANCH  18  19
HETATM   19  C   UNL     1     -11.746   8.054  69.714  1.00  0.00     0.509 C  
BRANCH  19  20
HETATM   20  C   UNL     1     -11.060   6.735  69.963  1.00  0.00    -0.366 C  
HETATM   21  C   UNL     1     -10.601   5.861  69.053  1.00  0.00    -0.360 C  
BRANCH  21  22
HETATM   22  C   UNL     1     -10.699   6.005  67.566  1.00  0.00    -0.383 C  
BRANCH  22  23
HETATM   23  C   UNL     1      -9.696   5.124  66.823  1.00  0.00    -0.178 C  
BRANCH  23  24
HETATM   24  C   UNL     1      -8.375   5.092  67.593  1.00  0.00    -0.105 C  
HETATM   25  C   UNL     1      -7.350   6.042  67.029  1.00  0.00    -0.076 C  
HETATM   26  O   UNL     1      -7.513   6.772  66.066  1.00  0.00    -0.077 OA 
HETATM   27  O   UNL     1      -6.188   6.002  67.724  1.00  0.00    -0.026 OA 
ENDBRANCH  23  24
ENDBRANCH  22  23
ENDBRANCH  21  22
ENDBRANCH  19  20
ENDBRANCH  18  19
ENDBRANCH  10  11
ENDBRANCH   6   9
ENDBRANCH   5   6
ENDBRANCH   4   5
ENDBRANCH   3   4
ENDBRANCH   2   3
TORSDOF 11
ENDMDL
MODEL      291
REMARK 921   NORMALIZED FREE ENERGY PREDICTED BY IDOCK:   -3.48 KCAL/MOL
REMARK 922        TOTAL FREE ENERGY PREDICTED BY IDOCK:   -7.54 KCAL/MOL
REMARK 923 INTER-LIGAND FREE ENERGY PREDICTED BY IDOCK:   -5.19 KCAL/MOL
REMARK 924 INTRA-LIGAND FREE ENERGY PREDICTED BY IDOCK:   -2.35 KCAL/MOL
REMARK 927      BINDING AFFINITY PREDICTED BY RF-SCORE:    0.00 PKD
ROOT
HETATM    1  C   UNL     1     -10.524   8.188  66.905  1.00  0.00    -0.379 C  
HETATM    2  C   UNL     1     -10.345   6.760  67.384  1.00  0.00    -0.286 C  
ENDROOT
BRANCH   2   3
HETATM    3  C   UNL     1     -10.196   6.677  68.904  1.00  0.00    -0.195 C  
BRANCH   3   4
HETATM    4  C   UNL     1     -11.512   6.225  69.539  1.00  0.00    -0.387 C  
BRANCH   4   5
HETATM    5  C   UNL     1     -12.053   7.238  70.549  1.00  0.00    -0.154 C  
BRANCH   5   6
HETATM    6  C   UNL     1     -12.357   6.620  71.925  1.00  0.00    -0.318 C  
HETATM    7  O   UNL     1     -12.279   7.674  72.881  1.00  0.00    -0.564 OA 
HETATM    8  H   UNL     1     -12.466   7.293  73.731  1.00  0.00     0.000 HD 
BRANCH   6   9
HETATM    9  C   UNL     1     -11.414   5.492  72.291  1.00  0.00    -0.221 C  
HETATM   10  C   UNL     1     -11.090   5.085  73.531  1.00  0.00    -0.386 C  
BRANCH  10  11
HETATM   11  C   UNL     1     -10.003   4.080  73.858  1.00  0.00    -0.171 C  
HETATM   12  C   UNL     1     -10.439   2.676  73.385  1.00  0.00    -0.146 C  
HETATM   13  O   UNL     1     -11.351   2.069  74.290  1.00  0.00    -0.075 OA 
HETATM   14  C   UNL     1      -9.164   1.866  73.285  1.00  0.00    -0.078 C  
HETATM   15  H   UNL     1     -11.618   1.205  73.998  1.00  0.00     0.000 HD 
HETATM   16  C   UNL     1      -8.187   2.912  72.851  1.00  0.00    -0.071 C  
HETATM   17  O   UNL     1      -7.121   2.626  72.317  1.00  0.00    -0.032 OA 
HETATM   18  C   UNL     1      -8.641   4.330  73.168  1.00  0.00    -0.093 C  
BRANCH  18  19
HETATM   19  C   UNL     1      -7.661   5.034  74.119  1.00  0.00    -0.094 C  
BRANCH  19  20
HETATM   20  C   UNL     1      -6.890   6.166  73.490  1.00  0.00    -0.079 C  
HETATM   21  C   UNL     1      -7.322   7.409  73.226  1.00  0.00    -0.087 C  
BRANCH  21  22
HETATM   22  C   UNL     1      -8.700   7.937  73.484  1.00  0.00    -0.321 C  
BRANCH  22  23
HETATM   23  C   UNL     1      -9.282   8.676  72.280  1.00  0.00    -0.297 C  
BRANCH  23  24
HETATM   24  C   UNL     1      -8.191   8.877  71.227  1.00  0.00    -0.207 C  
HETATM   25  C   UNL     1      -8.665   9.681  70.044  1.00  0.00    -0.231 C  
HETATM   26  O   UNL     1      -9.786  10.138  69.901  1.00  0.00    -0.233 OA 
HETATM   27  O   UNL     1      -7.686   9.851  69.124  1.00  0.00    -0.083 OA 
ENDBRANCH  23  24
ENDBRANCH  22  23
ENDBRANCH  21  22
ENDBRANCH  19  20
ENDBRANCH  18  19
ENDBRANCH  10  11
ENDBRANCH   6   9
ENDBRANCH   5   6
ENDBRANCH   4   5
ENDBRANCH   3   4
ENDBRANCH   2   3
TORSDOF 11
ENDMDL
MODEL      292
REMARK 921   NORMALIZED FREE ENERGY PREDICTED BY IDOCK:   -3.46 KCAL/MOL
REMARK 922        TOTAL FREE ENERGY PREDICTED BY IDOCK:   -7.50 KCAL/MOL
REMARK 923 INTER-LIGAND FREE ENERGY PREDICTED BY IDOCK:   -6.39 KCAL/MOL
REMARK 924 INTRA-LIGAND FREE ENERGY PREDICTED BY IDOCK:   -1.11 KCAL/MOL
REMARK 927      BINDING AFFINITY PREDICTED BY RF-SCORE:    0.00 PKD
ROOT
HETATM    1  C   UNL     1      -6.478  20.118  65.385  1.00  0.00    -0.299 C  
HETATM    2  C   UNL     1      -6.186  18.629  65.404  1.00  0.00    -0.314 C  
ENDROOT
BRANCH   2   3
HETATM    3  C   UNL     1      -7.296  17.834  66.095  1.00  0.00    -0.335 C  
BRANCH   3   4
HETATM    4  C   UNL     1      -7.589  18.427  67.474  1.00  0.00    -0.226 C  
BRANCH   4   5
HETATM    5  C   UNL     1      -8.273  17.427  68.407  1.00  0.00    -0.262 C  
BRANCH   5   6
HETATM    6  C   UNL     1      -9.779  17.270  68.131  1.00  0.00    -0.284 C  
HETATM    7  O   UNL     1     -10.467  17.776  69.272  1.00  0.00    -0.426 OA 
HETATM    8  H   UNL     1     -11.396  17.680  69.101  1.00  0.00     0.000 HD 
BRANCH   6   9
HETATM    9  C   UNL     1     -10.185  15.838  67.852  1.00  0.00    -0.242 C  
HETATM   10  C   UNL     1     -10.906  15.396  66.806  1.00  0.00    -0.306 C  
BRANCH  10  11
HETATM   11  C   UNL     1     -11.450  13.988  66.660  1.00  0.00    -0.377 C  
HETATM   12  C   UNL     1     -12.245  13.876  65.341  1.00  0.00    -0.444 C  
HETATM   13  O   UNL     1     -13.548  14.429  65.457  1.00  0.00    -0.576 OA 
HETATM   14  C   UNL     1     -12.316  12.396  65.032  1.00  0.00    -0.441 C  
HETATM   15  H   UNL     1     -14.037  14.359  64.645  1.00  0.00     0.000 HD 
HETATM   16  C   UNL     1     -10.997  11.925  65.558  1.00  0.00    -0.297 C  
HETATM   17  O   UNL     1     -10.495  10.865  65.202  1.00  0.00    -0.283 OA 
HETATM   18  C   UNL     1     -10.383  12.871  66.581  1.00  0.00    -0.258 C  
BRANCH  18  19
HETATM   19  C   UNL     1     -10.200  12.183  67.942  1.00  0.00    -0.203 C  
BRANCH  19  20
HETATM   20  C   UNL     1      -8.765  11.897  68.306  1.00  0.00    -0.170 C  
HETATM   21  C   UNL     1      -8.262  10.782  68.857  1.00  0.00    -0.149 C  
BRANCH  21  22
HETATM   22  C   UNL     1      -9.042   9.568  69.258  1.00  0.00    -0.161 C  
BRANCH  22  23
HETATM   23  C   UNL     1      -8.752   8.361  68.368  1.00  0.00    -0.136 C  
BRANCH  23  24
HETATM   24  C   UNL     1      -7.530   8.652  67.495  1.00  0.00    -0.090 C  
HETATM   25  C   UNL     1      -6.292   7.936  67.970  1.00  0.00    -0.051 C  
HETATM   26  O   UNL     1      -6.227   7.199  68.939  1.00  0.00    -0.026 OA 
HETATM   27  O   UNL     1      -5.222   8.203  67.184  1.00  0.00    -0.033 OA 
ENDBRANCH  23  24
ENDBRANCH  22  23
ENDBRANCH  21  22
ENDBRANCH  19  20
ENDBRANCH  18  19
ENDBRANCH  10  11
ENDBRANCH   6   9
ENDBRANCH   5   6
ENDBRANCH   4   5
ENDBRANCH   3   4
ENDBRANCH   2   3
TORSDOF 11
ENDMDL
MODEL      293
REMARK 921   NORMALIZED FREE ENERGY PREDICTED BY IDOCK:   -3.45 KCAL/MOL
REMARK 922        TOTAL FREE ENERGY PREDICTED BY IDOCK:   -7.48 KCAL/MOL
REMARK 923 INTER-LIGAND FREE ENERGY PREDICTED BY IDOCK:   -6.01 KCAL/MOL
REMARK 924 INTRA-LIGAND FREE ENERGY PREDICTED BY IDOCK:   -1.47 KCAL/MOL
REMARK 927      BINDING AFFINITY PREDICTED BY RF-SCORE:    0.00 PKD
ROOT
HETATM    1  C   UNL     1     -10.118   8.367  69.774  1.00  0.00    -0.197 C  
HETATM    2  C   UNL     1      -9.527   7.100  69.185  1.00  0.00    -0.147 C  
ENDROOT
BRANCH   2   3
HETATM    3  C   UNL     1     -10.032   6.836  67.765  1.00  0.00    -0.167 C  
BRANCH   3   4
HETATM    4  C   UNL     1     -10.136   8.151  66.990  1.00  0.00    -0.350 C  
BRANCH   4   5
HETATM    5  C   UNL     1      -8.849   8.491  66.238  1.00  0.00    -0.187 C  
BRANCH   5   6
HETATM    6  C   UNL     1      -8.933   9.813  65.455  1.00  0.00    -0.176 C  
HETATM    7  O   UNL     1      -7.638  10.062  64.915  1.00  0.00    -0.131 OA 
HETATM    8  H   UNL     1      -7.691  10.878  64.432  1.00  0.00     0.000 HD 
BRANCH   6   9
HETATM    9  C   UNL     1      -9.392  10.979  66.308  1.00  0.00    -0.206 C  
HETATM   10  C   UNL     1      -9.890  12.148  65.870  1.00  0.00    -0.265 C  
BRANCH  10  11
HETATM   11  C   UNL     1     -10.161  13.357  66.743  1.00  0.00    -0.260 C  
HETATM   12  C   UNL     1     -10.973  12.927  67.984  1.00  0.00    -0.247 C  
HETATM   13  O   UNL     1     -12.353  12.762  67.686  1.00  0.00    -0.250 OA 
HETATM   14  C   UNL     1     -10.773  14.027  69.004  1.00  0.00    -0.232 C  
HETATM   15  H   UNL     1     -12.852  12.497  68.450  1.00  0.00     0.000 HD 
HETATM   16  C   UNL     1      -9.368  14.447  68.709  1.00  0.00    -0.150 C  
HETATM   17  O   UNL     1      -8.689  15.064  69.521  1.00  0.00    -0.166 OA 
HETATM   18  C   UNL     1      -8.905  14.059  67.311  1.00  0.00    -0.225 C  
BRANCH  18  19
HETATM   19  C   UNL     1      -8.538  15.297  66.478  1.00  0.00    -0.264 C  
BRANCH  19  20
HETATM   20  C   UNL     1      -9.711  15.963  65.806  1.00  0.00    -0.360 C  
HETATM   21  C   UNL     1     -10.591  16.820  66.346  1.00  0.00    -0.192 C  
BRANCH  21  22
HETATM   22  C   UNL     1     -10.609  17.286  67.769  1.00  0.00    -0.367 C  
BRANCH  22  23
HETATM   23  C   UNL     1     -10.005  18.679  67.939  1.00  0.00    -0.385 C  
BRANCH  23  24
HETATM   24  C   UNL     1      -8.503  18.558  68.197  1.00  0.00    -0.317 C  
HETATM   25  C   UNL     1      -7.675  19.260  67.151  1.00  0.00    -0.246 C  
HETATM   26  O   UNL     1      -8.114  19.866  66.189  1.00  0.00    -0.335 OA 
HETATM   27  O   UNL     1      -6.348  19.144  67.397  1.00  0.00    -0.185 OA 
ENDBRANCH  23  24
ENDBRANCH  22  23
ENDBRANCH  21  22
ENDBRANCH  19  20
ENDBRANCH  18  19
ENDBRANCH  10  11
ENDBRANCH   6   9
ENDBRANCH   5   6
ENDBRANCH   4   5
ENDBRANCH   3   4
ENDBRANCH   2   3
TORSDOF 11
ENDMDL
MODEL      294
REMARK 921   NORMALIZED FREE ENERGY PREDICTED BY IDOCK:   -3.44 KCAL/MOL
REMARK 922        TOTAL FREE ENERGY PREDICTED BY IDOCK:   -7.47 KCAL/MOL
REMARK 923 INTER-LIGAND FREE ENERGY PREDICTED BY IDOCK:   -5.60 KCAL/MOL
REMARK 924 INTRA-LIGAND FREE ENERGY PREDICTED BY IDOCK:   -1.87 KCAL/MOL
REMARK 927      BINDING AFFINITY PREDICTED BY RF-SCORE:    0.00 PKD
ROOT
HETATM    1  C   UNL     1     -12.493  12.366  64.167  1.00  0.00    -0.534 C  
HETATM    2  C   UNL     1     -11.417  12.941  65.069  1.00  0.00    -0.350 C  
ENDROOT
BRANCH   2   3
HETATM    3  C   UNL     1     -11.952  13.274  66.462  1.00  0.00    -0.448 C  
BRANCH   3   4
HETATM    4  C   UNL     1     -11.644  12.132  67.433  1.00  0.00    -0.410 C  
BRANCH   4   5
HETATM    5  C   UNL     1     -10.453  11.286  66.981  1.00  0.00    -0.272 C  
BRANCH   5   6
HETATM    6  C   UNL     1      -9.593  10.775  68.151  1.00  0.00    -0.160 C  
HETATM    7  O   UNL     1      -8.349  11.467  68.086  1.00  0.00    -0.135 OA 
HETATM    8  H   UNL     1      -7.818  11.152  68.808  1.00  0.00     0.000 HD 
BRANCH   6   9
HETATM    9  C   UNL     1      -9.377   9.276  68.118  1.00  0.00    -0.143 C  
HETATM   10  C   UNL     1      -9.431   8.480  67.036  1.00  0.00    -0.223 C  
BRANCH  10  11
HETATM   11  C   UNL     1      -9.396   6.965  67.071  1.00  0.00    -0.170 C  
HETATM   12  C   UNL     1     -10.789   6.407  66.706  1.00  0.00    -0.291 C  
HETATM   13  O   UNL     1     -11.690   6.468  67.803  1.00  0.00    -0.552 OA 
HETATM   14  C   UNL     1     -10.555   4.973  66.283  1.00  0.00    -0.332 C  
HETATM   15  H   UNL     1     -12.547   6.124  67.578  1.00  0.00     0.000 HD 
HETATM   16  C   UNL     1      -9.213   5.075  65.631  1.00  0.00    -0.157 C  
HETATM   17  O   UNL     1      -8.804   4.228  64.845  1.00  0.00    -0.127 OA 
HETATM   18  C   UNL     1      -8.424   6.302  66.067  1.00  0.00    -0.143 C  
BRANCH  18  19
HETATM   19  C   UNL     1      -7.106   5.906  66.751  1.00  0.00    -0.070 C  
BRANCH  19  20
HETATM   20  C   UNL     1      -6.544   6.959  67.672  1.00  0.00    -0.055 C  
HETATM   21  C   UNL     1      -6.468   6.925  69.012  1.00  0.00    -0.036 C  
BRANCH  21  22
HETATM   22  C   UNL     1      -6.958   5.819  69.894  1.00  0.00    -0.066 C  
BRANCH  22  23
HETATM   23  C   UNL     1      -7.706   6.334  71.123  1.00  0.00    -0.102 C  
BRANCH  23  24
HETATM   24  C   UNL     1      -9.132   6.722  70.728  1.00  0.00    -0.151 C  
HETATM   25  C   UNL     1     -10.150   5.689  71.137  1.00  0.00    -0.204 C  
HETATM   26  O   UNL     1      -9.907   4.645  71.718  1.00  0.00    -0.167 OA 
HETATM   27  O   UNL     1     -11.406   6.050  70.781  1.00  0.00    -0.301 OA 
ENDBRANCH  23  24
ENDBRANCH  22  23
ENDBRANCH  21  22
ENDBRANCH  19  20
ENDBRANCH  18  19
ENDBRANCH  10  11
ENDBRANCH   6   9
ENDBRANCH   5   6
ENDBRANCH   4   5
ENDBRANCH   3   4
ENDBRANCH   2   3
TORSDOF 11
ENDMDL
MODEL      295
REMARK 921   NORMALIZED FREE ENERGY PREDICTED BY IDOCK:   -3.42 KCAL/MOL
REMARK 922        TOTAL FREE ENERGY PREDICTED BY IDOCK:   -7.43 KCAL/MOL
REMARK 923 INTER-LIGAND FREE ENERGY PREDICTED BY IDOCK:   -5.65 KCAL/MOL
REMARK 924 INTRA-LIGAND FREE ENERGY PREDICTED BY IDOCK:   -1.79 KCAL/MOL
REMARK 927      BINDING AFFINITY PREDICTED BY RF-SCORE:    0.00 PKD
ROOT
HETATM    1  C   UNL     1      -9.460  10.119  64.009  1.00  0.00    -0.341 C  
HETATM    2  C   UNL     1      -8.441   8.998  63.918  1.00  0.00    -0.171 C  
ENDROOT
BRANCH   2   3
HETATM    3  C   UNL     1      -8.167   8.357  65.280  1.00  0.00    -0.151 C  
BRANCH   3   4
HETATM    4  C   UNL     1      -7.165   9.202  66.068  1.00  0.00    -0.094 C  
BRANCH   4   5
HETATM    5  C   UNL     1      -7.560   9.360  67.537  1.00  0.00    -0.091 C  
BRANCH   5   6
HETATM    6  C   UNL     1      -7.002  10.641  68.182  1.00  0.00    -0.073 C  
HETATM    7  O   UNL     1      -7.036  10.446  69.593  1.00  0.00    -0.102 OA 
HETATM    8  H   UNL     1      -6.692  11.236  69.991  1.00  0.00     0.000 HD 
BRANCH   6   9
HETATM    9  C   UNL     1      -7.774  11.885  67.794  1.00  0.00    -0.136 C  
HETATM   10  C   UNL     1      -7.733  13.081  68.407  1.00  0.00    -0.137 C  
BRANCH  10  11
HETATM   11  C   UNL     1      -8.657  14.244  68.104  1.00  0.00    -0.172 C  
HETATM   12  C   UNL     1      -8.065  15.090  66.956  1.00  0.00    -0.190 C  
HETATM   13  O   UNL     1      -7.033  15.955  67.410  1.00  0.00    -0.165 OA 
HETATM   14  C   UNL     1      -9.224  15.886  66.397  1.00  0.00    -0.344 C  
HETATM   15  H   UNL     1      -6.669  16.475  66.703  1.00  0.00     0.000 HD 
HETATM   16  C   UNL     1     -10.354  14.922  66.574  1.00  0.00    -0.293 C  
HETATM   17  O   UNL     1     -11.399  15.019  65.941  1.00  0.00    -0.338 OA 
HETATM   18  C   UNL     1     -10.076  13.855  67.624  1.00  0.00    -0.241 C  
BRANCH  18  19
HETATM   19  C   UNL     1     -11.089  13.925  68.777  1.00  0.00    -0.291 C  
BRANCH  19  20
HETATM   20  C   UNL     1     -12.125  12.831  68.761  1.00  0.00    -0.165 C  
HETATM   21  C   UNL     1     -11.964  11.538  69.085  1.00  0.00    -0.386 C  
BRANCH  21  22
HETATM   22  C   UNL     1     -10.684  10.892  69.519  1.00  0.00    -0.251 C  
BRANCH  22  23
HETATM   23  C   UNL     1     -10.802   9.373  69.636  1.00  0.00    -0.245 C  
BRANCH  23  24
HETATM   24  C   UNL     1     -11.047   8.991  71.097  1.00  0.00    -0.371 C  
HETATM   25  C   UNL     1     -11.615   7.602  71.247  1.00  0.00    -0.278 C  
HETATM   26  O   UNL     1     -11.868   6.837  70.332  1.00  0.00    -0.376 OA 
HETATM   27  O   UNL     1     -11.822   7.280  72.546  1.00  0.00    -0.247 OA 
ENDBRANCH  23  24
ENDBRANCH  22  23
ENDBRANCH  21  22
ENDBRANCH  19  20
ENDBRANCH  18  19
ENDBRANCH  10  11
ENDBRANCH   6   9
ENDBRANCH   5   6
ENDBRANCH   4   5
ENDBRANCH   3   4
ENDBRANCH   2   3
TORSDOF 11
ENDMDL
MODEL      296
REMARK 921   NORMALIZED FREE ENERGY PREDICTED BY IDOCK:   -3.42 KCAL/MOL
REMARK 922        TOTAL FREE ENERGY PREDICTED BY IDOCK:   -7.43 KCAL/MOL
REMARK 923 INTER-LIGAND FREE ENERGY PREDICTED BY IDOCK:   -5.69 KCAL/MOL
REMARK 924 INTRA-LIGAND FREE ENERGY PREDICTED BY IDOCK:   -1.74 KCAL/MOL
REMARK 927      BINDING AFFINITY PREDICTED BY RF-SCORE:    0.00 PKD
ROOT
HETATM    1  C   UNL     1     -13.551   9.222  71.726  1.00  0.00    -0.465 C  
HETATM    2  C   UNL     1     -12.104   8.888  72.036  1.00  0.00    -0.442 C  
ENDROOT
BRANCH   2   3
HETATM    3  C   UNL     1     -11.133   9.638  71.123  1.00  0.00    -0.444 C  
BRANCH   3   4
HETATM    4  C   UNL     1     -11.882  10.229  69.928  1.00  0.00    -0.267 C  
BRANCH   4   5
HETATM    5  C   UNL     1     -11.178  11.454  69.343  1.00  0.00    -0.333 C  
BRANCH   5   6
HETATM    6  C   UNL     1     -10.548  11.192  67.964  1.00  0.00    -0.198 C  
HETATM    7  O   UNL     1     -11.571  11.395  66.993  1.00  0.00    -0.510 OA 
HETATM    8  H   UNL     1     -11.182  11.233  66.142  1.00  0.00     0.000 HD 
BRANCH   6   9
HETATM    9  C   UNL     1      -9.954   9.804  67.837  1.00  0.00    -0.196 C  
HETATM   10  C   UNL     1     -10.269   8.876  66.916  1.00  0.00    -0.347 C  
BRANCH  10  11
HETATM   11  C   UNL     1      -9.792   7.437  66.935  1.00  0.00    -0.284 C  
HETATM   12  C   UNL     1     -11.011   6.489  66.899  1.00  0.00    -0.338 C  
HETATM   13  O   UNL     1     -11.624   6.363  68.174  1.00  0.00    -0.557 OA 
HETATM   14  C   UNL     1     -10.475   5.155  66.428  1.00  0.00    -0.356 C  
HETATM   15  H   UNL     1     -12.374   5.779  68.152  1.00  0.00     0.000 HD 
HETATM   16  C   UNL     1      -9.399   5.589  65.483  1.00  0.00     0.005 C  
HETATM   17  O   UNL     1      -8.949   4.843  64.621  1.00  0.00    -0.153 OA 
HETATM   18  C   UNL     1      -8.919   7.013  65.730  1.00  0.00    -0.037 C  
BRANCH  18  19
HETATM   19  C   UNL     1      -7.426   7.047  66.090  1.00  0.00    -0.080 C  
BRANCH  19  20
HETATM   20  C   UNL     1      -6.565   7.789  65.100  1.00  0.00    -0.047 C  
HETATM   21  C   UNL     1      -6.229   9.088  65.113  1.00  0.00    -0.060 C  
BRANCH  21  22
HETATM   22  C   UNL     1      -6.670  10.103  66.124  1.00  0.00    -0.106 C  
BRANCH  22  23
HETATM   23  C   UNL     1      -5.597  10.391  67.173  1.00  0.00    -0.041 C  
BRANCH  23  24
HETATM   24  C   UNL     1      -6.242  11.035  68.401  1.00  0.00    -0.049 C  
HETATM   25  C   UNL     1      -6.343  12.534  68.286  1.00  0.00    -0.062 C  
HETATM   26  O   UNL     1      -5.962  13.200  67.339  1.00  0.00    -0.293 OA 
HETATM   27  O   UNL     1      -6.919  13.086  69.381  1.00  0.00    -0.028 OA 
ENDBRANCH  23  24
ENDBRANCH  22  23
ENDBRANCH  21  22
ENDBRANCH  19  20
ENDBRANCH  18  19
ENDBRANCH  10  11
ENDBRANCH   6   9
ENDBRANCH   5   6
ENDBRANCH   4   5
ENDBRANCH   3   4
ENDBRANCH   2   3
TORSDOF 11
ENDMDL
MODEL      297
REMARK 921   NORMALIZED FREE ENERGY PREDICTED BY IDOCK:   -3.41 KCAL/MOL
REMARK 922        TOTAL FREE ENERGY PREDICTED BY IDOCK:   -7.42 KCAL/MOL
REMARK 923 INTER-LIGAND FREE ENERGY PREDICTED BY IDOCK:   -6.07 KCAL/MOL
REMARK 924 INTRA-LIGAND FREE ENERGY PREDICTED BY IDOCK:   -1.36 KCAL/MOL
REMARK 927      BINDING AFFINITY PREDICTED BY RF-SCORE:    0.00 PKD
ROOT
HETATM    1  C   UNL     1      -9.476  18.293  68.454  1.00  0.00    -0.336 C  
HETATM    2  C   UNL     1     -10.615  17.822  67.569  1.00  0.00    -0.365 C  
ENDROOT
BRANCH   2   3
HETATM    3  C   UNL     1     -10.110  17.122  66.306  1.00  0.00    -0.329 C  
BRANCH   3   4
HETATM    4  C   UNL     1     -10.775  15.752  66.160  1.00  0.00    -0.293 C  
BRANCH   4   5
HETATM    5  C   UNL     1     -10.080  14.872  65.120  1.00  0.00    -0.354 C  
BRANCH   5   6
HETATM    6  C   UNL     1     -10.495  13.392  65.202  1.00  0.00    -0.347 C  
HETATM    7  O   UNL     1     -11.638  13.233  64.366  1.00  0.00    -0.350 OA 
HETATM    8  H   UNL     1     -11.894  12.320  64.417  1.00  0.00     0.000 HD 
BRANCH   6   9
HETATM    9  C   UNL     1     -10.796  12.938  66.616  1.00  0.00    -0.288 C  
HETATM   10  C   UNL     1      -9.903  12.550  67.543  1.00  0.00    -0.198 C  
BRANCH  10  11
HETATM   11  C   UNL     1     -10.254  11.926  68.879  1.00  0.00    -0.095 C  
HETATM   12  C   UNL     1     -11.747  12.174  69.188  1.00  0.00    -0.328 C  
HETATM   13  O   UNL     1     -11.978  13.488  69.677  1.00  0.00    -0.310 OA 
HETATM   14  C   UNL     1     -12.125  11.141  70.227  1.00  0.00    -0.462 C  
HETATM   15  H   UNL     1     -12.896  13.640  69.867  1.00  0.00     0.000 HD 
HETATM   16  C   UNL     1     -11.272   9.984  69.814  1.00  0.00    -0.258 C  
HETATM   17  O   UNL     1     -11.517   8.836  70.164  1.00  0.00    -0.168 OA 
HETATM   18  C   UNL     1     -10.079  10.391  68.959  1.00  0.00    -0.227 C  
BRANCH  18  19
HETATM   19  C   UNL     1      -8.751  10.020  69.637  1.00  0.00    -0.210 C  
BRANCH  19  20
HETATM   20  C   UNL     1      -7.797   9.253  68.758  1.00  0.00    -0.088 C  
HETATM   21  C   UNL     1      -7.838   7.949  68.441  1.00  0.00    -0.120 C  
BRANCH  21  22
HETATM   22  C   UNL     1      -8.849   6.955  68.926  1.00  0.00    -0.129 C  
BRANCH  22  23
HETATM   23  C   UNL     1      -9.954   6.695  67.904  1.00  0.00    -0.152 C  
BRANCH  23  24
HETATM   24  C   UNL     1      -9.333   6.465  66.525  1.00  0.00    -0.181 C  
HETATM   25  C   UNL     1      -9.215   5.003  66.177  1.00  0.00    -0.149 C  
HETATM   26  O   UNL     1      -9.562   4.075  66.887  1.00  0.00    -0.190 OA 
HETATM   27  O   UNL     1      -8.666   4.819  64.953  1.00  0.00    -0.138 OA 
ENDBRANCH  23  24
ENDBRANCH  22  23
ENDBRANCH  21  22
ENDBRANCH  19  20
ENDBRANCH  18  19
ENDBRANCH  10  11
ENDBRANCH   6   9
ENDBRANCH   5   6
ENDBRANCH   4   5
ENDBRANCH   3   4
ENDBRANCH   2   3
TORSDOF 11
ENDMDL
MODEL      298
REMARK 921   NORMALIZED FREE ENERGY PREDICTED BY IDOCK:   -3.39 KCAL/MOL
REMARK 922        TOTAL FREE ENERGY PREDICTED BY IDOCK:   -7.39 KCAL/MOL
REMARK 923 INTER-LIGAND FREE ENERGY PREDICTED BY IDOCK:   -6.96 KCAL/MOL
REMARK 924 INTRA-LIGAND FREE ENERGY PREDICTED BY IDOCK:   -0.43 KCAL/MOL
REMARK 927      BINDING AFFINITY PREDICTED BY RF-SCORE:    0.00 PKD
ROOT
HETATM    1  C   UNL     1     -12.559  12.921  64.844  1.00  0.00    -0.525 C  
HETATM    2  C   UNL     1     -12.278  12.168  63.557  1.00  0.00    -0.670 C  
ENDROOT
BRANCH   2   3
HETATM    3  C   UNL     1     -11.029  11.291  63.665  1.00  0.00    -0.369 C  
BRANCH   3   4
HETATM    4  C   UNL     1     -10.735  10.971  65.131  1.00  0.00    -0.253 C  
BRANCH   4   5
HETATM    5  C   UNL     1     -10.006   9.638  65.305  1.00  0.00    -0.159 C  
BRANCH   5   6
HETATM    6  C   UNL     1     -10.285   8.964  66.660  1.00  0.00    -0.268 C  
HETATM    7  O   UNL     1      -9.488   9.635  67.631  1.00  0.00    -0.133 OA 
HETATM    8  H   UNL     1      -9.660   9.220  68.468  1.00  0.00     0.000 HD 
BRANCH   6   9
HETATM    9  C   UNL     1      -9.988   7.478  66.656  1.00  0.00    -0.270 C  
HETATM   10  C   UNL     1     -10.872   6.482  66.840  1.00  0.00    -0.427 C  
BRANCH  10  11
HETATM   11  C   UNL     1     -10.508   5.021  67.016  1.00  0.00    -0.208 C  
HETATM   12  C   UNL     1      -9.987   4.454  65.678  1.00  0.00    -0.236 C  
HETATM   13  O   UNL     1     -11.046   4.141  64.784  1.00  0.00    -0.712 OA 
HETATM   14  C   UNL     1      -9.206   3.209  66.039  1.00  0.00    -0.138 C  
HETATM   15  H   UNL     1     -10.725   3.792  63.961  1.00  0.00     0.000 HD 
HETATM   16  C   UNL     1      -8.625   3.602  67.360  1.00  0.00    -0.104 C  
HETATM   17  O   UNL     1      -7.651   3.032  67.839  1.00  0.00    -0.057 OA 
HETATM   18  C   UNL     1      -9.381   4.737  68.037  1.00  0.00    -0.168 C  
BRANCH  18  19
HETATM   19  C   UNL     1      -9.958   4.298  69.391  1.00  0.00    -0.105 C  
BRANCH  19  20
HETATM   20  C   UNL     1      -9.384   5.029  70.578  1.00  0.00    -0.213 C  
HETATM   21  C   UNL     1      -9.940   6.033  71.273  1.00  0.00    -0.223 C  
BRANCH  21  22
HETATM   22  C   UNL     1     -11.268   6.669  70.995  1.00  0.00    -0.349 C  
BRANCH  22  23
HETATM   23  C   UNL     1     -11.571   7.833  71.938  1.00  0.00    -0.330 C  
BRANCH  23  24
HETATM   24  C   UNL     1     -10.284   8.275  72.635  1.00  0.00    -0.368 C  
HETATM   25  C   UNL     1      -9.961   7.437  73.845  1.00  0.00    -0.207 C  
HETATM   26  O   UNL     1     -10.625   6.503  74.259  1.00  0.00    -0.269 OA 
HETATM   27  O   UNL     1      -8.817   7.842  74.448  1.00  0.00    -0.202 OA 
ENDBRANCH  23  24
ENDBRANCH  22  23
ENDBRANCH  21  22
ENDBRANCH  19  20
ENDBRANCH  18  19
ENDBRANCH  10  11
ENDBRANCH   6   9
ENDBRANCH   5   6
ENDBRANCH   4   5
ENDBRANCH   3   4
ENDBRANCH   2   3
TORSDOF 11
ENDMDL
MODEL      299
REMARK 921   NORMALIZED FREE ENERGY PREDICTED BY IDOCK:   -3.38 KCAL/MOL
REMARK 922        TOTAL FREE ENERGY PREDICTED BY IDOCK:   -7.37 KCAL/MOL
REMARK 923 INTER-LIGAND FREE ENERGY PREDICTED BY IDOCK:   -5.99 KCAL/MOL
REMARK 924 INTRA-LIGAND FREE ENERGY PREDICTED BY IDOCK:   -1.39 KCAL/MOL
REMARK 927      BINDING AFFINITY PREDICTED BY RF-SCORE:    0.00 PKD
ROOT
HETATM    1  C   UNL     1      -7.669  17.887  68.746  1.00  0.00    -0.263 C  
HETATM    2  C   UNL     1      -8.616  16.721  68.527  1.00  0.00    -0.245 C  
ENDROOT
BRANCH   2   3
HETATM    3  C   UNL     1      -9.261  16.758  67.141  1.00  0.00    -0.233 C  
BRANCH   3   4
HETATM    4  C   UNL     1      -9.544  15.336  66.653  1.00  0.00    -0.276 C  
BRANCH   4   5
HETATM    5  C   UNL     1     -10.768  15.263  65.740  1.00  0.00    -0.357 C  
BRANCH   5   6
HETATM    6  C   UNL     1     -11.440  13.878  65.734  1.00  0.00    -0.321 C  
HETATM    7  O   UNL     1     -12.698  14.022  66.388  1.00  0.00    -0.501 OA 
HETATM    8  H   UNL     1     -13.112  13.168  66.385  1.00  0.00     0.000 HD 
BRANCH   6   9
HETATM    9  C   UNL     1     -10.603  12.810  66.408  1.00  0.00    -0.273 C  
HETATM   10  C   UNL     1     -10.764  11.479  66.305  1.00  0.00    -0.321 C  
BRANCH  10  11
HETATM   11  C   UNL     1     -10.029  10.449  67.140  1.00  0.00    -0.239 C  
HETATM   12  C   UNL     1      -8.711  10.059  66.436  1.00  0.00    -0.129 C  
HETATM   13  O   UNL     1      -8.927   9.132  65.380  1.00  0.00    -0.187 OA 
HETATM   14  C   UNL     1      -7.838   9.451  67.512  1.00  0.00    -0.099 C  
HETATM   15  H   UNL     1      -8.116   8.892  64.947  1.00  0.00     0.000 HD 
HETATM   16  C   UNL     1      -8.242  10.256  68.706  1.00  0.00    -0.119 C  
HETATM   17  O   UNL     1      -7.539  10.335  69.706  1.00  0.00    -0.151 OA 
HETATM   18  C   UNL     1      -9.603  10.922  68.551  1.00  0.00    -0.187 C  
BRANCH  18  19
HETATM   19  C   UNL     1     -10.592  10.432  69.620  1.00  0.00    -0.289 C  
BRANCH  19  20
HETATM   20  C   UNL     1     -12.029  10.800  69.352  1.00  0.00    -0.353 C  
HETATM   21  C   UNL     1     -12.663  11.935  69.684  1.00  0.00     0.410 C  
BRANCH  21  22
HETATM   22  C   UNL     1     -12.069  13.092  70.428  1.00  0.00    -0.391 C  
BRANCH  22  23
HETATM   23  C   UNL     1     -12.158  14.402  69.647  1.00  0.00    -0.381 C  
BRANCH  23  24
HETATM   24  C   UNL     1     -12.201  15.578  70.623  1.00  0.00    -0.445 C  
HETATM   25  C   UNL     1     -13.303  15.446  71.644  1.00  0.00    -0.490 C  
HETATM   26  O   UNL     1     -14.096  14.523  71.717  1.00  0.00    -0.420 OA 
HETATM   27  O   UNL     1     -13.324  16.495  72.501  1.00  0.00     0.272 OA 
ENDBRANCH  23  24
ENDBRANCH  22  23
ENDBRANCH  21  22
ENDBRANCH  19  20
ENDBRANCH  18  19
ENDBRANCH  10  11
ENDBRANCH   6   9
ENDBRANCH   5   6
ENDBRANCH   4   5
ENDBRANCH   3   4
ENDBRANCH   2   3
TORSDOF 11
ENDMDL
MODEL      300
REMARK 921   NORMALIZED FREE ENERGY PREDICTED BY IDOCK:   -3.38 KCAL/MOL
REMARK 922        TOTAL FREE ENERGY PREDICTED BY IDOCK:   -7.36 KCAL/MOL
REMARK 923 INTER-LIGAND FREE ENERGY PREDICTED BY IDOCK:   -5.72 KCAL/MOL
REMARK 924 INTRA-LIGAND FREE ENERGY PREDICTED BY IDOCK:   -1.64 KCAL/MOL
REMARK 927      BINDING AFFINITY PREDICTED BY RF-SCORE:    0.00 PKD
ROOT
HETATM    1  C   UNL     1      -5.865   9.189  69.900  1.00  0.00    -0.035 C  
HETATM    2  C   UNL     1      -7.053   9.414  70.817  1.00  0.00    -0.119 C  
ENDROOT
BRANCH   2   3
HETATM    3  C   UNL     1      -7.714   8.099  71.235  1.00  0.00    -0.095 C  
BRANCH   3   4
HETATM    4  C   UNL     1      -9.144   8.357  71.714  1.00  0.00    -0.283 C  
BRANCH   4   5
HETATM    5  C   UNL     1     -10.016   7.102  71.657  1.00  0.00    -0.186 C  
BRANCH   5   6
HETATM    6  C   UNL     1     -10.790   6.960  70.334  1.00  0.00    -0.261 C  
HETATM    7  O   UNL     1     -10.217   5.860  69.632  1.00  0.00    -0.182 OA 
HETATM    8  H   UNL     1     -10.694   5.772  68.816  1.00  0.00     0.000 HD 
BRANCH   6   9
HETATM    9  C   UNL     1     -10.752   8.215  69.487  1.00  0.00    -0.180 C  
HETATM   10  C   UNL     1     -10.155   8.361  68.291  1.00  0.00    -0.232 C  
BRANCH  10  11
HETATM   11  C   UNL     1      -9.979   9.679  67.564  1.00  0.00    -0.231 C  
HETATM   12  C   UNL     1     -10.264   9.480  66.059  1.00  0.00    -0.172 C  
HETATM   13  O   UNL     1      -9.161   8.894  65.382  1.00  0.00    -0.335 OA 
HETATM   14  C   UNL     1     -10.555  10.862  65.513  1.00  0.00    -0.240 C  
HETATM   15  H   UNL     1      -9.337   8.772  64.456  1.00  0.00     0.000 HD 
HETATM   16  C   UNL     1     -11.239  11.499  66.681  1.00  0.00    -0.271 C  
HETATM   17  O   UNL     1     -11.950  12.490  66.558  1.00  0.00    -0.522 OA 
HETATM   18  C   UNL     1     -10.935  10.812  68.006  1.00  0.00    -0.336 C  
BRANCH  18  19
HETATM   19  C   UNL     1     -10.242  11.769  68.987  1.00  0.00    -0.044 C  
BRANCH  19  20
HETATM   20  C   UNL     1      -9.125  12.580  68.381  1.00  0.00    -0.135 C  
HETATM   21  C   UNL     1      -9.080  13.908  68.194  1.00  0.00    -0.193 C  
BRANCH  21  22
HETATM   22  C   UNL     1     -10.164  14.884  68.534  1.00  0.00    -0.235 C  
BRANCH  22  23
HETATM   23  C   UNL     1      -9.628  16.150  69.200  1.00  0.00    -0.249 C  
BRANCH  23  24
HETATM   24  C   UNL     1      -8.828  16.964  68.182  1.00  0.00    -0.223 C  
HETATM   25  C   UNL     1      -9.689  17.917  67.393  1.00  0.00    -0.288 C  
HETATM   26  O   UNL     1     -10.894  18.055  67.519  1.00  0.00    -0.379 OA 
HETATM   27  O   UNL     1      -8.963  18.630  66.499  1.00  0.00    -0.296 OA 
ENDBRANCH  23  24
ENDBRANCH  22  23
ENDBRANCH  21  22
ENDBRANCH  19  20
ENDBRANCH  18  19
ENDBRANCH  10  11
ENDBRANCH   6   9
ENDBRANCH   5   6
ENDBRANCH   4   5
ENDBRANCH   3   4
ENDBRANCH   2   3
TORSDOF 11
ENDMDL
MODEL      301
REMARK 921   NORMALIZED FREE ENERGY PREDICTED BY IDOCK:   -3.37 KCAL/MOL
REMARK 922        TOTAL FREE ENERGY PREDICTED BY IDOCK:   -7.35 KCAL/MOL
REMARK 923 INTER-LIGAND FREE ENERGY PREDICTED BY IDOCK:   -6.20 KCAL/MOL
REMARK 924 INTRA-LIGAND FREE ENERGY PREDICTED BY IDOCK:   -1.15 KCAL/MOL
REMARK 927      BINDING AFFINITY PREDICTED BY RF-SCORE:    0.00 PKD
ROOT
HETATM    1  C   UNL     1      -8.842   8.027  73.890  1.00  0.00    -0.274 C  
HETATM    2  C   UNL     1      -9.823   6.874  74.000  1.00  0.00    -0.354 C  
ENDROOT
BRANCH   2   3
HETATM    3  C   UNL     1      -9.560   5.793  72.949  1.00  0.00    -0.163 C  
BRANCH   3   4
HETATM    4  C   UNL     1     -10.872   5.375  72.283  1.00  0.00    -0.286 C  
BRANCH   4   5
HETATM    5  C   UNL     1     -10.970   5.850  70.833  1.00  0.00    -0.335 C  
BRANCH   5   6
HETATM    6  C   UNL     1     -11.362   7.332  70.705  1.00  0.00    -0.284 C  
HETATM    7  O   UNL     1     -12.785   7.393  70.755  1.00  0.00    -0.570 OA 
HETATM    8  H   UNL     1     -13.026   8.308  70.676  1.00  0.00     0.000 HD 
BRANCH   6   9
HETATM    9  C   UNL     1     -10.841   7.976  69.436  1.00  0.00    -0.104 C  
HETATM   10  C   UNL     1      -9.640   7.773  68.866  1.00  0.00    -0.154 C  
BRANCH  10  11
HETATM   11  C   UNL     1      -9.084   8.573  67.705  1.00  0.00    -0.143 C  
HETATM   12  C   UNL     1      -8.706   7.617  66.553  1.00  0.00    -0.149 C  
HETATM   13  O   UNL     1      -7.459   6.975  66.782  1.00  0.00    -0.079 OA 
HETATM   14  C   UNL     1      -8.645   8.479  65.311  1.00  0.00    -0.192 C  
HETATM   15  H   UNL     1      -7.227   6.387  66.072  1.00  0.00     0.000 HD 
HETATM   16  C   UNL     1      -9.723   9.477  65.595  1.00  0.00    -0.290 C  
HETATM   17  O   UNL     1     -10.246  10.141  64.707  1.00  0.00    -0.296 OA 
HETATM   18  C   UNL     1     -10.062   9.592  67.074  1.00  0.00    -0.275 C  
BRANCH  18  19
HETATM   19  C   UNL     1      -9.799  11.011  67.602  1.00  0.00    -0.192 C  
BRANCH  19  20
HETATM   20  C   UNL     1     -11.046  11.800  67.910  1.00  0.00    -0.302 C  
HETATM   21  C   UNL     1     -11.143  13.109  68.192  1.00  0.00    -0.284 C  
BRANCH  21  22
HETATM   22  C   UNL     1     -10.004  14.077  68.286  1.00  0.00    -0.236 C  
BRANCH  22  23
HETATM   23  C   UNL     1     -10.191  15.295  67.382  1.00  0.00    -0.243 C  
BRANCH  23  24
HETATM   24  C   UNL     1      -8.830  15.761  66.864  1.00  0.00    -0.273 C  
HETATM   25  C   UNL     1      -8.659  17.257  66.943  1.00  0.00    -0.240 C  
HETATM   26  O   UNL     1      -9.489  18.044  67.364  1.00  0.00    -0.258 OA 
HETATM   27  O   UNL     1      -7.448  17.651  66.482  1.00  0.00    -0.218 OA 
ENDBRANCH  23  24
ENDBRANCH  22  23
ENDBRANCH  21  22
ENDBRANCH  19  20
ENDBRANCH  18  19
ENDBRANCH  10  11
ENDBRANCH   6   9
ENDBRANCH   5   6
ENDBRANCH   4   5
ENDBRANCH   3   4
ENDBRANCH   2   3
TORSDOF 11
ENDMDL
MODEL      302
REMARK 921   NORMALIZED FREE ENERGY PREDICTED BY IDOCK:   -3.37 KCAL/MOL
REMARK 922        TOTAL FREE ENERGY PREDICTED BY IDOCK:   -7.35 KCAL/MOL
REMARK 923 INTER-LIGAND FREE ENERGY PREDICTED BY IDOCK:   -5.43 KCAL/MOL
REMARK 924 INTRA-LIGAND FREE ENERGY PREDICTED BY IDOCK:   -1.92 KCAL/MOL
REMARK 927      BINDING AFFINITY PREDICTED BY RF-SCORE:    0.00 PKD
ROOT
HETATM    1  C   UNL     1     -10.895   6.901  66.746  1.00  0.00    -0.270 C  
HETATM    2  C   UNL     1      -9.679   7.808  66.714  1.00  0.00    -0.296 C  
ENDROOT
BRANCH   2   3
HETATM    3  C   UNL     1     -10.033   9.228  66.270  1.00  0.00    -0.357 C  
BRANCH   3   4
HETATM    4  C   UNL     1      -8.806  10.136  66.377  1.00  0.00    -0.158 C  
BRANCH   4   5
HETATM    5  C   UNL     1      -8.053   9.950  67.695  1.00  0.00    -0.110 C  
BRANCH   5   6
HETATM    6  C   UNL     1      -8.688  10.716  68.869  1.00  0.00    -0.161 C  
HETATM    7  O   UNL     1      -7.665  11.529  69.438  1.00  0.00    -0.359 OA 
HETATM    8  H   UNL     1      -8.057  12.002  70.163  1.00  0.00     0.000 HD 
BRANCH   6   9
HETATM    9  C   UNL     1      -9.292   9.802  69.916  1.00  0.00    -0.262 C  
HETATM   10  C   UNL     1      -8.874   8.565  70.241  1.00  0.00    -0.150 C  
BRANCH  10  11
HETATM   11  C   UNL     1      -9.615   7.612  71.157  1.00  0.00    -0.168 C  
HETATM   12  C   UNL     1      -9.986   8.340  72.468  1.00  0.00    -0.303 C  
HETATM   13  O   UNL     1      -8.883   8.428  73.358  1.00  0.00    -0.253 OA 
HETATM   14  C   UNL     1     -11.106   7.528  73.082  1.00  0.00    -0.378 C  
HETATM   15  H   UNL     1      -9.111   8.875  74.165  1.00  0.00     0.000 HD 
HETATM   16  C   UNL     1     -11.821   7.045  71.859  1.00  0.00    -0.305 C  
HETATM   17  O   UNL     1     -12.980   6.649  71.897  1.00  0.00    -0.306 OA 
HETATM   18  C   UNL     1     -10.956   7.072  70.606  1.00  0.00    -0.292 C  
BRANCH  18  19
HETATM   19  C   UNL     1     -10.784   5.665  70.013  1.00  0.00    -0.390 C  
BRANCH  19  20
HETATM   20  C   UNL     1     -10.125   4.676  70.941  1.00  0.00    -0.257 C  
HETATM   21  C   UNL     1      -8.844   4.277  70.943  1.00  0.00    -0.142 C  
BRANCH  21  22
HETATM   22  C   UNL     1      -7.780   4.722  69.987  1.00  0.00    -0.055 C  
BRANCH  22  23
HETATM   23  C   UNL     1      -8.344   5.119  68.623  1.00  0.00    -0.088 C  
BRANCH  23  24
HETATM   24  C   UNL     1      -7.332   4.771  67.531  1.00  0.00    -0.074 C  
HETATM   25  C   UNL     1      -7.965   4.079  66.351  1.00  0.00    -0.097 C  
HETATM   26  O   UNL     1      -9.147   3.804  66.240  1.00  0.00    -0.132 OA 
HETATM   27  O   UNL     1      -7.054   3.781  65.393  1.00  0.00    -0.063 OA 
ENDBRANCH  23  24
ENDBRANCH  22  23
ENDBRANCH  21  22
ENDBRANCH  19  20
ENDBRANCH  18  19
ENDBRANCH  10  11
ENDBRANCH   6   9
ENDBRANCH   5   6
ENDBRANCH   4   5
ENDBRANCH   3   4
ENDBRANCH   2   3
TORSDOF 11
ENDMDL
MODEL      303
REMARK 921   NORMALIZED FREE ENERGY PREDICTED BY IDOCK:   -3.35 KCAL/MOL
REMARK 922        TOTAL FREE ENERGY PREDICTED BY IDOCK:   -7.32 KCAL/MOL
REMARK 923 INTER-LIGAND FREE ENERGY PREDICTED BY IDOCK:   -6.91 KCAL/MOL
REMARK 924 INTRA-LIGAND FREE ENERGY PREDICTED BY IDOCK:   -0.41 KCAL/MOL
REMARK 927      BINDING AFFINITY PREDICTED BY RF-SCORE:    0.00 PKD
ROOT
HETATM    1  C   UNL     1      -9.488   9.329  68.493  1.00  0.00    -0.150 C  
HETATM    2  C   UNL     1      -8.149   8.750  68.907  1.00  0.00    -0.114 C  
ENDROOT
BRANCH   2   3
HETATM    3  C   UNL     1      -7.132   9.840  69.249  1.00  0.00    -0.066 C  
BRANCH   3   4
HETATM    4  C   UNL     1      -6.122   9.996  68.110  1.00  0.00    -0.049 C  
BRANCH   4   5
HETATM    5  C   UNL     1      -6.474  11.148  67.169  1.00  0.00    -0.090 C  
BRANCH   5   6
HETATM    6  C   UNL     1      -6.392  12.530  67.842  1.00  0.00    -0.103 C  
HETATM    7  O   UNL     1      -6.001  12.311  69.194  1.00  0.00    -0.069 OA 
HETATM    8  H   UNL     1      -5.950  13.164  69.610  1.00  0.00     0.000 HD 
BRANCH   6   9
HETATM    9  C   UNL     1      -7.695  13.299  67.777  1.00  0.00    -0.159 C  
HETATM   10  C   UNL     1      -8.804  12.948  67.102  1.00  0.00    -0.210 C  
BRANCH  10  11
HETATM   11  C   UNL     1     -10.019  13.833  66.909  1.00  0.00    -0.264 C  
HETATM   12  C   UNL     1      -9.851  14.667  65.620  1.00  0.00    -0.321 C  
HETATM   13  O   UNL     1      -8.997  15.785  65.817  1.00  0.00    -0.296 OA 
HETATM   14  C   UNL     1     -11.245  15.118  65.241  1.00  0.00    -0.359 C  
HETATM   15  H   UNL     1      -8.894  16.298  65.023  1.00  0.00     0.000 HD 
HETATM   16  C   UNL     1     -12.062  13.947  65.688  1.00  0.00    -0.421 C  
HETATM   17  O   UNL     1     -13.191  13.739  65.259  1.00  0.00    -0.755 OA 
HETATM   18  C   UNL     1     -11.361  13.086  66.730  1.00  0.00    -0.365 C  
BRANCH  18  19
HETATM   19  C   UNL     1     -12.152  13.044  68.047  1.00  0.00    -0.220 C  
BRANCH  19  20
HETATM   20  C   UNL     1     -12.154  11.700  68.728  1.00  0.00    -0.221 C  
HETATM   21  C   UNL     1     -12.232  11.444  70.043  1.00  0.00    -0.377 C  
BRANCH  21  22
HETATM   22  C   UNL     1     -12.311  12.464  71.137  1.00  0.00    -0.243 C  
BRANCH  22  23
HETATM   23  C   UNL     1     -12.889  13.795  70.659  1.00  0.00    -0.262 C  
BRANCH  23  24
HETATM   24  C   UNL     1     -12.026  14.944  71.180  1.00  0.00    -0.389 C  
HETATM   25  C   UNL     1     -12.623  15.617  72.390  1.00  0.00    -0.421 C  
HETATM   26  O   UNL     1     -13.675  15.312  72.925  1.00  0.00    -0.478 OA 
HETATM   27  O   UNL     1     -11.844  16.630  72.840  1.00  0.00    -0.507 OA 
ENDBRANCH  23  24
ENDBRANCH  22  23
ENDBRANCH  21  22
ENDBRANCH  19  20
ENDBRANCH  18  19
ENDBRANCH  10  11
ENDBRANCH   6   9
ENDBRANCH   5   6
ENDBRANCH   4   5
ENDBRANCH   3   4
ENDBRANCH   2   3
TORSDOF 11
ENDMDL
MODEL      304
REMARK 921   NORMALIZED FREE ENERGY PREDICTED BY IDOCK:   -3.35 KCAL/MOL
REMARK 922        TOTAL FREE ENERGY PREDICTED BY IDOCK:   -7.31 KCAL/MOL
REMARK 923 INTER-LIGAND FREE ENERGY PREDICTED BY IDOCK:   -4.56 KCAL/MOL
REMARK 924 INTRA-LIGAND FREE ENERGY PREDICTED BY IDOCK:   -2.75 KCAL/MOL
REMARK 927      BINDING AFFINITY PREDICTED BY RF-SCORE:    0.00 PKD
ROOT
HETATM    1  C   UNL     1      -7.966   3.137  73.632  1.00  0.00    -0.069 C  
HETATM    2  C   UNL     1      -8.748   4.414  73.878  1.00  0.00    -0.104 C  
ENDROOT
BRANCH   2   3
HETATM    3  C   UNL     1      -7.830   5.621  74.077  1.00  0.00    -0.099 C  
BRANCH   3   4
HETATM    4  C   UNL     1      -8.593   6.916  73.796  1.00  0.00    -0.165 C  
BRANCH   4   5
HETATM    5  C   UNL     1     -10.054   6.665  73.421  1.00  0.00    -0.249 C  
BRANCH   5   6
HETATM    6  C   UNL     1     -10.819   7.952  73.062  1.00  0.00    -0.342 C  
HETATM    7  O   UNL     1     -12.196   7.603  72.960  1.00  0.00    -0.499 OA 
HETATM    8  H   UNL     1     -12.668   8.397  72.738  1.00  0.00     0.000 HD 
BRANCH   6   9
HETATM    9  C   UNL     1     -10.330   8.593  71.779  1.00  0.00    -0.386 C  
HETATM   10  C   UNL     1     -10.430   8.086  70.538  1.00  0.00    -0.217 C  
BRANCH  10  11
HETATM   11  C   UNL     1      -9.765   8.668  69.307  1.00  0.00    -0.173 C  
HETATM   12  C   UNL     1     -10.777   8.705  68.142  1.00  0.00    -0.058 C  
HETATM   13  O   UNL     1     -10.929   7.433  67.528  1.00  0.00    -0.492 OA 
HETATM   14  C   UNL     1     -10.228   9.713  67.156  1.00  0.00    -0.305 C  
HETATM   15  H   UNL     1     -11.552   7.456  66.811  1.00  0.00     0.000 HD 
HETATM   16  C   UNL     1      -9.584  10.701  68.076  1.00  0.00    -0.157 C  
HETATM   17  O   UNL     1      -9.325  11.846  67.725  1.00  0.00    -0.173 OA 
HETATM   18  C   UNL     1      -9.266  10.126  69.450  1.00  0.00    -0.229 C  
BRANCH  18  19
HETATM   19  C   UNL     1      -7.758  10.168  69.741  1.00  0.00    -0.176 C  
BRANCH  19  20
HETATM   20  C   UNL     1      -6.906   9.483  68.704  1.00  0.00    -0.057 C  
HETATM   21  C   UNL     1      -6.328   8.274  68.782  1.00  0.00    -0.049 C  
BRANCH  21  22
HETATM   22  C   UNL     1      -6.390   7.341  69.952  1.00  0.00    -0.035 C  
BRANCH  22  23
HETATM   23  C   UNL     1      -6.571   5.883  69.533  1.00  0.00    -0.044 C  
BRANCH  23  24
HETATM   24  C   UNL     1      -7.603   5.213  70.442  1.00  0.00    -0.070 C  
HETATM   25  C   UNL     1      -8.924   4.987  69.754  1.00  0.00    -0.106 C  
HETATM   26  O   UNL     1      -9.186   5.290  68.603  1.00  0.00    -0.110 OA 
HETATM   27  O   UNL     1      -9.824   4.391  70.573  1.00  0.00    -0.202 OA 
ENDBRANCH  23  24
ENDBRANCH  22  23
ENDBRANCH  21  22
ENDBRANCH  19  20
ENDBRANCH  18  19
ENDBRANCH  10  11
ENDBRANCH   6   9
ENDBRANCH   5   6
ENDBRANCH   4   5
ENDBRANCH   3   4
ENDBRANCH   2   3
TORSDOF 11
ENDMDL
MODEL      305
REMARK 921   NORMALIZED FREE ENERGY PREDICTED BY IDOCK:   -3.32 KCAL/MOL
REMARK 922        TOTAL FREE ENERGY PREDICTED BY IDOCK:   -7.26 KCAL/MOL
REMARK 923 INTER-LIGAND FREE ENERGY PREDICTED BY IDOCK:   -5.91 KCAL/MOL
REMARK 924 INTRA-LIGAND FREE ENERGY PREDICTED BY IDOCK:   -1.35 KCAL/MOL
REMARK 927      BINDING AFFINITY PREDICTED BY RF-SCORE:    0.00 PKD
ROOT
HETATM    1  C   UNL     1      -6.766   7.815  73.831  1.00  0.00    -0.108 C  
HETATM    2  C   UNL     1      -7.958   8.036  72.919  1.00  0.00    -0.202 C  
ENDROOT
BRANCH   2   3
HETATM    3  C   UNL     1      -9.286   7.811  73.643  1.00  0.00    -0.336 C  
BRANCH   3   4
HETATM    4  C   UNL     1     -10.342   7.298  72.662  1.00  0.00    -0.264 C  
BRANCH   4   5
HETATM    5  C   UNL     1     -11.049   8.432  71.917  1.00  0.00    -0.378 C  
BRANCH   5   6
HETATM    6  C   UNL     1     -11.451   8.056  70.480  1.00  0.00    -0.187 C  
HETATM    7  O   UNL     1     -12.155   6.820  70.554  1.00  0.00    -0.514 OA 
HETATM    8  H   UNL     1     -12.404   6.588  69.667  1.00  0.00     0.000 HD 
BRANCH   6   9
HETATM    9  C   UNL     1     -10.267   7.945  69.542  1.00  0.00    -0.208 C  
HETATM   10  C   UNL     1     -10.308   7.700  68.221  1.00  0.00    -0.238 C  
BRANCH  10  11
HETATM   11  C   UNL     1      -9.098   7.410  67.354  1.00  0.00    -0.129 C  
HETATM   12  C   UNL     1      -9.015   5.893  67.075  1.00  0.00    -0.116 C  
HETATM   13  O   UNL     1      -8.469   5.179  68.175  1.00  0.00    -0.100 OA 
HETATM   14  C   UNL     1      -8.133   5.752  65.854  1.00  0.00    -0.113 C  
HETATM   15  H   UNL     1      -8.418   4.246  68.003  1.00  0.00     0.000 HD 
HETATM   16  C   UNL     1      -8.492   6.986  65.089  1.00  0.00    -0.014 C  
HETATM   17  O   UNL     1      -8.277   7.094  63.887  1.00  0.00    -0.054 OA 
HETATM   18  C   UNL     1      -9.110   8.074  65.957  1.00  0.00    -0.193 C  
BRANCH  18  19
HETATM   19  C   UNL     1      -8.258   9.352  65.945  1.00  0.00    -0.115 C  
BRANCH  19  20
HETATM   20  C   UNL     1      -8.146  10.037  67.283  1.00  0.00    -0.114 C  
HETATM   21  C   UNL     1      -8.730  11.180  67.674  1.00  0.00    -0.129 C  
BRANCH  21  22
HETATM   22  C   UNL     1      -9.617  12.049  66.836  1.00  0.00    -0.209 C  
BRANCH  22  23
HETATM   23  C   UNL     1     -11.017  12.205  67.429  1.00  0.00    -0.308 C  
BRANCH  23  24
HETATM   24  C   UNL     1     -11.710  13.410  66.792  1.00  0.00    -0.429 C  
HETATM   25  C   UNL     1     -12.489  13.046  65.554  1.00  0.00    -0.438 C  
HETATM   26  O   UNL     1     -12.581  11.928  65.078  1.00  0.00    -0.289 OA 
HETATM   27  O   UNL     1     -13.097  14.125  65.006  1.00  0.00    -0.728 OA 
ENDBRANCH  23  24
ENDBRANCH  22  23
ENDBRANCH  21  22
ENDBRANCH  19  20
ENDBRANCH  18  19
ENDBRANCH  10  11
ENDBRANCH   6   9
ENDBRANCH   5   6
ENDBRANCH   4   5
ENDBRANCH   3   4
ENDBRANCH   2   3
TORSDOF 11
ENDMDL
MODEL      306
REMARK 921   NORMALIZED FREE ENERGY PREDICTED BY IDOCK:   -3.31 KCAL/MOL
REMARK 922        TOTAL FREE ENERGY PREDICTED BY IDOCK:   -7.25 KCAL/MOL
REMARK 923 INTER-LIGAND FREE ENERGY PREDICTED BY IDOCK:   -5.54 KCAL/MOL
REMARK 924 INTRA-LIGAND FREE ENERGY PREDICTED BY IDOCK:   -1.71 KCAL/MOL
REMARK 927      BINDING AFFINITY PREDICTED BY RF-SCORE:    0.00 PKD
ROOT
HETATM    1  C   UNL     1      -9.620   8.017  71.686  1.00  0.00    -0.218 C  
HETATM    2  C   UNL     1      -8.922   9.025  70.792  1.00  0.00    -0.286 C  
ENDROOT
BRANCH   2   3
HETATM    3  C   UNL     1      -7.819   8.381  69.951  1.00  0.00    -0.101 C  
BRANCH   3   4
HETATM    4  C   UNL     1      -6.578   9.275  69.933  1.00  0.00    -0.049 C  
BRANCH   4   5
HETATM    5  C   UNL     1      -6.060   9.530  68.517  1.00  0.00    -0.044 C  
BRANCH   5   6
HETATM    6  C   UNL     1      -7.153  10.021  67.550  1.00  0.00    -0.087 C  
HETATM    7  O   UNL     1      -6.765   9.613  66.241  1.00  0.00    -0.073 OA 
HETATM    8  H   UNL     1      -7.439   9.916  65.645  1.00  0.00     0.000 HD 
BRANCH   6   9
HETATM    9  C   UNL     1      -7.362  11.521  67.605  1.00  0.00    -0.105 C  
HETATM   10  C   UNL     1      -8.212  12.185  68.408  1.00  0.00    -0.145 C  
BRANCH  10  11
HETATM   11  C   UNL     1      -8.529  13.663  68.303  1.00  0.00    -0.170 C  
HETATM   12  C   UNL     1      -7.351  14.486  68.869  1.00  0.00    -0.128 C  
HETATM   13  O   UNL     1      -7.364  14.526  70.289  1.00  0.00    -0.370 OA 
HETATM   14  C   UNL     1      -7.509  15.876  68.293  1.00  0.00    -0.128 C  
HETATM   15  H   UNL     1      -6.639  15.032  70.637  1.00  0.00     0.000 HD 
HETATM   16  C   UNL     1      -8.080  15.569  66.944  1.00  0.00    -0.249 C  
HETATM   17  O   UNL     1      -8.035  16.373  66.020  1.00  0.00    -0.214 OA 
HETATM   18  C   UNL     1      -8.734  14.196  66.865  1.00  0.00    -0.187 C  
BRANCH  18  19
HETATM   19  C   UNL     1     -10.228  14.305  66.522  1.00  0.00    -0.277 C  
BRANCH  19  20
HETATM   20  C   UNL     1     -10.845  13.024  66.022  1.00  0.00    -0.290 C  
HETATM   21  C   UNL     1     -11.553  12.123  66.721  1.00  0.00    -0.412 C  
BRANCH  21  22
HETATM   22  C   UNL     1     -11.864  12.190  68.185  1.00  0.00    -0.362 C  
BRANCH  22  23
HETATM   23  C   UNL     1     -12.240  13.599  68.642  1.00  0.00    -0.189 C  
BRANCH  23  24
HETATM   24  C   UNL     1     -12.056  13.712  70.156  1.00  0.00    -0.431 C  
HETATM   25  C   UNL     1     -11.575  15.075  70.583  1.00  0.00    -0.311 C  
HETATM   26  O   UNL     1     -11.344  16.011  69.838  1.00  0.00    -0.312 OA 
HETATM   27  O   UNL     1     -11.420  15.157  71.926  1.00  0.00    -0.408 OA 
ENDBRANCH  23  24
ENDBRANCH  22  23
ENDBRANCH  21  22
ENDBRANCH  19  20
ENDBRANCH  18  19
ENDBRANCH  10  11
ENDBRANCH   6   9
ENDBRANCH   5   6
ENDBRANCH   4   5
ENDBRANCH   3   4
ENDBRANCH   2   3
TORSDOF 11
ENDMDL
MODEL      307
REMARK 921   NORMALIZED FREE ENERGY PREDICTED BY IDOCK:   -3.30 KCAL/MOL
REMARK 922        TOTAL FREE ENERGY PREDICTED BY IDOCK:   -7.23 KCAL/MOL
REMARK 923 INTER-LIGAND FREE ENERGY PREDICTED BY IDOCK:   -5.79 KCAL/MOL
REMARK 924 INTRA-LIGAND FREE ENERGY PREDICTED BY IDOCK:   -1.44 KCAL/MOL
REMARK 927      BINDING AFFINITY PREDICTED BY RF-SCORE:    0.00 PKD
ROOT
HETATM    1  C   UNL     1     -11.833  14.792  67.465  1.00  0.00    -0.326 C  
HETATM    2  C   UNL     1     -10.678  15.764  67.617  1.00  0.00    -0.310 C  
ENDROOT
BRANCH   2   3
HETATM    3  C   UNL     1      -9.527  15.445  66.660  1.00  0.00    -0.281 C  
BRANCH   3   4
HETATM    4  C   UNL     1      -8.225  15.264  67.443  1.00  0.00    -0.207 C  
BRANCH   4   5
HETATM    5  C   UNL     1      -8.262  14.047  68.368  1.00  0.00    -0.150 C  
BRANCH   5   6
HETATM    6  C   UNL     1      -7.372  12.889  67.885  1.00  0.00    -0.127 C  
HETATM    7  O   UNL     1      -6.313  13.466  67.125  1.00  0.00    -0.458 OA 
HETATM    8  H   UNL     1      -5.764  12.752  66.827  1.00  0.00     0.000 HD 
BRANCH   6   9
HETATM    9  C   UNL     1      -8.126  11.864  67.063  1.00  0.00    -0.167 C  
HETATM   10  C   UNL     1      -7.775  10.582  66.858  1.00  0.00    -0.114 C  
BRANCH  10  11
HETATM   11  C   UNL     1      -8.453   9.643  65.880  1.00  0.00    -0.136 C  
HETATM   12  C   UNL     1      -7.502   9.354  64.698  1.00  0.00    -0.108 C  
HETATM   13  O   UNL     1      -7.487  10.417  63.755  1.00  0.00    -0.274 OA 
HETATM   14  C   UNL     1      -8.017   8.082  64.062  1.00  0.00    -0.134 C  
HETATM   15  H   UNL     1      -6.902  10.239  63.028  1.00  0.00     0.000 HD 
HETATM   16  C   UNL     1      -8.530   7.344  65.258  1.00  0.00    -0.056 C  
HETATM   17  O   UNL     1      -8.711   6.132  65.248  1.00  0.00    -0.124 OA 
HETATM   18  C   UNL     1      -8.822   8.252  66.445  1.00  0.00    -0.180 C  
BRANCH  18  19
HETATM   19  C   UNL     1     -10.305   8.192  66.844  1.00  0.00    -0.401 C  
BRANCH  19  20
HETATM   20  C   UNL     1     -10.590   7.335  68.051  1.00  0.00    -0.247 C  
HETATM   21  C   UNL     1     -10.545   7.693  69.344  1.00  0.00    -0.217 C  
BRANCH  21  22
HETATM   22  C   UNL     1     -10.170   9.044  69.872  1.00  0.00    -0.214 C  
BRANCH  22  23
HETATM   23  C   UNL     1     -10.823   9.350  71.219  1.00  0.00    -0.431 C  
BRANCH  23  24
HETATM   24  C   UNL     1     -11.055   8.046  71.984  1.00  0.00    -0.353 C  
HETATM   25  C   UNL     1     -10.033   7.818  73.068  1.00  0.00    -0.293 C  
HETATM   26  O   UNL     1      -9.107   8.564  73.339  1.00  0.00    -0.220 OA 
HETATM   27  O   UNL     1     -10.255   6.660  73.736  1.00  0.00    -0.263 OA 
ENDBRANCH  23  24
ENDBRANCH  22  23
ENDBRANCH  21  22
ENDBRANCH  19  20
ENDBRANCH  18  19
ENDBRANCH  10  11
ENDBRANCH   6   9
ENDBRANCH   5   6
ENDBRANCH   4   5
ENDBRANCH   3   4
ENDBRANCH   2   3
TORSDOF 11
ENDMDL
MODEL      308
REMARK 921   NORMALIZED FREE ENERGY PREDICTED BY IDOCK:   -3.29 KCAL/MOL
REMARK 922        TOTAL FREE ENERGY PREDICTED BY IDOCK:   -7.23 KCAL/MOL
REMARK 923 INTER-LIGAND FREE ENERGY PREDICTED BY IDOCK:   -5.63 KCAL/MOL
REMARK 924 INTRA-LIGAND FREE ENERGY PREDICTED BY IDOCK:   -1.60 KCAL/MOL
REMARK 927      BINDING AFFINITY PREDICTED BY RF-SCORE:    0.00 PKD
ROOT
HETATM    1  C   UNL     1      -7.187  14.515  69.189  1.00  0.00    -0.138 C  
HETATM    2  C   UNL     1      -7.466  13.600  68.011  1.00  0.00    -0.133 C  
ENDROOT
BRANCH   2   3
HETATM    3  C   UNL     1      -8.952  13.264  67.883  1.00  0.00    -0.199 C  
BRANCH   3   4
HETATM    4  C   UNL     1      -9.135  11.766  67.628  1.00  0.00    -0.177 C  
BRANCH   4   5
HETATM    5  C   UNL     1      -7.805  11.011  67.602  1.00  0.00    -0.114 C  
BRANCH   5   6
HETATM    6  C   UNL     1      -7.793   9.839  66.604  1.00  0.00    -0.109 C  
HETATM    7  O   UNL     1      -8.267  10.345  65.360  1.00  0.00    -0.152 OA 
HETATM    8  H   UNL     1      -8.259   9.622  64.745  1.00  0.00     0.000 HD 
BRANCH   6   9
HETATM    9  C   UNL     1      -8.632   8.663  67.061  1.00  0.00    -0.120 C  
HETATM   10  C   UNL     1      -8.180   7.466  67.475  1.00  0.00    -0.113 C  
BRANCH  10  11
HETATM   11  C   UNL     1      -9.052   6.255  67.744  1.00  0.00    -0.114 C  
HETATM   12  C   UNL     1      -8.977   5.288  66.542  1.00  0.00    -0.120 C  
HETATM   13  O   UNL     1      -9.801   5.714  65.465  1.00  0.00    -0.369 OA 
HETATM   14  C   UNL     1      -9.436   3.946  67.069  1.00  0.00    -0.226 C  
HETATM   15  H   UNL     1      -9.755   5.119  64.726  1.00  0.00     0.000 HD 
HETATM   16  C   UNL     1      -8.915   3.990  68.470  1.00  0.00    -0.117 C  
HETATM   17  O   UNL     1      -8.758   2.974  69.139  1.00  0.00    -0.068 OA 
HETATM   18  C   UNL     1      -8.643   5.402  68.968  1.00  0.00    -0.102 C  
BRANCH  18  19
HETATM   19  C   UNL     1      -9.506   5.743  70.193  1.00  0.00    -0.195 C  
BRANCH  19  20
HETATM   20  C   UNL     1     -10.937   6.087  69.867  1.00  0.00    -0.458 C  
HETATM   21  C   UNL     1     -11.765   6.894  70.548  1.00  0.00    -0.401 C  
BRANCH  21  22
HETATM   22  C   UNL     1     -11.441   7.620  71.818  1.00  0.00    -0.302 C  
BRANCH  22  23
HETATM   23  C   UNL     1     -11.641   9.130  71.699  1.00  0.00    -0.449 C  
BRANCH  23  24
HETATM   24  C   UNL     1     -11.645   9.531  70.223  1.00  0.00    -0.219 C  
HETATM   25  C   UNL     1     -12.252  10.892  69.991  1.00  0.00    -0.347 C  
HETATM   26  O   UNL     1     -12.704  11.623  70.855  1.00  0.00    -0.326 OA 
HETATM   27  O   UNL     1     -12.244  11.230  68.680  1.00  0.00    -0.562 OA 
ENDBRANCH  23  24
ENDBRANCH  22  23
ENDBRANCH  21  22
ENDBRANCH  19  20
ENDBRANCH  18  19
ENDBRANCH  10  11
ENDBRANCH   6   9
ENDBRANCH   5   6
ENDBRANCH   4   5
ENDBRANCH   3   4
ENDBRANCH   2   3
TORSDOF 11
ENDMDL
MODEL      309
REMARK 921   NORMALIZED FREE ENERGY PREDICTED BY IDOCK:   -3.28 KCAL/MOL
REMARK 922        TOTAL FREE ENERGY PREDICTED BY IDOCK:   -7.20 KCAL/MOL
REMARK 923 INTER-LIGAND FREE ENERGY PREDICTED BY IDOCK:   -5.56 KCAL/MOL
REMARK 924 INTRA-LIGAND FREE ENERGY PREDICTED BY IDOCK:   -1.64 KCAL/MOL
REMARK 927      BINDING AFFINITY PREDICTED BY RF-SCORE:    0.00 PKD
ROOT
HETATM    1  C   UNL     1      -7.412   9.441  70.614  1.00  0.00    -0.150 C  
HETATM    2  C   UNL     1      -7.673   8.425  69.518  1.00  0.00    -0.096 C  
ENDROOT
BRANCH   2   3
HETATM    3  C   UNL     1      -6.452   8.222  68.619  1.00  0.00    -0.054 C  
BRANCH   3   4
HETATM    4  C   UNL     1      -6.515   9.170  67.421  1.00  0.00    -0.064 C  
BRANCH   4   5
HETATM    5  C   UNL     1      -5.802  10.497  67.685  1.00  0.00    -0.044 C  
BRANCH   5   6
HETATM    6  C   UNL     1      -6.516  11.706  67.054  1.00  0.00    -0.148 C  
HETATM    7  O   UNL     1      -6.001  12.873  67.691  1.00  0.00    -0.130 OA 
HETATM    8  H   UNL     1      -6.441  13.619  67.301  1.00  0.00     0.000 HD 
BRANCH   6   9
HETATM    9  C   UNL     1      -8.023  11.642  67.189  1.00  0.00    -0.163 C  
HETATM   10  C   UNL     1      -8.793  12.409  67.982  1.00  0.00    -0.187 C  
BRANCH  10  11
HETATM   11  C   UNL     1     -10.272  12.190  68.230  1.00  0.00    -0.209 C  
HETATM   12  C   UNL     1     -10.476  10.867  69.000  1.00  0.00    -0.219 C  
HETATM   13  O   UNL     1     -10.394   9.736  68.144  1.00  0.00    -0.181 OA 
HETATM   14  C   UNL     1     -11.851  10.967  69.624  1.00  0.00    -0.414 C  
HETATM   15  H   UNL     1     -10.520   8.922  68.618  1.00  0.00     0.000 HD 
HETATM   16  C   UNL     1     -11.929  12.430  69.925  1.00  0.00    -0.299 C  
HETATM   17  O   UNL     1     -12.718  12.886  70.745  1.00  0.00    -0.252 OA 
HETATM   18  C   UNL     1     -10.965  13.268  69.096  1.00  0.00    -0.208 C  
BRANCH  18  19
HETATM   19  C   UNL     1     -11.715  14.284  68.220  1.00  0.00    -0.377 C  
BRANCH  19  20
HETATM   20  C   UNL     1     -12.031  13.792  66.831  1.00  0.00    -0.460 C  
HETATM   21  C   UNL     1     -11.331  14.000  65.705  1.00  0.00    -0.313 C  
BRANCH  21  22
HETATM   22  C   UNL     1     -10.073  14.803  65.585  1.00  0.00    -0.393 C  
BRANCH  22  23
HETATM   23  C   UNL     1     -10.260  16.257  66.017  1.00  0.00    -0.376 C  
BRANCH  23  24
HETATM   24  C   UNL     1      -8.892  16.915  66.204  1.00  0.00    -0.279 C  
HETATM   25  C   UNL     1      -8.381  16.802  67.618  1.00  0.00    -0.182 C  
HETATM   26  O   UNL     1      -8.962  16.257  68.541  1.00  0.00    -0.201 OA 
HETATM   27  O   UNL     1      -7.169  17.388  67.764  1.00  0.00    -0.163 OA 
ENDBRANCH  23  24
ENDBRANCH  22  23
ENDBRANCH  21  22
ENDBRANCH  19  20
ENDBRANCH  18  19
ENDBRANCH  10  11
ENDBRANCH   6   9
ENDBRANCH   5   6
ENDBRANCH   4   5
ENDBRANCH   3   4
ENDBRANCH   2   3
TORSDOF 11
ENDMDL
MODEL      310
REMARK 921   NORMALIZED FREE ENERGY PREDICTED BY IDOCK:   -3.27 KCAL/MOL
REMARK 922        TOTAL FREE ENERGY PREDICTED BY IDOCK:   -7.20 KCAL/MOL
REMARK 923 INTER-LIGAND FREE ENERGY PREDICTED BY IDOCK:   -6.07 KCAL/MOL
REMARK 924 INTRA-LIGAND FREE ENERGY PREDICTED BY IDOCK:   -1.12 KCAL/MOL
REMARK 927      BINDING AFFINITY PREDICTED BY RF-SCORE:    0.00 PKD
ROOT
HETATM    1  C   UNL     1     -10.415   6.011  71.814  1.00  0.00    -0.268 C  
HETATM    2  C   UNL     1      -9.010   6.482  71.488  1.00  0.00    -0.140 C  
ENDROOT
BRANCH   2   3
HETATM    3  C   UNL     1      -8.690   7.830  72.137  1.00  0.00    -0.169 C  
BRANCH   3   4
HETATM    4  C   UNL     1      -8.479   8.897  71.061  1.00  0.00    -0.244 C  
BRANCH   4   5
HETATM    5  C   UNL     1      -9.797   9.408  70.477  1.00  0.00    -0.331 C  
BRANCH   5   6
HETATM    6  C   UNL     1     -10.038   8.951  69.028  1.00  0.00    -0.197 C  
HETATM    7  O   UNL     1      -8.855   8.281  68.600  1.00  0.00    -0.133 OA 
HETATM    8  H   UNL     1      -9.004   7.998  67.706  1.00  0.00     0.000 HD 
BRANCH   6   9
HETATM    9  C   UNL     1     -10.375  10.094  68.093  1.00  0.00    -0.217 C  
HETATM   10  C   UNL     1      -9.693  10.463  66.995  1.00  0.00    -0.216 C  
BRANCH  10  11
HETATM   11  C   UNL     1      -9.953  11.723  66.194  1.00  0.00    -0.254 C  
HETATM   12  C   UNL     1     -11.055  11.451  65.147  1.00  0.00    -0.133 C  
HETATM   13  O   UNL     1     -10.551  10.764  64.010  1.00  0.00    -0.469 OA 
HETATM   14  C   UNL     1     -11.591  12.811  64.757  1.00  0.00    -0.368 C  
HETATM   15  H   UNL     1     -11.230  10.597  63.366  1.00  0.00     0.000 HD 
HETATM   16  C   UNL     1     -11.470  13.555  66.049  1.00  0.00    -0.325 C  
HETATM   17  O   UNL     1     -12.110  14.575  66.276  1.00  0.00    -0.377 OA 
HETATM   18  C   UNL     1     -10.466  12.933  67.010  1.00  0.00    -0.244 C  
BRANCH  18  19
HETATM   19  C   UNL     1      -9.322  13.906  67.334  1.00  0.00    -0.228 C  
BRANCH  19  20
HETATM   20  C   UNL     1      -7.944  13.309  67.212  1.00  0.00    -0.134 C  
HETATM   21  C   UNL     1      -6.783  13.819  67.652  1.00  0.00    -0.189 C  
BRANCH  21  22
HETATM   22  C   UNL     1      -6.607  15.132  68.351  1.00  0.00    -0.101 C  
BRANCH  22  23
HETATM   23  C   UNL     1      -6.281  16.272  67.388  1.00  0.00    -0.205 C  
BRANCH  23  24
HETATM   24  C   UNL     1      -7.574  16.977  66.974  1.00  0.00    -0.223 C  
HETATM   25  C   UNL     1      -7.326  18.176  66.095  1.00  0.00    -0.274 C  
HETATM   26  O   UNL     1      -6.233  18.577  65.733  1.00  0.00    -0.202 OA 
HETATM   27  O   UNL     1      -8.482  18.785  65.737  1.00  0.00    -0.436 OA 
ENDBRANCH  23  24
ENDBRANCH  22  23
ENDBRANCH  21  22
ENDBRANCH  19  20
ENDBRANCH  18  19
ENDBRANCH  10  11
ENDBRANCH   6   9
ENDBRANCH   5   6
ENDBRANCH   4   5
ENDBRANCH   3   4
ENDBRANCH   2   3
TORSDOF 11
ENDMDL
MODEL      311
REMARK 921   NORMALIZED FREE ENERGY PREDICTED BY IDOCK:   -3.22 KCAL/MOL
REMARK 922        TOTAL FREE ENERGY PREDICTED BY IDOCK:   -7.10 KCAL/MOL
REMARK 923 INTER-LIGAND FREE ENERGY PREDICTED BY IDOCK:   -6.67 KCAL/MOL
REMARK 924 INTRA-LIGAND FREE ENERGY PREDICTED BY IDOCK:   -0.43 KCAL/MOL
REMARK 927      BINDING AFFINITY PREDICTED BY RF-SCORE:    0.00 PKD
ROOT
HETATM    1  C   UNL     1      -8.379  16.499  66.253  1.00  0.00    -0.364 C  
HETATM    2  C   UNL     1      -9.631  17.302  66.555  1.00  0.00    -0.286 C  
ENDROOT
BRANCH   2   3
HETATM    3  C   UNL     1     -10.788  16.412  67.012  1.00  0.00    -0.145 C  
BRANCH   3   4
HETATM    4  C   UNL     1     -10.273  15.014  67.361  1.00  0.00    -0.234 C  
BRANCH   4   5
HETATM    5  C   UNL     1     -10.606  14.609  68.797  1.00  0.00    -0.248 C  
BRANCH   5   6
HETATM    6  C   UNL     1     -11.687  13.518  68.886  1.00  0.00    -0.339 C  
HETATM    7  O   UNL     1     -11.458  12.801  70.096  1.00  0.00    -0.519 OA 
HETATM    8  H   UNL     1     -12.126  12.128  70.150  1.00  0.00     0.000 HD 
BRANCH   6   9
HETATM    9  C   UNL     1     -11.681  12.579  67.697  1.00  0.00    -0.423 C  
HETATM   10  C   UNL     1     -10.608  12.194  66.982  1.00  0.00    -0.256 C  
BRANCH  10  11
HETATM   11  C   UNL     1     -10.665  11.405  65.689  1.00  0.00    -0.301 C  
HETATM   12  C   UNL     1     -11.196  12.310  64.556  1.00  0.00    -0.326 C  
HETATM   13  O   UNL     1     -12.610  12.446  64.601  1.00  0.00    -0.488 OA 
HETATM   14  C   UNL     1     -10.764  11.646  63.267  1.00  0.00    -0.404 C  
HETATM   15  H   UNL     1     -12.936  13.002  63.904  1.00  0.00     0.000 HD 
HETATM   16  C   UNL     1      -9.449  11.055  63.669  1.00  0.00    -0.272 C  
HETATM   17  O   UNL     1      -8.601  10.732  62.846  1.00  0.00    -0.189 OA 
HETATM   18  C   UNL     1      -9.305  10.877  65.175  1.00  0.00    -0.252 C  
BRANCH  18  19
HETATM   19  C   UNL     1      -9.108   9.400  65.549  1.00  0.00    -0.270 C  
BRANCH  19  20
HETATM   20  C   UNL     1     -10.264   8.790  66.299  1.00  0.00    -0.157 C  
HETATM   21  C   UNL     1     -10.346   7.557  66.824  1.00  0.00    -0.332 C  
BRANCH  21  22
HETATM   22  C   UNL     1      -9.291   6.497  66.752  1.00  0.00    -0.179 C  
BRANCH  22  23
HETATM   23  C   UNL     1      -9.810   5.190  66.154  1.00  0.00    -0.204 C  
BRANCH  23  24
HETATM   24  C   UNL     1      -8.638   4.242  65.901  1.00  0.00    -0.114 C  
HETATM   25  C   UNL     1      -8.691   3.008  66.765  1.00  0.00    -0.129 C  
HETATM   26  O   UNL     1      -9.553   2.755  67.589  1.00  0.00    -0.172 OA 
HETATM   27  O   UNL     1      -7.646   2.179  66.526  1.00  0.00    -0.064 OA 
ENDBRANCH  23  24
ENDBRANCH  22  23
ENDBRANCH  21  22
ENDBRANCH  19  20
ENDBRANCH  18  19
ENDBRANCH  10  11
ENDBRANCH   6   9
ENDBRANCH   5   6
ENDBRANCH   4   5
ENDBRANCH   3   4
ENDBRANCH   2   3
TORSDOF 11
ENDMDL
MODEL      312
REMARK 921   NORMALIZED FREE ENERGY PREDICTED BY IDOCK:   -3.20 KCAL/MOL
REMARK 922        TOTAL FREE ENERGY PREDICTED BY IDOCK:   -7.07 KCAL/MOL
REMARK 923 INTER-LIGAND FREE ENERGY PREDICTED BY IDOCK:   -5.36 KCAL/MOL
REMARK 924 INTRA-LIGAND FREE ENERGY PREDICTED BY IDOCK:   -1.70 KCAL/MOL
REMARK 927      BINDING AFFINITY PREDICTED BY RF-SCORE:    0.00 PKD
ROOT
HETATM    1  C   UNL     1     -11.182  15.500  66.423  1.00  0.00    -0.098 C  
HETATM    2  C   UNL     1     -10.029  16.447  66.701  1.00  0.00    -0.281 C  
ENDROOT
BRANCH   2   3
HETATM    3  C   UNL     1      -8.743  16.009  65.997  1.00  0.00    -0.267 C  
BRANCH   3   4
HETATM    4  C   UNL     1      -7.552  16.138  66.948  1.00  0.00    -0.275 C  
BRANCH   4   5
HETATM    5  C   UNL     1      -7.717  15.295  68.213  1.00  0.00    -0.112 C  
BRANCH   5   6
HETATM    6  C   UNL     1      -6.947  13.964  68.161  1.00  0.00    -0.120 C  
HETATM    7  O   UNL     1      -5.731  14.212  67.462  1.00  0.00    -0.345 OA 
HETATM    8  H   UNL     1      -5.256  13.391  67.430  1.00  0.00     0.000 HD 
BRANCH   6   9
HETATM    9  C   UNL     1      -7.731  12.851  67.495  1.00  0.00    -0.174 C  
HETATM   10  C   UNL     1      -7.291  11.610  67.222  1.00  0.00    -0.136 C  
BRANCH  10  11
HETATM   11  C   UNL     1      -8.039  10.588  66.389  1.00  0.00    -0.135 C  
HETATM   12  C   UNL     1      -7.523   9.172  66.724  1.00  0.00    -0.087 C  
HETATM   13  O   UNL     1      -6.293   8.886  66.072  1.00  0.00    -0.055 OA 
HETATM   14  C   UNL     1      -8.607   8.223  66.261  1.00  0.00    -0.152 C  
HETATM   15  H   UNL     1      -5.976   8.015  66.278  1.00  0.00     0.000 HD 
HETATM   16  C   UNL     1      -9.837   9.030  66.531  1.00  0.00    -0.268 C  
HETATM   17  O   UNL     1     -10.945   8.515  66.631  1.00  0.00     0.072 OA 
HETATM   18  C   UNL     1      -9.566  10.525  66.632  1.00  0.00    -0.210 C  
BRANCH  18  19
HETATM   19  C   UNL     1     -10.331  11.308  65.554  1.00  0.00    -0.321 C  
BRANCH  19  20
HETATM   20  C   UNL     1     -11.639  11.892  66.021  1.00  0.00    -0.296 C  
HETATM   21  C   UNL     1     -11.990  12.232  67.271  1.00  0.00    -0.201 C  
BRANCH  21  22
HETATM   22  C   UNL     1     -11.142  12.077  68.497  1.00  0.00    -0.289 C  
BRANCH  22  23
HETATM   23  C   UNL     1     -11.007  13.378  69.287  1.00  0.00    -0.159 C  
BRANCH  23  24
HETATM   24  C   UNL     1     -12.349  13.727  69.931  1.00  0.00    -0.334 C  
HETATM   25  C   UNL     1     -12.523  15.209  70.145  1.00  0.00    -0.318 C  
HETATM   26  O   UNL     1     -11.708  16.068  69.854  1.00  0.00    -0.325 OA 
HETATM   27  O   UNL     1     -13.717  15.500  70.714  1.00  0.00    -0.475 OA 
ENDBRANCH  23  24
ENDBRANCH  22  23
ENDBRANCH  21  22
ENDBRANCH  19  20
ENDBRANCH  18  19
ENDBRANCH  10  11
ENDBRANCH   6   9
ENDBRANCH   5   6
ENDBRANCH   4   5
ENDBRANCH   3   4
ENDBRANCH   2   3
TORSDOF 11
ENDMDL
MODEL      313
REMARK 921   NORMALIZED FREE ENERGY PREDICTED BY IDOCK:   -3.19 KCAL/MOL
REMARK 922        TOTAL FREE ENERGY PREDICTED BY IDOCK:   -7.06 KCAL/MOL
REMARK 923 INTER-LIGAND FREE ENERGY PREDICTED BY IDOCK:   -5.59 KCAL/MOL
REMARK 924 INTRA-LIGAND FREE ENERGY PREDICTED BY IDOCK:   -1.46 KCAL/MOL
REMARK 927      BINDING AFFINITY PREDICTED BY RF-SCORE:    0.00 PKD
ROOT
HETATM    1  C   UNL     1      -8.201  15.694  67.200  1.00  0.00    -0.244 C  
HETATM    2  C   UNL     1      -9.674  15.908  66.904  1.00  0.00    -0.241 C  
ENDROOT
BRANCH   2   3
HETATM    3  C   UNL     1     -10.406  14.590  66.649  1.00  0.00    -0.274 C  
BRANCH   3   4
HETATM    4  C   UNL     1     -10.394  13.727  67.912  1.00  0.00    -0.244 C  
BRANCH   4   5
HETATM    5  C   UNL     1     -11.790  13.234  68.298  1.00  0.00    -0.389 C  
BRANCH   5   6
HETATM    6  C   UNL     1     -11.827  11.739  68.661  1.00  0.00    -0.310 C  
HETATM    7  O   UNL     1     -11.101  11.588  69.878  1.00  0.00    -0.459 OA 
HETATM    8  H   UNL     1     -11.124  10.665  70.103  1.00  0.00     0.000 HD 
BRANCH   6   9
HETATM    9  C   UNL     1     -11.250  10.851  67.578  1.00  0.00    -0.364 C  
HETATM   10  C   UNL     1     -10.095  10.163  67.633  1.00  0.00    -0.231 C  
BRANCH  10  11
HETATM   11  C   UNL     1      -9.461   9.438  66.463  1.00  0.00    -0.246 C  
HETATM   12  C   UNL     1      -8.332  10.308  65.867  1.00  0.00    -0.145 C  
HETATM   13  O   UNL     1      -8.839  11.336  65.028  1.00  0.00    -0.371 OA 
HETATM   14  C   UNL     1      -7.458   9.357  65.079  1.00  0.00    -0.106 C  
HETATM   15  H   UNL     1      -8.144  11.871  64.662  1.00  0.00     0.000 HD 
HETATM   16  C   UNL     1      -7.560   8.113  65.905  1.00  0.00    -0.082 C  
HETATM   17  O   UNL     1      -6.737   7.209  65.825  1.00  0.00    -0.050 OA 
HETATM   18  C   UNL     1      -8.787   8.088  66.806  1.00  0.00    -0.157 C  
BRANCH  18  19
HETATM   19  C   UNL     1      -9.710   6.907  66.465  1.00  0.00    -0.185 C  
BRANCH  19  20
HETATM   20  C   UNL     1     -10.941   6.812  67.328  1.00  0.00    -0.433 C  
HETATM   21  C   UNL     1     -11.030   6.357  68.588  1.00  0.00    -0.404 C  
BRANCH  21  22
HETATM   22  C   UNL     1      -9.902   5.813  69.410  1.00  0.00    -0.219 C  
BRANCH  22  23
HETATM   23  C   UNL     1      -9.688   4.315  69.198  1.00  0.00    -0.226 C  
BRANCH  23  24
HETATM   24  C   UNL     1      -8.381   4.089  68.436  1.00  0.00    -0.100 C  
HETATM   25  C   UNL     1      -7.294   3.510  69.306  1.00  0.00    -0.049 C  
HETATM   26  O   UNL     1      -7.402   3.240  70.490  1.00  0.00    -0.040 OA 
HETATM   27  O   UNL     1      -6.146   3.315  68.614  1.00  0.00    -0.026 OA 
ENDBRANCH  23  24
ENDBRANCH  22  23
ENDBRANCH  21  22
ENDBRANCH  19  20
ENDBRANCH  18  19
ENDBRANCH  10  11
ENDBRANCH   6   9
ENDBRANCH   5   6
ENDBRANCH   4   5
ENDBRANCH   3   4
ENDBRANCH   2   3
TORSDOF 11
ENDMDL
MODEL      314
REMARK 921   NORMALIZED FREE ENERGY PREDICTED BY IDOCK:   -3.17 KCAL/MOL
REMARK 922        TOTAL FREE ENERGY PREDICTED BY IDOCK:   -7.02 KCAL/MOL
REMARK 923 INTER-LIGAND FREE ENERGY PREDICTED BY IDOCK:   -5.70 KCAL/MOL
REMARK 924 INTRA-LIGAND FREE ENERGY PREDICTED BY IDOCK:   -1.32 KCAL/MOL
REMARK 927      BINDING AFFINITY PREDICTED BY RF-SCORE:    0.00 PKD
ROOT
HETATM    1  C   UNL     1     -12.391  14.106  71.180  1.00  0.00    -0.447 C  
HETATM    2  C   UNL     1     -12.262  15.133  70.070  1.00  0.00    -0.379 C  
ENDROOT
BRANCH   2   3
HETATM    3  C   UNL     1     -11.283  14.685  68.983  1.00  0.00    -0.287 C  
BRANCH   3   4
HETATM    4  C   UNL     1     -12.048  14.166  67.765  1.00  0.00    -0.321 C  
BRANCH   4   5
HETATM    5  C   UNL     1     -11.878  15.066  66.540  1.00  0.00    -0.052 C  
BRANCH   5   6
HETATM    6  C   UNL     1     -11.557  14.285  65.253  1.00  0.00    -0.348 C  
HETATM    7  O   UNL     1     -12.793  13.789  64.746  1.00  0.00    -0.685 OA 
HETATM    8  H   UNL     1     -12.594  13.308  63.952  1.00  0.00     0.000 HD 
BRANCH   6   9
HETATM    9  C   UNL     1     -10.575  13.153  65.476  1.00  0.00    -0.299 C  
HETATM   10  C   UNL     1     -10.851  11.837  65.471  1.00  0.00    -0.348 C  
BRANCH  10  11
HETATM   11  C   UNL     1      -9.882  10.746  65.883  1.00  0.00    -0.290 C  
HETATM   12  C   UNL     1      -9.046  10.309  64.660  1.00  0.00    -0.228 C  
HETATM   13  O   UNL     1      -9.767   9.428  63.810  1.00  0.00    -0.342 OA 
HETATM   14  C   UNL     1      -7.821   9.625  65.227  1.00  0.00    -0.115 C  
HETATM   15  H   UNL     1      -9.252   9.159  63.058  1.00  0.00     0.000 HD 
HETATM   16  C   UNL     1      -7.599  10.414  66.478  1.00  0.00    -0.118 C  
HETATM   17  O   UNL     1      -6.518  10.426  67.056  1.00  0.00    -0.069 OA 
HETATM   18  C   UNL     1      -8.842  11.153  66.953  1.00  0.00    -0.157 C  
BRANCH  18  19
HETATM   19  C   UNL     1      -9.274  10.683  68.351  1.00  0.00    -0.159 C  
BRANCH  19  20
HETATM   20  C   UNL     1      -8.656   9.379  68.786  1.00  0.00    -0.127 C  
HETATM   21  C   UNL     1      -9.030   8.136  68.446  1.00  0.00    -0.136 C  
BRANCH  21  22
HETATM   22  C   UNL     1     -10.183   7.774  67.561  1.00  0.00    -0.301 C  
BRANCH  22  23
HETATM   23  C   UNL     1      -9.766   6.900  66.379  1.00  0.00    -0.127 C  
BRANCH  23  24
HETATM   24  C   UNL     1      -8.291   6.520  66.519  1.00  0.00    -0.116 C  
HETATM   25  C   UNL     1      -7.675   6.090  65.213  1.00  0.00    -0.093 C  
HETATM   26  O   UNL     1      -8.251   6.035  64.140  1.00  0.00    -0.120 OA 
HETATM   27  O   UNL     1      -6.369   5.760  65.356  1.00  0.00    -0.039 OA 
ENDBRANCH  23  24
ENDBRANCH  22  23
ENDBRANCH  21  22
ENDBRANCH  19  20
ENDBRANCH  18  19
ENDBRANCH  10  11
ENDBRANCH   6   9
ENDBRANCH   5   6
ENDBRANCH   4   5
ENDBRANCH   3   4
ENDBRANCH   2   3
TORSDOF 11
ENDMDL
MODEL      315
REMARK 921   NORMALIZED FREE ENERGY PREDICTED BY IDOCK:   -3.16 KCAL/MOL
REMARK 922        TOTAL FREE ENERGY PREDICTED BY IDOCK:   -7.01 KCAL/MOL
REMARK 923 INTER-LIGAND FREE ENERGY PREDICTED BY IDOCK:   -5.27 KCAL/MOL
REMARK 924 INTRA-LIGAND FREE ENERGY PREDICTED BY IDOCK:   -1.74 KCAL/MOL
REMARK 927      BINDING AFFINITY PREDICTED BY RF-SCORE:    0.00 PKD
ROOT
HETATM    1  C   UNL     1      -8.234  10.222  62.734  1.00  0.00    -0.162 C  
HETATM    2  C   UNL     1      -9.576   9.905  63.366  1.00  0.00     0.026 C  
ENDROOT
BRANCH   2   3
HETATM    3  C   UNL     1     -10.226  11.142  63.987  1.00  0.00    -0.419 C  
BRANCH   3   4
HETATM    4  C   UNL     1     -10.976  10.760  65.265  1.00  0.00     0.052 C  
BRANCH   4   5
HETATM    5  C   UNL     1     -10.243   9.690  66.075  1.00  0.00    -0.255 C  
BRANCH   5   6
HETATM    6  C   UNL     1      -9.872  10.152  67.495  1.00  0.00    -0.177 C  
HETATM    7  O   UNL     1     -10.878   9.653  68.373  1.00  0.00    -0.322 OA 
HETATM    8  H   UNL     1     -10.648   9.938  69.249  1.00  0.00     0.000 HD 
BRANCH   6   9
HETATM    9  C   UNL     1      -9.752  11.658  67.617  1.00  0.00    -0.186 C  
HETATM   10  C   UNL     1     -10.656  12.495  68.157  1.00  0.00    -0.239 C  
BRANCH  10  11
HETATM   11  C   UNL     1     -10.585  14.007  68.091  1.00  0.00    -0.252 C  
HETATM   12  C   UNL     1     -12.013  14.593  68.134  1.00  0.00    -0.246 C  
HETATM   13  O   UNL     1     -12.660  14.512  66.872  1.00  0.00    -0.492 OA 
HETATM   14  C   UNL     1     -11.849  16.036  68.560  1.00  0.00    -0.126 C  
HETATM   15  H   UNL     1     -13.538  14.873  66.899  1.00  0.00     0.000 HD 
HETATM   16  C   UNL     1     -10.680  15.936  69.488  1.00  0.00    -0.288 C  
HETATM   17  O   UNL     1     -10.434  16.801  70.321  1.00  0.00     0.014 OA 
HETATM   18  C   UNL     1      -9.839  14.687  69.264  1.00  0.00    -0.076 C  
BRANCH  18  19
HETATM   19  C   UNL     1      -8.398  15.045  68.868  1.00  0.00    -0.183 C  
BRANCH  19  20
HETATM   20  C   UNL     1      -8.199  15.284  67.393  1.00  0.00    -0.207 C  
HETATM   21  C   UNL     1      -7.766  16.402  66.791  1.00  0.00    -0.298 C  
BRANCH  21  22
HETATM   22  C   UNL     1      -7.402  17.686  67.472  1.00  0.00    -0.202 C  
BRANCH  22  23
HETATM   23  C   UNL     1      -8.628  18.495  67.893  1.00  0.00    -0.304 C  
BRANCH  23  24
HETATM   24  C   UNL     1      -9.197  19.231  66.680  1.00  0.00    -0.379 C  
HETATM   25  C   UNL     1     -10.622  19.677  66.885  1.00  0.00    -0.484 C  
HETATM   26  O   UNL     1     -11.285  19.491  67.891  1.00  0.00    -0.080 OA 
HETATM   27  O   UNL     1     -11.107  20.329  65.802  1.00  0.00     0.019 OA 
ENDBRANCH  23  24
ENDBRANCH  22  23
ENDBRANCH  21  22
ENDBRANCH  19  20
ENDBRANCH  18  19
ENDBRANCH  10  11
ENDBRANCH   6   9
ENDBRANCH   5   6
ENDBRANCH   4   5
ENDBRANCH   3   4
ENDBRANCH   2   3
TORSDOF 11
ENDMDL
MODEL      316
REMARK 921   NORMALIZED FREE ENERGY PREDICTED BY IDOCK:   -3.15 KCAL/MOL
REMARK 922        TOTAL FREE ENERGY PREDICTED BY IDOCK:   -7.00 KCAL/MOL
REMARK 923 INTER-LIGAND FREE ENERGY PREDICTED BY IDOCK:   -5.24 KCAL/MOL
REMARK 924 INTRA-LIGAND FREE ENERGY PREDICTED BY IDOCK:   -1.76 KCAL/MOL
REMARK 927      BINDING AFFINITY PREDICTED BY RF-SCORE:    0.00 PKD
ROOT
HETATM    1  C   UNL     1      -8.311   7.696  73.990  1.00  0.00    -0.262 C  
HETATM    2  C   UNL     1      -8.545   7.929  72.509  1.00  0.00    -0.205 C  
ENDROOT
BRANCH   2   3
HETATM    3  C   UNL     1      -9.856   8.671  72.244  1.00  0.00    -0.360 C  
BRANCH   3   4
HETATM    4  C   UNL     1     -10.154   8.696  70.744  1.00  0.00    -0.244 C  
BRANCH   4   5
HETATM    5  C   UNL     1      -9.611   9.952  70.061  1.00  0.00    -0.260 C  
BRANCH   5   6
HETATM    6  C   UNL     1      -9.998  10.050  68.574  1.00  0.00    -0.162 C  
HETATM    7  O   UNL     1     -11.412   9.892  68.500  1.00  0.00    -0.512 OA 
HETATM    8  H   UNL     1     -11.650   9.952  67.583  1.00  0.00     0.000 HD 
BRANCH   6   9
HETATM    9  C   UNL     1      -9.296   9.022  67.710  1.00  0.00    -0.156 C  
HETATM   10  C   UNL     1      -9.792   8.419  66.615  1.00  0.00    -0.343 C  
BRANCH  10  11
HETATM   11  C   UNL     1      -9.135   7.262  65.889  1.00  0.00    -0.064 C  
HETATM   12  C   UNL     1      -8.091   7.807  64.889  1.00  0.00    -0.136 C  
HETATM   13  O   UNL     1      -8.697   8.285  63.696  1.00  0.00    -0.402 OA 
HETATM   14  C   UNL     1      -7.167   6.646  64.592  1.00  0.00    -0.071 C  
HETATM   15  H   UNL     1      -8.054   8.620  63.081  1.00  0.00     0.000 HD 
HETATM   16  C   UNL     1      -7.153   5.938  65.910  1.00  0.00    -0.074 C  
HETATM   17  O   UNL     1      -6.266   5.151  66.218  1.00  0.00    -0.033 OA 
HETATM   18  C   UNL     1      -8.351   6.276  66.787  1.00  0.00    -0.110 C  
BRANCH  18  19
HETATM   19  C   UNL     1      -9.189   5.026  67.097  1.00  0.00    -0.124 C  
BRANCH  19  20
HETATM   20  C   UNL     1     -10.551   5.318  67.673  1.00  0.00    -0.126 C  
HETATM   21  C   UNL     1     -10.868   5.559  68.955  1.00  0.00    -0.154 C  
BRANCH  21  22
HETATM   22  C   UNL     1      -9.918   5.564  70.112  1.00  0.00    -0.287 C  
BRANCH  22  23
HETATM   23  C   UNL     1      -9.846   4.212  70.821  1.00  0.00    -0.248 C  
BRANCH  23  24
HETATM   24  C   UNL     1      -9.631   4.430  72.319  1.00  0.00    -0.200 C  
HETATM   25  C   UNL     1     -10.830   5.046  72.995  1.00  0.00    -0.273 C  
HETATM   26  O   UNL     1     -11.873   5.354  72.445  1.00  0.00    -0.149 OA 
HETATM   27  O   UNL     1     -10.622   5.230  74.321  1.00  0.00    -0.281 OA 
ENDBRANCH  23  24
ENDBRANCH  22  23
ENDBRANCH  21  22
ENDBRANCH  19  20
ENDBRANCH  18  19
ENDBRANCH  10  11
ENDBRANCH   6   9
ENDBRANCH   5   6
ENDBRANCH   4   5
ENDBRANCH   3   4
ENDBRANCH   2   3
TORSDOF 11
ENDMDL
MODEL      317
REMARK 921   NORMALIZED FREE ENERGY PREDICTED BY IDOCK:   -3.15 KCAL/MOL
REMARK 922        TOTAL FREE ENERGY PREDICTED BY IDOCK:   -6.99 KCAL/MOL
REMARK 923 INTER-LIGAND FREE ENERGY PREDICTED BY IDOCK:   -5.96 KCAL/MOL
REMARK 924 INTRA-LIGAND FREE ENERGY PREDICTED BY IDOCK:   -1.03 KCAL/MOL
REMARK 927      BINDING AFFINITY PREDICTED BY RF-SCORE:    0.00 PKD
ROOT
HETATM    1  C   UNL     1     -12.241  11.747  63.703  1.00  0.00    -0.489 C  
HETATM    2  C   UNL     1     -11.104  12.247  64.575  1.00  0.00    -0.368 C  
ENDROOT
BRANCH   2   3
HETATM    3  C   UNL     1     -11.581  13.261  65.616  1.00  0.00    -0.363 C  
BRANCH   3   4
HETATM    4  C   UNL     1     -11.603  12.621  67.005  1.00  0.00    -0.431 C  
BRANCH   4   5
HETATM    5  C   UNL     1     -10.495  11.583  67.189  1.00  0.00    -0.259 C  
BRANCH   5   6
HETATM    6  C   UNL     1      -9.968  11.506  68.633  1.00  0.00    -0.199 C  
HETATM    7  O   UNL     1      -8.796  12.314  68.692  1.00  0.00    -0.345 OA 
HETATM    8  H   UNL     1      -8.471  12.267  69.583  1.00  0.00     0.000 HD 
BRANCH   6   9
HETATM    9  C   UNL     1      -9.668  10.090  69.080  1.00  0.00    -0.217 C  
HETATM   10  C   UNL     1      -9.950   9.548  70.278  1.00  0.00    -0.310 C  
BRANCH  10  11
HETATM   11  C   UNL     1      -9.467   8.192  70.752  1.00  0.00    -0.180 C  
HETATM   12  C   UNL     1      -8.409   8.380  71.862  1.00  0.00    -0.167 C  
HETATM   13  O   UNL     1      -7.134   8.711  71.330  1.00  0.00    -0.074 OA 
HETATM   14  C   UNL     1      -8.355   7.060  72.601  1.00  0.00    -0.119 C  
HETATM   15  H   UNL     1      -6.483   8.826  72.013  1.00  0.00     0.000 HD 
HETATM   16  C   UNL     1      -9.781   6.618  72.514  1.00  0.00    -0.157 C  
HETATM   17  O   UNL     1     -10.251   5.779  73.275  1.00  0.00    -0.180 OA 
HETATM   18  C   UNL     1     -10.551   7.286  71.383  1.00  0.00    -0.229 C  
BRANCH  18  19
HETATM   19  C   UNL     1     -11.068   6.254  70.369  1.00  0.00    -0.416 C  
BRANCH  19  20
HETATM   20  C   UNL     1     -11.401   6.826  69.015  1.00  0.00    -0.152 C  
HETATM   21  C   UNL     1     -11.040   6.356  67.811  1.00  0.00    -0.376 C  
BRANCH  21  22
HETATM   22  C   UNL     1     -10.190   5.149  67.554  1.00  0.00    -0.210 C  
BRANCH  22  23
HETATM   23  C   UNL     1     -10.270   4.671  66.105  1.00  0.00    -0.308 C  
BRANCH  23  24
HETATM   24  C   UNL     1      -8.881   4.733  65.469  1.00  0.00    -0.139 C  
HETATM   25  C   UNL     1      -8.291   3.366  65.227  1.00  0.00    -0.098 C  
HETATM   26  O   UNL     1      -8.827   2.305  65.495  1.00  0.00    -0.117 OA 
HETATM   27  O   UNL     1      -7.063   3.440  64.662  1.00  0.00    -0.055 OA 
ENDBRANCH  23  24
ENDBRANCH  22  23
ENDBRANCH  21  22
ENDBRANCH  19  20
ENDBRANCH  18  19
ENDBRANCH  10  11
ENDBRANCH   6   9
ENDBRANCH   5   6
ENDBRANCH   4   5
ENDBRANCH   3   4
ENDBRANCH   2   3
TORSDOF 11
ENDMDL
MODEL      318
REMARK 921   NORMALIZED FREE ENERGY PREDICTED BY IDOCK:   -3.14 KCAL/MOL
REMARK 922        TOTAL FREE ENERGY PREDICTED BY IDOCK:   -6.97 KCAL/MOL
REMARK 923 INTER-LIGAND FREE ENERGY PREDICTED BY IDOCK:   -6.19 KCAL/MOL
REMARK 924 INTRA-LIGAND FREE ENERGY PREDICTED BY IDOCK:   -0.79 KCAL/MOL
REMARK 927      BINDING AFFINITY PREDICTED BY RF-SCORE:    0.00 PKD
ROOT
HETATM    1  C   UNL     1      -8.712  20.089  66.921  1.00  0.00    -0.417 C  
HETATM    2  C   UNL     1      -7.635  19.476  66.045  1.00  0.00    -0.326 C  
ENDROOT
BRANCH   2   3
HETATM    3  C   UNL     1      -7.637  17.948  66.117  1.00  0.00    -0.295 C  
BRANCH   3   4
HETATM    4  C   UNL     1      -6.290  17.443  66.637  1.00  0.00    -0.250 C  
BRANCH   4   5
HETATM    5  C   UNL     1      -6.332  17.093  68.125  1.00  0.00    -0.147 C  
BRANCH   5   6
HETATM    6  C   UNL     1      -6.741  15.634  68.395  1.00  0.00    -0.116 C  
HETATM    7  O   UNL     1      -5.921  14.812  67.568  1.00  0.00    -0.328 OA 
HETATM    8  H   UNL     1      -6.173  13.911  67.735  1.00  0.00     0.000 HD 
BRANCH   6   9
HETATM    9  C   UNL     1      -8.208  15.370  68.127  1.00  0.00    -0.144 C  
HETATM   10  C   UNL     1      -9.104  14.861  68.991  1.00  0.00    -0.175 C  
BRANCH  10  11
HETATM   11  C   UNL     1     -10.514  14.437  68.631  1.00  0.00    -0.247 C  
HETATM   12  C   UNL     1     -10.960  15.169  67.346  1.00  0.00    -0.314 C  
HETATM   13  O   UNL     1     -11.367  16.504  67.608  1.00  0.00    -0.119 OA 
HETATM   14  C   UNL     1     -12.111  14.357  66.793  1.00  0.00    -0.393 C  
HETATM   15  H   UNL     1     -11.642  16.954  66.818  1.00  0.00     0.000 HD 
HETATM   16  C   UNL     1     -11.700  12.970  67.175  1.00  0.00    -0.382 C  
HETATM   17  O   UNL     1     -12.162  11.978  66.622  1.00  0.00    -0.550 OA 
HETATM   18  C   UNL     1     -10.694  12.933  68.317  1.00  0.00    -0.261 C  
BRANCH  18  19
HETATM   19  C   UNL     1     -11.254  12.178  69.533  1.00  0.00    -0.201 C  
BRANCH  19  20
HETATM   20  C   UNL     1     -11.323  10.682  69.357  1.00  0.00    -0.348 C  
HETATM   21  C   UNL     1     -10.346   9.854  68.958  1.00  0.00    -0.224 C  
BRANCH  21  22
HETATM   22  C   UNL     1      -8.955  10.254  68.572  1.00  0.00    -0.134 C  
BRANCH  22  23
HETATM   23  C   UNL     1      -7.890   9.343  69.182  1.00  0.00    -0.080 C  
BRANCH  23  24
HETATM   24  C   UNL     1      -7.757   9.641  70.676  1.00  0.00    -0.099 C  
HETATM   25  C   UNL     1      -8.041   8.437  71.537  1.00  0.00    -0.137 C  
HETATM   26  O   UNL     1      -8.348   7.330  71.129  1.00  0.00    -0.110 OA 
HETATM   27  O   UNL     1      -7.917   8.719  72.856  1.00  0.00    -0.391 OA 
ENDBRANCH  23  24
ENDBRANCH  22  23
ENDBRANCH  21  22
ENDBRANCH  19  20
ENDBRANCH  18  19
ENDBRANCH  10  11
ENDBRANCH   6   9
ENDBRANCH   5   6
ENDBRANCH   4   5
ENDBRANCH   3   4
ENDBRANCH   2   3
TORSDOF 11
ENDMDL
MODEL      319
REMARK 921   NORMALIZED FREE ENERGY PREDICTED BY IDOCK:   -3.13 KCAL/MOL
REMARK 922        TOTAL FREE ENERGY PREDICTED BY IDOCK:   -6.96 KCAL/MOL
REMARK 923 INTER-LIGAND FREE ENERGY PREDICTED BY IDOCK:   -5.30 KCAL/MOL
REMARK 924 INTRA-LIGAND FREE ENERGY PREDICTED BY IDOCK:   -1.66 KCAL/MOL
REMARK 927      BINDING AFFINITY PREDICTED BY RF-SCORE:    0.00 PKD
ROOT
HETATM    1  C   UNL     1     -11.873  12.259  69.777  1.00  0.00    -0.388 C  
HETATM    2  C   UNL     1     -11.701  10.779  70.061  1.00  0.00    -0.417 C  
ENDROOT
BRANCH   2   3
HETATM    3  C   UNL     1     -12.662  10.284  71.143  1.00  0.00    -0.502 C  
BRANCH   3   4
HETATM    4  C   UNL     1     -12.081   9.055  71.844  1.00  0.00    -0.448 C  
BRANCH   4   5
HETATM    5  C   UNL     1     -11.011   8.355  71.006  1.00  0.00    -0.288 C  
BRANCH   5   6
HETATM    6  C   UNL     1     -11.445   6.966  70.504  1.00  0.00    -0.342 C  
HETATM    7  O   UNL     1     -11.561   6.127  71.649  1.00  0.00    -0.295 OA 
HETATM    8  H   UNL     1     -11.829   5.270  71.340  1.00  0.00     0.000 HD 
BRANCH   6   9
HETATM    9  C   UNL     1     -10.481   6.371  69.497  1.00  0.00    -0.279 C  
HETATM   10  C   UNL     1      -9.986   5.121  69.500  1.00  0.00    -0.301 C  
BRANCH  10  11
HETATM   11  C   UNL     1      -8.883   4.622  68.588  1.00  0.00    -0.125 C  
HETATM   12  C   UNL     1      -9.469   3.617  67.572  1.00  0.00    -0.191 C  
HETATM   13  O   UNL     1      -9.655   2.330  68.144  1.00  0.00    -0.274 OA 
HETATM   14  C   UNL     1      -8.471   3.559  66.435  1.00  0.00    -0.108 C  
HETATM   15  H   UNL     1     -10.015   1.712  67.518  1.00  0.00     0.000 HD 
HETATM   16  C   UNL     1      -7.970   4.968  66.414  1.00  0.00    -0.107 C  
HETATM   17  O   UNL     1      -7.413   5.447  65.433  1.00  0.00    -0.074 OA 
HETATM   18  C   UNL     1      -8.196   5.707  67.726  1.00  0.00    -0.101 C  
BRANCH  18  19
HETATM   19  C   UNL     1      -6.866   6.153  68.355  1.00  0.00    -0.074 C  
BRANCH  19  20
HETATM   20  C   UNL     1      -6.353   7.476  67.849  1.00  0.00    -0.053 C  
HETATM   21  C   UNL     1      -6.641   8.703  68.312  1.00  0.00    -0.061 C  
BRANCH  21  22
HETATM   22  C   UNL     1      -7.574   9.023  69.439  1.00  0.00    -0.078 C  
BRANCH  22  23
HETATM   23  C   UNL     1      -8.475  10.219  69.135  1.00  0.00    -0.164 C  
BRANCH  23  24
HETATM   24  C   UNL     1      -7.619  11.398  68.668  1.00  0.00    -0.130 C  
HETATM   25  C   UNL     1      -8.389  12.374  67.816  1.00  0.00    -0.164 C  
HETATM   26  O   UNL     1      -9.564  12.273  67.507  1.00  0.00    -0.178 OA 
HETATM   27  O   UNL     1      -7.616  13.411  67.414  1.00  0.00    -0.162 OA 
ENDBRANCH  23  24
ENDBRANCH  22  23
ENDBRANCH  21  22
ENDBRANCH  19  20
ENDBRANCH  18  19
ENDBRANCH  10  11
ENDBRANCH   6   9
ENDBRANCH   5   6
ENDBRANCH   4   5
ENDBRANCH   3   4
ENDBRANCH   2   3
TORSDOF 11
ENDMDL
MODEL      320
REMARK 921   NORMALIZED FREE ENERGY PREDICTED BY IDOCK:   -3.12 KCAL/MOL
REMARK 922        TOTAL FREE ENERGY PREDICTED BY IDOCK:   -6.95 KCAL/MOL
REMARK 923 INTER-LIGAND FREE ENERGY PREDICTED BY IDOCK:   -6.09 KCAL/MOL
REMARK 924 INTRA-LIGAND FREE ENERGY PREDICTED BY IDOCK:   -0.86 KCAL/MOL
REMARK 927      BINDING AFFINITY PREDICTED BY RF-SCORE:    0.00 PKD
ROOT
HETATM    1  C   UNL     1      -7.717  16.964  66.855  1.00  0.00    -0.252 C  
HETATM    2  C   UNL     1      -9.216  16.985  66.621  1.00  0.00    -0.277 C  
ENDROOT
BRANCH   2   3
HETATM    3  C   UNL     1      -9.642  15.999  65.533  1.00  0.00    -0.110 C  
BRANCH   3   4
HETATM    4  C   UNL     1     -10.441  14.848  66.147  1.00  0.00    -0.313 C  
BRANCH   4   5
HETATM    5  C   UNL     1     -11.304  14.119  65.117  1.00  0.00    -0.336 C  
BRANCH   5   6
HETATM    6  C   UNL     1     -11.819  12.756  65.612  1.00  0.00    -0.425 C  
HETATM    7  O   UNL     1     -13.139  12.597  65.098  1.00  0.00    -0.726 OA 
HETATM    8  H   UNL     1     -13.457  11.756  65.403  1.00  0.00     0.000 HD 
BRANCH   6   9
HETATM    9  C   UNL     1     -11.813  12.632  67.122  1.00  0.00    -0.399 C  
HETATM   10  C   UNL     1     -11.005  11.851  67.861  1.00  0.00    -0.270 C  
BRANCH  10  11
HETATM   11  C   UNL     1     -11.154  11.613  69.350  1.00  0.00    -0.268 C  
HETATM   12  C   UNL     1     -12.370  12.404  69.881  1.00  0.00    -0.048 C  
HETATM   13  O   UNL     1     -12.067  13.779  70.073  1.00  0.00    -0.313 OA 
HETATM   14  C   UNL     1     -12.741  11.749  71.193  1.00  0.00    -0.405 C  
HETATM   15  H   UNL     1     -12.816  14.265  70.400  1.00  0.00     0.000 HD 
HETATM   16  C   UNL     1     -12.405  10.318  70.911  1.00  0.00    -0.373 C  
HETATM   17  O   UNL     1     -12.873   9.397  71.570  1.00  0.00    -0.324 OA 
HETATM   18  C   UNL     1     -11.419  10.146  69.764  1.00  0.00    -0.288 C  
BRANCH  18  19
HETATM   19  C   UNL     1     -10.127   9.461  70.233  1.00  0.00    -0.288 C  
BRANCH  19  20
HETATM   20  C   UNL     1      -8.863  10.088  69.702  1.00  0.00    -0.217 C  
HETATM   21  C   UNL     1      -7.637   9.545  69.641  1.00  0.00    -0.103 C  
BRANCH  21  22
HETATM   22  C   UNL     1      -7.254   8.179  70.121  1.00  0.00    -0.056 C  
BRANCH  22  23
HETATM   23  C   UNL     1      -6.230   7.502  69.211  1.00  0.00    -0.035 C  
BRANCH  23  24
HETATM   24  C   UNL     1      -6.953   6.806  68.057  1.00  0.00    -0.080 C  
HETATM   25  C   UNL     1      -6.704   7.472  66.728  1.00  0.00    -0.062 C  
HETATM   26  O   UNL     1      -6.011   8.459  66.548  1.00  0.00    -0.047 OA 
HETATM   27  O   UNL     1      -7.349   6.840  65.719  1.00  0.00    -0.071 OA 
ENDBRANCH  23  24
ENDBRANCH  22  23
ENDBRANCH  21  22
ENDBRANCH  19  20
ENDBRANCH  18  19
ENDBRANCH  10  11
ENDBRANCH   6   9
ENDBRANCH   5   6
ENDBRANCH   4   5
ENDBRANCH   3   4
ENDBRANCH   2   3
TORSDOF 11
ENDMDL
MODEL      321
REMARK 921   NORMALIZED FREE ENERGY PREDICTED BY IDOCK:   -3.10 KCAL/MOL
REMARK 922        TOTAL FREE ENERGY PREDICTED BY IDOCK:   -6.91 KCAL/MOL
REMARK 923 INTER-LIGAND FREE ENERGY PREDICTED BY IDOCK:   -4.83 KCAL/MOL
REMARK 924 INTRA-LIGAND FREE ENERGY PREDICTED BY IDOCK:   -2.09 KCAL/MOL
REMARK 927      BINDING AFFINITY PREDICTED BY RF-SCORE:    0.00 PKD
ROOT
HETATM    1  C   UNL     1      -8.627  10.679  63.875  1.00  0.00    -0.094 C  
HETATM    2  C   UNL     1      -7.273  10.007  63.733  1.00  0.00    -0.128 C  
ENDROOT
BRANCH   2   3
HETATM    3  C   UNL     1      -6.726   9.528  65.079  1.00  0.00    -0.089 C  
BRANCH   3   4
HETATM    4  C   UNL     1      -6.002  10.673  65.791  1.00  0.00    -0.137 C  
BRANCH   4   5
HETATM    5  C   UNL     1      -6.654  11.037  67.126  1.00  0.00    -0.089 C  
BRANCH   5   6
HETATM    6  C   UNL     1      -6.340  12.472  67.583  1.00  0.00    -0.140 C  
HETATM    7  O   UNL     1      -6.298  12.456  69.007  1.00  0.00    -0.078 OA 
HETATM    8  H   UNL     1      -6.104  13.342  69.290  1.00  0.00     0.000 HD 
BRANCH   6   9
HETATM    9  C   UNL     1      -7.350  13.487  67.088  1.00  0.00     0.117 C  
HETATM   10  C   UNL     1      -7.836  14.538  67.772  1.00  0.00    -0.171 C  
BRANCH  10  11
HETATM   11  C   UNL     1      -8.981  15.418  67.312  1.00  0.00    -0.213 C  
HETATM   12  C   UNL     1      -8.418  16.667  66.599  1.00  0.00    -0.259 C  
HETATM   13  O   UNL     1      -7.961  17.646  67.522  1.00  0.00    -0.199 OA 
HETATM   14  C   UNL     1      -9.558  17.209  65.764  1.00  0.00    -0.000 C  
HETATM   15  H   UNL     1      -7.615  18.414  67.083  1.00  0.00     0.000 HD 
HETATM   16  C   UNL     1     -10.256  15.946  65.369  1.00  0.00    -0.323 C  
HETATM   17  O   UNL     1     -11.020  15.896  64.412  1.00  0.00    -0.489 OA 
HETATM   18  C   UNL     1      -9.943  14.772  66.286  1.00  0.00    -0.308 C  
BRANCH  18  19
HETATM   19  C   UNL     1     -11.211  14.244  66.974  1.00  0.00    -0.332 C  
BRANCH  19  20
HETATM   20  C   UNL     1     -11.538  12.807  66.656  1.00  0.00    -0.430 C  
HETATM   21  C   UNL     1     -11.192  11.711  67.349  1.00  0.00    -0.358 C  
BRANCH  21  22
HETATM   22  C   UNL     1     -10.370  11.683  68.601  1.00  0.00    -0.229 C  
BRANCH  22  23
HETATM   23  C   UNL     1      -9.850  10.285  68.931  1.00  0.00    -0.200 C  
BRANCH  23  24
HETATM   24  C   UNL     1     -10.882   9.241  68.501  1.00  0.00    -0.119 C  
HETATM   25  C   UNL     1     -10.338   8.271  67.484  1.00  0.00    -0.265 C  
HETATM   26  O   UNL     1      -9.208   8.282  67.026  1.00  0.00    -0.141 OA 
HETATM   27  O   UNL     1     -11.264   7.353  67.117  1.00  0.00    -0.152 OA 
ENDBRANCH  23  24
ENDBRANCH  22  23
ENDBRANCH  21  22
ENDBRANCH  19  20
ENDBRANCH  18  19
ENDBRANCH  10  11
ENDBRANCH   6   9
ENDBRANCH   5   6
ENDBRANCH   4   5
ENDBRANCH   3   4
ENDBRANCH   2   3
TORSDOF 11
ENDMDL
MODEL      322
REMARK 921   NORMALIZED FREE ENERGY PREDICTED BY IDOCK:   -3.07 KCAL/MOL
REMARK 922        TOTAL FREE ENERGY PREDICTED BY IDOCK:   -6.86 KCAL/MOL
REMARK 923 INTER-LIGAND FREE ENERGY PREDICTED BY IDOCK:   -5.63 KCAL/MOL
REMARK 924 INTRA-LIGAND FREE ENERGY PREDICTED BY IDOCK:   -1.23 KCAL/MOL
REMARK 927      BINDING AFFINITY PREDICTED BY RF-SCORE:    0.00 PKD
ROOT
HETATM    1  C   UNL     1      -6.747   7.778  73.831  1.00  0.00    -0.108 C  
HETATM    2  C   UNL     1      -7.938   8.068  72.936  1.00  0.00    -0.202 C  
ENDROOT
BRANCH   2   3
HETATM    3  C   UNL     1      -9.267   7.771  73.632  1.00  0.00    -0.344 C  
BRANCH   3   4
HETATM    4  C   UNL     1     -10.356   7.496  72.594  1.00  0.00    -0.311 C  
BRANCH   4   5
HETATM    5  C   UNL     1     -11.058   8.773  72.129  1.00  0.00    -0.406 C  
BRANCH   5   6
HETATM    6  C   UNL     1     -11.506   8.719  70.658  1.00  0.00    -0.231 C  
HETATM    7  O   UNL     1     -12.269   7.526  70.499  1.00  0.00    -0.518 OA 
HETATM    8  H   UNL     1     -12.546   7.493  69.591  1.00  0.00     0.000 HD 
BRANCH   6   9
HETATM    9  C   UNL     1     -10.346   8.749  69.683  1.00  0.00    -0.213 C  
HETATM   10  C   UNL     1     -10.400   8.500  68.363  1.00  0.00    -0.241 C  
BRANCH  10  11
HETATM   11  C   UNL     1      -9.192   8.356  67.458  1.00  0.00    -0.158 C  
HETATM   12  C   UNL     1      -9.076   6.891  66.982  1.00  0.00    -0.136 C  
HETATM   13  O   UNL     1      -8.502   6.053  67.975  1.00  0.00    -0.115 OA 
HETATM   14  C   UNL     1      -8.203   6.932  65.747  1.00  0.00    -0.132 C  
HETATM   15  H   UNL     1      -8.431   5.152  67.682  1.00  0.00     0.000 HD 
HETATM   16  C   UNL     1      -8.599   8.247  65.152  1.00  0.00    -0.105 C  
HETATM   17  O   UNL     1      -8.397   8.516  63.974  1.00  0.00    -0.161 OA 
HETATM   18  C   UNL     1      -9.234   9.196  66.159  1.00  0.00    -0.259 C  
BRANCH  18  19
HETATM   19  C   UNL     1      -8.412  10.486  66.309  1.00  0.00    -0.150 C  
BRANCH  19  20
HETATM   20  C   UNL     1      -8.224  10.941  67.734  1.00  0.00    -0.116 C  
HETATM   21  C   UNL     1      -8.734  12.033  68.324  1.00  0.00    -0.178 C  
BRANCH  21  22
HETATM   22  C   UNL     1      -9.598  13.066  67.669  1.00  0.00    -0.206 C  
BRANCH  22  23
HETATM   23  C   UNL     1     -10.951  13.226  68.361  1.00  0.00    -0.289 C  
BRANCH  23  24
HETATM   24  C   UNL     1     -11.564  14.574  67.980  1.00  0.00    -0.364 C  
HETATM   25  C   UNL     1     -10.971  15.723  68.755  1.00  0.00    -0.291 C  
HETATM   26  O   UNL     1     -10.099  15.632  69.602  1.00  0.00    -0.262 OA 
HETATM   27  O   UNL     1     -11.524  16.908  68.402  1.00  0.00    -0.136 OA 
ENDBRANCH  23  24
ENDBRANCH  22  23
ENDBRANCH  21  22
ENDBRANCH  19  20
ENDBRANCH  18  19
ENDBRANCH  10  11
ENDBRANCH   6   9
ENDBRANCH   5   6
ENDBRANCH   4   5
ENDBRANCH   3   4
ENDBRANCH   2   3
TORSDOF 11
ENDMDL
MODEL      323
REMARK 921   NORMALIZED FREE ENERGY PREDICTED BY IDOCK:   -3.06 KCAL/MOL
REMARK 922        TOTAL FREE ENERGY PREDICTED BY IDOCK:   -6.84 KCAL/MOL
REMARK 923 INTER-LIGAND FREE ENERGY PREDICTED BY IDOCK:   -5.58 KCAL/MOL
REMARK 924 INTRA-LIGAND FREE ENERGY PREDICTED BY IDOCK:   -1.26 KCAL/MOL
REMARK 927      BINDING AFFINITY PREDICTED BY RF-SCORE:    0.00 PKD
ROOT
HETATM    1  C   UNL     1     -10.718   3.239  63.518  1.00  0.00    -0.252 C  
HETATM    2  C   UNL     1      -9.442   2.554  63.971  1.00  0.00    -0.127 C  
ENDROOT
BRANCH   2   3
HETATM    3  C   UNL     1      -8.349   3.560  64.338  1.00  0.00    -0.093 C  
BRANCH   3   4
HETATM    4  C   UNL     1      -7.766   3.226  65.712  1.00  0.00    -0.081 C  
BRANCH   4   5
HETATM    5  C   UNL     1      -8.121   4.273  66.769  1.00  0.00    -0.101 C  
BRANCH   5   6
HETATM    6  C   UNL     1      -7.637   5.689  66.408  1.00  0.00    -0.091 C  
HETATM    7  O   UNL     1      -6.285   5.791  66.847  1.00  0.00    -0.031 OA 
HETATM    8  H   UNL     1      -5.986   6.664  66.624  1.00  0.00     0.000 HD 
BRANCH   6   9
HETATM    9  C   UNL     1      -8.485   6.782  67.025  1.00  0.00    -0.114 C  
HETATM   10  C   UNL     1      -9.632   6.620  67.709  1.00  0.00    -0.129 C  
BRANCH  10  11
HETATM   11  C   UNL     1     -10.547   7.746  68.147  1.00  0.00    -0.182 C  
HETATM   12  C   UNL     1     -10.774   7.663  69.672  1.00  0.00    -0.228 C  
HETATM   13  O   UNL     1     -11.734   6.673  70.015  1.00  0.00    -0.541 OA 
HETATM   14  C   UNL     1     -11.251   9.038  70.089  1.00  0.00    -0.191 C  
HETATM   15  H   UNL     1     -11.873   6.623  70.953  1.00  0.00     0.000 HD 
HETATM   16  C   UNL     1     -10.488   9.910  69.142  1.00  0.00    -0.217 C  
HETATM   17  O   UNL     1     -10.307  11.103  69.358  1.00  0.00    -0.173 OA 
HETATM   18  C   UNL     1     -10.006   9.174  67.900  1.00  0.00    -0.228 C  
BRANCH  18  19
HETATM   19  C   UNL     1     -10.606   9.779  66.621  1.00  0.00    -0.178 C  
BRANCH  19  20
HETATM   20  C   UNL     1      -9.851  10.968  66.084  1.00  0.00    -0.268 C  
HETATM   21  C   UNL     1     -10.348  12.157  65.709  1.00  0.00    -0.289 C  
BRANCH  21  22
HETATM   22  C   UNL     1     -11.792  12.553  65.724  1.00  0.00    -0.494 C  
BRANCH  22  23
HETATM   23  C   UNL     1     -12.007  13.974  66.244  1.00  0.00    -0.454 C  
BRANCH  23  24
HETATM   24  C   UNL     1     -10.790  14.409  67.061  1.00  0.00    -0.297 C  
HETATM   25  C   UNL     1     -11.075  14.468  68.540  1.00  0.00    -0.256 C  
HETATM   26  O   UNL     1     -12.142  14.209  69.068  1.00  0.00    -0.343 OA 
HETATM   27  O   UNL     1      -9.986  14.853  69.248  1.00  0.00    -0.217 OA 
ENDBRANCH  23  24
ENDBRANCH  22  23
ENDBRANCH  21  22
ENDBRANCH  19  20
ENDBRANCH  18  19
ENDBRANCH  10  11
ENDBRANCH   6   9
ENDBRANCH   5   6
ENDBRANCH   4   5
ENDBRANCH   3   4
ENDBRANCH   2   3
TORSDOF 11
ENDMDL
MODEL      324
REMARK 921   NORMALIZED FREE ENERGY PREDICTED BY IDOCK:   -3.01 KCAL/MOL
REMARK 922        TOTAL FREE ENERGY PREDICTED BY IDOCK:   -6.76 KCAL/MOL
REMARK 923 INTER-LIGAND FREE ENERGY PREDICTED BY IDOCK:   -5.36 KCAL/MOL
REMARK 924 INTRA-LIGAND FREE ENERGY PREDICTED BY IDOCK:   -1.40 KCAL/MOL
REMARK 927      BINDING AFFINITY PREDICTED BY RF-SCORE:    0.00 PKD
ROOT
HETATM    1  C   UNL     1     -11.484   8.129  70.271  1.00  0.00    -0.066 C  
HETATM    2  C   UNL     1     -10.439   7.032  70.331  1.00  0.00    -0.225 C  
ENDROOT
BRANCH   2   3
HETATM    3  C   UNL     1     -10.692   5.938  69.292  1.00  0.00    -0.401 C  
BRANCH   3   4
HETATM    4  C   UNL     1     -10.812   6.554  67.897  1.00  0.00    -0.383 C  
BRANCH   4   5
HETATM    5  C   UNL     1      -9.461   6.677  67.192  1.00  0.00    -0.158 C  
BRANCH   5   6
HETATM    6  C   UNL     1      -9.434   7.778  66.118  1.00  0.00    -0.065 C  
HETATM    7  O   UNL     1      -8.320   7.507  65.271  1.00  0.00    -0.137 OA 
HETATM    8  H   UNL     1      -8.304   8.187  64.608  1.00  0.00     0.000 HD 
BRANCH   6   9
HETATM    9  C   UNL     1      -9.338   9.173  66.700  1.00  0.00    -0.228 C  
HETATM   10  C   UNL     1     -10.308  10.105  66.720  1.00  0.00    -0.285 C  
BRANCH  10  11
HETATM   11  C   UNL     1     -10.116  11.548  67.141  1.00  0.00    -0.223 C  
HETATM   12  C   UNL     1      -9.412  11.596  68.515  1.00  0.00    -0.173 C  
HETATM   13  O   UNL     1     -10.314  11.344  69.584  1.00  0.00    -0.432 OA 
HETATM   14  C   UNL     1      -8.827  12.987  68.625  1.00  0.00     0.060 C  
HETATM   15  H   UNL     1      -9.880  11.374  70.429  1.00  0.00     0.000 HD 
HETATM   16  C   UNL     1      -8.464  13.265  67.200  1.00  0.00    -0.176 C  
HETATM   17  O   UNL     1      -7.650  14.127  66.891  1.00  0.00     0.099 OA 
HETATM   18  C   UNL     1      -9.225  12.399  66.205  1.00  0.00    -0.150 C  
BRANCH  18  19
HETATM   19  C   UNL     1     -10.078  13.253  65.255  1.00  0.00    -0.254 C  
BRANCH  19  20
HETATM   20  C   UNL     1     -11.363  13.760  65.860  1.00  0.00    -0.311 C  
HETATM   21  C   UNL     1     -11.550  14.879  66.577  1.00  0.00    -0.254 C  
BRANCH  21  22
HETATM   22  C   UNL     1     -10.493  15.870  66.956  1.00  0.00    -0.306 C  
BRANCH  22  23
HETATM   23  C   UNL     1     -10.721  17.243  66.325  1.00  0.00    -0.077 C  
BRANCH  23  24
HETATM   24  C   UNL     1     -10.179  18.330  67.256  1.00  0.00    -0.387 C  
HETATM   25  C   UNL     1      -8.687  18.503  67.139  1.00  0.00    -0.270 C  
HETATM   26  O   UNL     1      -7.954  17.867  66.401  1.00  0.00    -0.251 OA 
HETATM   27  O   UNL     1      -8.225  19.470  67.968  1.00  0.00    -0.301 OA 
ENDBRANCH  23  24
ENDBRANCH  22  23
ENDBRANCH  21  22
ENDBRANCH  19  20
ENDBRANCH  18  19
ENDBRANCH  10  11
ENDBRANCH   6   9
ENDBRANCH   5   6
ENDBRANCH   4   5
ENDBRANCH   3   4
ENDBRANCH   2   3
TORSDOF 11
ENDMDL
MODEL      325
REMARK 921   NORMALIZED FREE ENERGY PREDICTED BY IDOCK:   -2.96 KCAL/MOL
REMARK 922        TOTAL FREE ENERGY PREDICTED BY IDOCK:   -6.67 KCAL/MOL
REMARK 923 INTER-LIGAND FREE ENERGY PREDICTED BY IDOCK:   -6.08 KCAL/MOL
REMARK 924 INTRA-LIGAND FREE ENERGY PREDICTED BY IDOCK:   -0.59 KCAL/MOL
REMARK 927      BINDING AFFINITY PREDICTED BY RF-SCORE:    0.00 PKD
ROOT
HETATM    1  C   UNL     1     -11.085   6.077  70.283  1.00  0.00    -0.415 C  
HETATM    2  C   UNL     1     -10.024   5.280  69.548  1.00  0.00    -0.297 C  
ENDROOT
BRANCH   2   3
HETATM    3  C   UNL     1     -10.350   5.120  68.062  1.00  0.00    -0.142 C  
BRANCH   3   4
HETATM    4  C   UNL     1     -10.418   6.491  67.386  1.00  0.00    -0.314 C  
BRANCH   4   5
HETATM    5  C   UNL     1      -9.166   6.800  66.563  1.00  0.00    -0.190 C  
BRANCH   5   6
HETATM    6  C   UNL     1      -9.257   8.132  65.798  1.00  0.00    -0.034 C  
HETATM    7  O   UNL     1      -8.415   8.014  64.655  1.00  0.00    -0.331 OA 
HETATM    8  H   UNL     1      -8.470   8.836  64.182  1.00  0.00     0.000 HD 
BRANCH   6   9
HETATM    9  C   UNL     1      -8.856   9.328  66.638  1.00  0.00    -0.146 C  
HETATM   10  C   UNL     1      -9.672  10.283  67.118  1.00  0.00    -0.210 C  
BRANCH  10  11
HETATM   11  C   UNL     1      -9.211  11.559  67.793  1.00  0.00    -0.165 C  
HETATM   12  C   UNL     1      -8.017  11.249  68.723  1.00  0.00    -0.137 C  
HETATM   13  O   UNL     1      -8.437  10.681  69.956  1.00  0.00    -0.296 OA 
HETATM   14  C   UNL     1      -7.324  12.575  68.952  1.00  0.00    -0.022 C  
HETATM   15  H   UNL     1      -7.703  10.491  70.528  1.00  0.00     0.000 HD 
HETATM   16  C   UNL     1      -7.537  13.247  67.633  1.00  0.00    -0.170 C  
HETATM   17  O   UNL     1      -6.844  14.189  67.263  1.00  0.00    -0.226 OA 
HETATM   18  C   UNL     1      -8.699  12.665  66.840  1.00  0.00    -0.175 C  
BRANCH  18  19
HETATM   19  C   UNL     1      -9.786  13.720  66.581  1.00  0.00    -0.293 C  
BRANCH  19  20
HETATM   20  C   UNL     1      -9.288  15.142  66.603  1.00  0.00    -0.291 C  
HETATM   21  C   UNL     1      -9.695  16.144  67.399  1.00  0.00    -0.233 C  
BRANCH  21  22
HETATM   22  C   UNL     1     -10.769  16.063  68.439  1.00  0.00    -0.289 C  
BRANCH  22  23
HETATM   23  C   UNL     1     -10.248  15.562  69.785  1.00  0.00    -0.301 C  
BRANCH  23  24
HETATM   24  C   UNL     1     -11.344  15.701  70.842  1.00  0.00    -0.417 C  
HETATM   25  C   UNL     1     -12.321  14.553  70.821  1.00  0.00    -0.340 C  
HETATM   26  O   UNL     1     -12.279  13.600  70.062  1.00  0.00    -0.330 OA 
HETATM   27  O   UNL     1     -13.283  14.692  71.765  1.00  0.00    -0.315 OA 
ENDBRANCH  23  24
ENDBRANCH  22  23
ENDBRANCH  21  22
ENDBRANCH  19  20
ENDBRANCH  18  19
ENDBRANCH  10  11
ENDBRANCH   6   9
ENDBRANCH   5   6
ENDBRANCH   4   5
ENDBRANCH   3   4
ENDBRANCH   2   3
TORSDOF 11
ENDMDL
MODEL      326
REMARK 921   NORMALIZED FREE ENERGY PREDICTED BY IDOCK:   -2.95 KCAL/MOL
REMARK 922        TOTAL FREE ENERGY PREDICTED BY IDOCK:   -6.67 KCAL/MOL
REMARK 923 INTER-LIGAND FREE ENERGY PREDICTED BY IDOCK:   -5.31 KCAL/MOL
REMARK 924 INTRA-LIGAND FREE ENERGY PREDICTED BY IDOCK:   -1.36 KCAL/MOL
REMARK 927      BINDING AFFINITY PREDICTED BY RF-SCORE:    0.00 PKD
ROOT
HETATM    1  C   UNL     1      -8.392   2.817  68.640  1.00  0.00    -0.086 C  
HETATM    2  C   UNL     1      -9.562   3.606  68.083  1.00  0.00    -0.166 C  
ENDROOT
BRANCH   2   3
HETATM    3  C   UNL     1      -9.195   4.347  66.796  1.00  0.00    -0.147 C  
BRANCH   3   4
HETATM    4  C   UNL     1      -7.676   4.485  66.682  1.00  0.00    -0.094 C  
BRANCH   4   5
HETATM    5  C   UNL     1      -7.260   5.629  65.757  1.00  0.00    -0.072 C  
BRANCH   5   6
HETATM    6  C   UNL     1      -8.434   6.535  65.345  1.00  0.00    -0.115 C  
HETATM    7  O   UNL     1      -8.367   6.688  63.930  1.00  0.00    -0.327 OA 
HETATM    8  H   UNL     1      -9.092   7.246  63.676  1.00  0.00     0.000 HD 
BRANCH   6   9
HETATM    9  C   UNL     1      -8.411   7.885  66.032  1.00  0.00    -0.128 C  
HETATM   10  C   UNL     1      -7.447   8.359  66.841  1.00  0.00    -0.087 C  
BRANCH  10  11
HETATM   11  C   UNL     1      -7.547   9.633  67.656  1.00  0.00    -0.091 C  
HETATM   12  C   UNL     1      -6.154  10.292  67.758  1.00  0.00    -0.056 C  
HETATM   13  O   UNL     1      -5.338   9.662  68.737  1.00  0.00    -0.037 OA 
HETATM   14  C   UNL     1      -6.412  11.737  68.126  1.00  0.00    -0.051 C  
HETATM   15  H   UNL     1      -4.481  10.068  68.800  1.00  0.00     0.000 HD 
HETATM   16  C   UNL     1      -7.694  11.998  67.401  1.00  0.00    -0.162 C  
HETATM   17  O   UNL     1      -8.075  13.133  67.139  1.00  0.00    -0.168 OA 
HETATM   18  C   UNL     1      -8.465  10.729  67.063  1.00  0.00    -0.128 C  
BRANCH  18  19
HETATM   19  C   UNL     1      -9.846  10.716  67.735  1.00  0.00    -0.187 C  
BRANCH  19  20
HETATM   20  C   UNL     1     -10.971  11.189  66.851  1.00  0.00    -0.333 C  
HETATM   21  C   UNL     1     -11.621  12.362  66.902  1.00  0.00    -0.437 C  
BRANCH  21  22
HETATM   22  C   UNL     1     -11.375  13.464  67.886  1.00  0.00    -0.322 C  
BRANCH  22  23
HETATM   23  C   UNL     1     -10.942  14.767  67.215  1.00  0.00    -0.318 C  
BRANCH  23  24
HETATM   24  C   UNL     1     -11.364  14.750  65.745  1.00  0.00    -0.336 C  
HETATM   25  C   UNL     1     -10.986  16.014  65.017  1.00  0.00    -0.380 C  
HETATM   26  O   UNL     1     -10.410  16.970  65.508  1.00  0.00    -0.585 OA 
HETATM   27  O   UNL     1     -11.364  15.980  63.717  1.00  0.00    -0.497 OA 
ENDBRANCH  23  24
ENDBRANCH  22  23
ENDBRANCH  21  22
ENDBRANCH  19  20
ENDBRANCH  18  19
ENDBRANCH  10  11
ENDBRANCH   6   9
ENDBRANCH   5   6
ENDBRANCH   4   5
ENDBRANCH   3   4
ENDBRANCH   2   3
TORSDOF 11
ENDMDL
MODEL      327
REMARK 921   NORMALIZED FREE ENERGY PREDICTED BY IDOCK:   -2.92 KCAL/MOL
REMARK 922        TOTAL FREE ENERGY PREDICTED BY IDOCK:   -6.61 KCAL/MOL
REMARK 923 INTER-LIGAND FREE ENERGY PREDICTED BY IDOCK:   -5.33 KCAL/MOL
REMARK 924 INTRA-LIGAND FREE ENERGY PREDICTED BY IDOCK:   -1.28 KCAL/MOL
REMARK 927      BINDING AFFINITY PREDICTED BY RF-SCORE:    0.00 PKD
ROOT
HETATM    1  C   UNL     1     -12.288  14.856  71.980  1.00  0.00    -0.419 C  
HETATM    2  C   UNL     1     -12.842  15.068  70.584  1.00  0.00    -0.413 C  
ENDROOT
BRANCH   2   3
HETATM    3  C   UNL     1     -11.758  14.952  69.511  1.00  0.00    -0.353 C  
BRANCH   3   4
HETATM    4  C   UNL     1     -11.972  13.686  68.680  1.00  0.00    -0.395 C  
BRANCH   4   5
HETATM    5  C   UNL     1     -12.439  13.992  67.256  1.00  0.00    -0.026 C  
BRANCH   5   6
HETATM    6  C   UNL     1     -11.658  13.216  66.181  1.00  0.00    -0.355 C  
HETATM    7  O   UNL     1     -12.569  12.294  65.589  1.00  0.00    -0.504 OA 
HETATM    8  H   UNL     1     -12.087  11.815  64.925  1.00  0.00     0.000 HD 
BRANCH   6   9
HETATM    9  C   UNL     1     -10.446  12.494  66.733  1.00  0.00    -0.243 C  
HETATM   10  C   UNL     1     -10.009  11.271  66.382  1.00  0.00    -0.252 C  
BRANCH  10  11
HETATM   11  C   UNL     1      -8.907  10.508  67.088  1.00  0.00    -0.140 C  
HETATM   12  C   UNL     1      -7.533  11.070  66.660  1.00  0.00    -0.146 C  
HETATM   13  O   UNL     1      -7.133  10.583  65.387  1.00  0.00    -0.211 OA 
HETATM   14  C   UNL     1      -6.561  10.629  67.733  1.00  0.00    -0.060 C  
HETATM   15  H   UNL     1      -6.287  10.929  65.124  1.00  0.00     0.000 HD 
HETATM   16  C   UNL     1      -7.429  10.673  68.950  1.00  0.00    -0.108 C  
HETATM   17  O   UNL     1      -6.961  10.730  70.082  1.00  0.00    -0.173 OA 
HETATM   18  C   UNL     1      -8.916  10.608  68.632  1.00  0.00    -0.170 C  
BRANCH  18  19
HETATM   19  C   UNL     1      -9.571   9.369  69.262  1.00  0.00    -0.171 C  
BRANCH  19  20
HETATM   20  C   UNL     1      -9.075   8.056  68.711  1.00  0.00    -0.144 C  
HETATM   21  C   UNL     1      -9.133   6.846  69.289  1.00  0.00    -0.140 C  
BRANCH  21  22
HETATM   22  C   UNL     1      -9.694   6.543  70.644  1.00  0.00    -0.194 C  
BRANCH  22  23
HETATM   23  C   UNL     1     -10.695   5.389  70.622  1.00  0.00    -0.257 C  
BRANCH  23  24
HETATM   24  C   UNL     1     -10.177   4.245  71.495  1.00  0.00    -0.138 C  
HETATM   25  C   UNL     1     -10.975   4.073  72.762  1.00  0.00     0.012 C  
HETATM   26  O   UNL     1     -11.933   4.750  73.094  1.00  0.00    -0.204 OA 
HETATM   27  O   UNL     1     -10.504   3.055  73.520  1.00  0.00    -0.131 OA 
ENDBRANCH  23  24
ENDBRANCH  22  23
ENDBRANCH  21  22
ENDBRANCH  19  20
ENDBRANCH  18  19
ENDBRANCH  10  11
ENDBRANCH   6   9
ENDBRANCH   5   6
ENDBRANCH   4   5
ENDBRANCH   3   4
ENDBRANCH   2   3
TORSDOF 11
ENDMDL
MODEL      328
REMARK 921   NORMALIZED FREE ENERGY PREDICTED BY IDOCK:   -2.90 KCAL/MOL
REMARK 922        TOTAL FREE ENERGY PREDICTED BY IDOCK:   -6.58 KCAL/MOL
REMARK 923 INTER-LIGAND FREE ENERGY PREDICTED BY IDOCK:   -5.67 KCAL/MOL
REMARK 924 INTRA-LIGAND FREE ENERGY PREDICTED BY IDOCK:   -0.91 KCAL/MOL
REMARK 927      BINDING AFFINITY PREDICTED BY RF-SCORE:    0.00 PKD
ROOT
HETATM    1  C   UNL     1      -6.501   9.223  65.823  1.00  0.00    -0.068 C  
HETATM    2  C   UNL     1      -6.419   8.009  66.731  1.00  0.00    -0.056 C  
ENDROOT
BRANCH   2   3
HETATM    3  C   UNL     1      -7.752   7.718  67.423  1.00  0.00    -0.113 C  
BRANCH   3   4
HETATM    4  C   UNL     1      -7.698   8.171  68.883  1.00  0.00    -0.103 C  
BRANCH   4   5
HETATM    5  C   UNL     1      -8.040   9.653  69.049  1.00  0.00    -0.103 C  
BRANCH   5   6
HETATM    6  C   UNL     1      -9.540   9.952  68.882  1.00  0.00    -0.172 C  
HETATM    7  O   UNL     1     -10.183   8.714  68.593  1.00  0.00    -0.187 OA 
HETATM    8  H   UNL     1     -11.109   8.898  68.490  1.00  0.00     0.000 HD 
BRANCH   6   9
HETATM    9  C   UNL     1      -9.825  10.970  67.797  1.00  0.00    -0.190 C  
HETATM   10  C   UNL     1      -8.942  11.475  66.917  1.00  0.00    -0.179 C  
BRANCH  10  11
HETATM   11  C   UNL     1      -9.221  12.627  65.972  1.00  0.00     0.011 C  
HETATM   12  C   UNL     1     -10.406  12.264  65.051  1.00  0.00    -0.291 C  
HETATM   13  O   UNL     1     -10.011  11.411  63.986  1.00  0.00    -0.249 OA 
HETATM   14  C   UNL     1     -10.926  13.581  64.518  1.00  0.00    -0.405 C  
HETATM   15  H   UNL     1     -10.740  11.188  63.419  1.00  0.00     0.000 HD 
HETATM   16  C   UNL     1     -10.686  14.484  65.685  1.00  0.00    -0.327 C  
HETATM   17  O   UNL     1     -11.274  15.552  65.815  1.00  0.00    -0.259 OA 
HETATM   18  C   UNL     1      -9.633  13.955  66.649  1.00  0.00    -0.297 C  
BRANCH  18  19
HETATM   19  C   UNL     1      -8.438  14.915  66.758  1.00  0.00    -0.215 C  
BRANCH  19  20
HETATM   20  C   UNL     1      -7.991  15.194  68.170  1.00  0.00    -0.125 C  
HETATM   21  C   UNL     1      -8.759  15.450  69.241  1.00  0.00    -0.252 C  
BRANCH  21  22
HETATM   22  C   UNL     1     -10.254  15.538  69.253  1.00  0.00    -0.252 C  
BRANCH  22  23
HETATM   23  C   UNL     1     -10.864  15.024  70.556  1.00  0.00    -0.159 C  
BRANCH  23  24
HETATM   24  C   UNL     1     -12.239  15.660  70.764  1.00  0.00    -0.463 C  
HETATM   25  C   UNL     1     -13.187  14.762  71.517  1.00  0.00    -0.356 C  
HETATM   26  O   UNL     1     -12.928  13.645  71.930  1.00  0.00    -0.344 OA 
HETATM   27  O   UNL     1     -14.398  15.342  71.693  1.00  0.00    -0.510 OA 
ENDBRANCH  23  24
ENDBRANCH  22  23
ENDBRANCH  21  22
ENDBRANCH  19  20
ENDBRANCH  18  19
ENDBRANCH  10  11
ENDBRANCH   6   9
ENDBRANCH   5   6
ENDBRANCH   4   5
ENDBRANCH   3   4
ENDBRANCH   2   3
TORSDOF 11
ENDMDL
MODEL      329
REMARK 921   NORMALIZED FREE ENERGY PREDICTED BY IDOCK:   -2.89 KCAL/MOL
REMARK 922        TOTAL FREE ENERGY PREDICTED BY IDOCK:   -6.56 KCAL/MOL
REMARK 923 INTER-LIGAND FREE ENERGY PREDICTED BY IDOCK:   -5.24 KCAL/MOL
REMARK 924 INTRA-LIGAND FREE ENERGY PREDICTED BY IDOCK:   -1.32 KCAL/MOL
REMARK 927      BINDING AFFINITY PREDICTED BY RF-SCORE:    0.00 PKD
ROOT
HETATM    1  C   UNL     1     -10.994  15.575  66.691  1.00  0.00    -0.248 C  
HETATM    2  C   UNL     1      -9.971  16.581  67.184  1.00  0.00    -0.266 C  
ENDROOT
BRANCH   2   3
HETATM    3  C   UNL     1      -8.624  16.426  66.475  1.00  0.00    -0.329 C  
BRANCH   3   4
HETATM    4  C   UNL     1      -7.479  16.591  67.475  1.00  0.00    -0.170 C  
BRANCH   4   5
HETATM    5  C   UNL     1      -7.643  15.698  68.706  1.00  0.00    -0.162 C  
BRANCH   5   6
HETATM    6  C   UNL     1      -7.075  14.281  68.509  1.00  0.00    -0.105 C  
HETATM    7  O   UNL     1      -6.086  14.367  67.486  1.00  0.00    -0.327 OA 
HETATM    8  H   UNL     1      -5.735  13.493  67.365  1.00  0.00     0.000 HD 
BRANCH   6   9
HETATM    9  C   UNL     1      -8.135  13.261  68.147  1.00  0.00    -0.159 C  
HETATM   10  C   UNL     1      -8.523  12.911  66.908  1.00  0.00    -0.093 C  
BRANCH  10  11
HETATM   11  C   UNL     1      -9.713  12.028  66.589  1.00  0.00    -0.221 C  
HETATM   12  C   UNL     1      -9.561  11.451  65.165  1.00  0.00    -0.229 C  
HETATM   13  O   UNL     1      -9.922  12.395  64.166  1.00  0.00    -0.498 OA 
HETATM   14  C   UNL     1     -10.472  10.244  65.114  1.00  0.00    -0.069 C  
HETATM   15  H   UNL     1      -9.828  12.040  63.290  1.00  0.00     0.000 HD 
HETATM   16  C   UNL     1     -10.362   9.736  66.517  1.00  0.00    -0.192 C  
HETATM   17  O   UNL     1     -10.657   8.586  66.819  1.00  0.00    -0.283 OA 
HETATM   18  C   UNL     1      -9.886  10.793  67.504  1.00  0.00    -0.197 C  
BRANCH  18  19
HETATM   19  C   UNL     1     -10.936  11.056  68.595  1.00  0.00    -0.271 C  
BRANCH  19  20
HETATM   20  C   UNL     1     -10.752  10.234  69.845  1.00  0.00    -0.344 C  
HETATM   21  C   UNL     1      -9.623   9.669  70.300  1.00  0.00    -0.307 C  
BRANCH  21  22
HETATM   22  C   UNL     1      -8.283   9.718  69.634  1.00  0.00    -0.163 C  
BRANCH  22  23
HETATM   23  C   UNL     1      -7.133   9.829  70.634  1.00  0.00    -0.097 C  
BRANCH  23  24
HETATM   24  C   UNL     1      -6.982   8.507  71.388  1.00  0.00    -0.079 C  
HETATM   25  C   UNL     1      -6.201   8.655  72.669  1.00  0.00    -0.070 C  
HETATM   26  O   UNL     1      -5.723   9.693  73.092  1.00  0.00    -0.309 OA 
HETATM   27  O   UNL     1      -6.079   7.476  73.324  1.00  0.00    -0.058 OA 
ENDBRANCH  23  24
ENDBRANCH  22  23
ENDBRANCH  21  22
ENDBRANCH  19  20
ENDBRANCH  18  19
ENDBRANCH  10  11
ENDBRANCH   6   9
ENDBRANCH   5   6
ENDBRANCH   4   5
ENDBRANCH   3   4
ENDBRANCH   2   3
TORSDOF 11
ENDMDL
MODEL      330
REMARK 921   NORMALIZED FREE ENERGY PREDICTED BY IDOCK:   -2.89 KCAL/MOL
REMARK 922        TOTAL FREE ENERGY PREDICTED BY IDOCK:   -6.56 KCAL/MOL
REMARK 923 INTER-LIGAND FREE ENERGY PREDICTED BY IDOCK:   -4.65 KCAL/MOL
REMARK 924 INTRA-LIGAND FREE ENERGY PREDICTED BY IDOCK:   -1.91 KCAL/MOL
REMARK 927      BINDING AFFINITY PREDICTED BY RF-SCORE:    0.00 PKD
ROOT
HETATM    1  C   UNL     1      -6.454  14.401  69.968  1.00  0.00    -0.146 C  
HETATM    2  C   UNL     1      -6.594  13.679  68.640  1.00  0.00    -0.097 C  
ENDROOT
BRANCH   2   3
HETATM    3  C   UNL     1      -8.050  13.332  68.325  1.00  0.00    -0.156 C  
BRANCH   3   4
HETATM    4  C   UNL     1      -8.208  11.819  68.164  1.00  0.00    -0.153 C  
BRANCH   4   5
HETATM    5  C   UNL     1      -6.878  11.075  68.285  1.00  0.00    -0.067 C  
BRANCH   5   6
HETATM    6  C   UNL     1      -6.494  10.303  67.010  1.00  0.00    -0.073 C  
HETATM    7  O   UNL     1      -6.450  11.250  65.947  1.00  0.00    -0.364 OA 
HETATM    8  H   UNL     1      -6.213  10.773  65.160  1.00  0.00     0.000 HD 
BRANCH   6   9
HETATM    9  C   UNL     1      -7.456   9.177  66.687  1.00  0.00    -0.086 C  
HETATM   10  C   UNL     1      -7.187   7.860  66.702  1.00  0.00    -0.084 C  
BRANCH  10  11
HETATM   11  C   UNL     1      -8.118   6.778  66.193  1.00  0.00    -0.115 C  
HETATM   12  C   UNL     1      -7.928   6.609  64.669  1.00  0.00    -0.113 C  
HETATM   13  O   UNL     1      -8.605   7.618  63.934  1.00  0.00    -0.360 OA 
HETATM   14  C   UNL     1      -8.483   5.241  64.339  1.00  0.00    -0.126 C  
HETATM   15  H   UNL     1      -8.488   7.513  62.996  1.00  0.00     0.000 HD 
HETATM   16  C   UNL     1      -8.132   4.476  65.576  1.00  0.00    -0.109 C  
HETATM   17  O   UNL     1      -8.083   3.252  65.593  1.00  0.00    -0.088 OA 
HETATM   18  C   UNL     1      -7.881   5.368  66.784  1.00  0.00    -0.101 C  
BRANCH  18  19
HETATM   19  C   UNL     1      -8.875   5.070  67.917  1.00  0.00    -0.107 C  
BRANCH  19  20
HETATM   20  C   UNL     1     -10.303   5.436  67.604  1.00  0.00    -0.235 C  
HETATM   21  C   UNL     1     -11.109   6.265  68.285  1.00  0.00    -0.364 C  
BRANCH  21  22
HETATM   22  C   UNL     1     -10.759   6.999  69.543  1.00  0.00    -0.263 C  
BRANCH  22  23
HETATM   23  C   UNL     1      -9.905   8.239  69.281  1.00  0.00    -0.186 C  
BRANCH  23  24
HETATM   24  C   UNL     1     -10.780   9.490  69.372  1.00  0.00    -0.244 C  
HETATM   25  C   UNL     1     -11.104   9.871  70.794  1.00  0.00    -0.347 C  
HETATM   26  O   UNL     1     -10.733   9.275  71.790  1.00  0.00    -0.363 OA 
HETATM   27  O   UNL     1     -11.877  10.982  70.855  1.00  0.00    -0.306 OA 
ENDBRANCH  23  24
ENDBRANCH  22  23
ENDBRANCH  21  22
ENDBRANCH  19  20
ENDBRANCH  18  19
ENDBRANCH  10  11
ENDBRANCH   6   9
ENDBRANCH   5   6
ENDBRANCH   4   5
ENDBRANCH   3   4
ENDBRANCH   2   3
TORSDOF 11
ENDMDL
MODEL      331
REMARK 921   NORMALIZED FREE ENERGY PREDICTED BY IDOCK:   -2.89 KCAL/MOL
REMARK 922        TOTAL FREE ENERGY PREDICTED BY IDOCK:   -6.56 KCAL/MOL
REMARK 923 INTER-LIGAND FREE ENERGY PREDICTED BY IDOCK:   -5.53 KCAL/MOL
REMARK 924 INTRA-LIGAND FREE ENERGY PREDICTED BY IDOCK:   -1.03 KCAL/MOL
REMARK 927      BINDING AFFINITY PREDICTED BY RF-SCORE:    0.00 PKD
ROOT
HETATM    1  C   UNL     1     -10.814   5.869  68.218  1.00  0.00    -0.325 C  
HETATM    2  C   UNL     1     -10.408   5.323  69.574  1.00  0.00    -0.333 C  
ENDROOT
BRANCH   2   3
HETATM    3  C   UNL     1     -10.205   6.436  70.604  1.00  0.00    -0.229 C  
BRANCH   3   4
HETATM    4  C   UNL     1     -10.938   7.704  70.163  1.00  0.00    -0.255 C  
BRANCH   4   5
HETATM    5  C   UNL     1     -10.178   8.474  69.083  1.00  0.00    -0.218 C  
BRANCH   5   6
HETATM    6  C   UNL     1      -9.512   9.758  69.607  1.00  0.00    -0.219 C  
HETATM    7  O   UNL     1      -8.665   9.377  70.688  1.00  0.00    -0.223 OA 
HETATM    8  H   UNL     1      -8.254  10.170  71.012  1.00  0.00     0.000 HD 
BRANCH   6   9
HETATM    9  C   UNL     1     -10.512  10.806  70.052  1.00  0.00     0.047 C  
HETATM   10  C   UNL     1     -11.543  11.288  69.337  1.00  0.00    -0.390 C  
BRANCH  10  11
HETATM   11  C   UNL     1     -12.406  12.466  69.743  1.00  0.00    -0.077 C  
HETATM   12  C   UNL     1     -12.641  12.432  71.269  1.00  0.00    -0.230 C  
HETATM   13  O   UNL     1     -13.647  11.497  71.632  1.00  0.00    -0.091 OA 
HETATM   14  C   UNL     1     -13.053  13.837  71.650  1.00  0.00    -0.456 C  
HETATM   15  H   UNL     1     -13.792  11.477  72.571  1.00  0.00     0.000 HD 
HETATM   16  C   UNL     1     -12.247  14.649  70.685  1.00  0.00    -0.325 C  
HETATM   17  O   UNL     1     -12.010  15.837  70.873  1.00  0.00    -0.354 OA 
HETATM   18  C   UNL     1     -11.797  13.861  69.463  1.00  0.00    -0.383 C  
BRANCH  18  19
HETATM   19  C   UNL     1     -12.363  14.462  68.168  1.00  0.00    -0.001 C  
BRANCH  19  20
HETATM   20  C   UNL     1     -12.498  13.478  67.034  1.00  0.00    -0.106 C  
HETATM   21  C   UNL     1     -11.533  13.024  66.219  1.00  0.00    -0.379 C  
BRANCH  21  22
HETATM   22  C   UNL     1     -10.091  13.428  66.250  1.00  0.00    -0.299 C  
BRANCH  22  23
HETATM   23  C   UNL     1      -9.144  12.233  66.152  1.00  0.00    -0.076 C  
BRANCH  23  24
HETATM   24  C   UNL     1      -9.955  10.952  65.955  1.00  0.00    -0.294 C  
HETATM   25  C   UNL     1      -9.085   9.735  65.770  1.00  0.00    -0.177 C  
HETATM   26  O   UNL     1      -7.866   9.729  65.769  1.00  0.00    -0.104 OA 
HETATM   27  O   UNL     1      -9.820   8.610  65.599  1.00  0.00    -0.033 OA 
ENDBRANCH  23  24
ENDBRANCH  22  23
ENDBRANCH  21  22
ENDBRANCH  19  20
ENDBRANCH  18  19
ENDBRANCH  10  11
ENDBRANCH   6   9
ENDBRANCH   5   6
ENDBRANCH   4   5
ENDBRANCH   3   4
ENDBRANCH   2   3
TORSDOF 11
ENDMDL
MODEL      332
REMARK 921   NORMALIZED FREE ENERGY PREDICTED BY IDOCK:   -2.88 KCAL/MOL
REMARK 922        TOTAL FREE ENERGY PREDICTED BY IDOCK:   -6.54 KCAL/MOL
REMARK 923 INTER-LIGAND FREE ENERGY PREDICTED BY IDOCK:   -5.04 KCAL/MOL
REMARK 924 INTRA-LIGAND FREE ENERGY PREDICTED BY IDOCK:   -1.50 KCAL/MOL
REMARK 927      BINDING AFFINITY PREDICTED BY RF-SCORE:    0.00 PKD
ROOT
HETATM    1  C   UNL     1      -6.045   9.152  62.881  1.00  0.00    -0.090 C  
HETATM    2  C   UNL     1      -7.013   8.113  63.416  1.00  0.00    -0.085 C  
ENDROOT
BRANCH   2   3
HETATM    3  C   UNL     1      -6.998   6.831  62.581  1.00  0.00    -0.048 C  
BRANCH   3   4
HETATM    4  C   UNL     1      -6.684   5.626  63.470  1.00  0.00    -0.036 C  
BRANCH   4   5
HETATM    5  C   UNL     1      -6.322   6.032  64.899  1.00  0.00    -0.037 C  
BRANCH   5   6
HETATM    6  C   UNL     1      -7.316   5.507  65.950  1.00  0.00    -0.077 C  
HETATM    7  O   UNL     1      -8.356   4.837  65.243  1.00  0.00    -0.118 OA 
HETATM    8  H   UNL     1      -8.969   4.514  65.891  1.00  0.00     0.000 HD 
BRANCH   6   9
HETATM    9  C   UNL     1      -7.885   6.604  66.828  1.00  0.00    -0.107 C  
HETATM   10  C   UNL     1      -9.143   7.079  66.808  1.00  0.00    -0.162 C  
BRANCH  10  11
HETATM   11  C   UNL     1      -9.621   8.300  67.567  1.00  0.00    -0.194 C  
HETATM   12  C   UNL     1      -9.563   8.020  69.085  1.00  0.00    -0.156 C  
HETATM   13  O   UNL     1     -10.668   7.242  69.525  1.00  0.00    -0.233 OA 
HETATM   14  C   UNL     1      -9.565   9.378  69.751  1.00  0.00    -0.216 C  
HETATM   15  H   UNL     1     -10.632   7.070  70.459  1.00  0.00     0.000 HD 
HETATM   16  C   UNL     1      -8.795  10.191  68.759  1.00  0.00    -0.146 C  
HETATM   17  O   UNL     1      -8.263  11.253  69.060  1.00  0.00    -0.118 OA 
HETATM   18  C   UNL     1      -8.776   9.579  67.365  1.00  0.00    -0.128 C  
BRANCH  18  19
HETATM   19  C   UNL     1      -9.427  10.514  66.333  1.00  0.00    -0.208 C  
BRANCH  19  20
HETATM   20  C   UNL     1     -10.802  10.999  66.715  1.00  0.00    -0.307 C  
HETATM   21  C   UNL     1     -11.271  12.256  66.681  1.00  0.00    -0.367 C  
BRANCH  21  22
HETATM   22  C   UNL     1     -10.500  13.473  66.272  1.00  0.00    -0.290 C  
BRANCH  22  23
HETATM   23  C   UNL     1     -11.405  14.620  65.825  1.00  0.00    -0.340 C  
BRANCH  23  24
HETATM   24  C   UNL     1     -10.982  15.910  66.529  1.00  0.00    -0.121 C  
HETATM   25  C   UNL     1     -10.787  17.058  65.571  1.00  0.00    -0.069 C  
HETATM   26  O   UNL     1     -10.937  17.006  64.362  1.00  0.00    -0.993 OA 
HETATM   27  O   UNL     1     -10.416  18.192  66.212  1.00  0.00    -0.392 OA 
ENDBRANCH  23  24
ENDBRANCH  22  23
ENDBRANCH  21  22
ENDBRANCH  19  20
ENDBRANCH  18  19
ENDBRANCH  10  11
ENDBRANCH   6   9
ENDBRANCH   5   6
ENDBRANCH   4   5
ENDBRANCH   3   4
ENDBRANCH   2   3
TORSDOF 11
ENDMDL
MODEL      333
REMARK 921   NORMALIZED FREE ENERGY PREDICTED BY IDOCK:   -2.84 KCAL/MOL
REMARK 922        TOTAL FREE ENERGY PREDICTED BY IDOCK:   -6.48 KCAL/MOL
REMARK 923 INTER-LIGAND FREE ENERGY PREDICTED BY IDOCK:   -4.79 KCAL/MOL
REMARK 924 INTRA-LIGAND FREE ENERGY PREDICTED BY IDOCK:   -1.69 KCAL/MOL
REMARK 927      BINDING AFFINITY PREDICTED BY RF-SCORE:    0.00 PKD
ROOT
HETATM    1  C   UNL     1      -9.307   3.051  68.427  1.00  0.00    -0.248 C  
HETATM    2  C   UNL     1      -9.823   4.146  67.510  1.00  0.00    -0.139 C  
ENDROOT
BRANCH   2   3
HETATM    3  C   UNL     1      -8.690   5.009  66.951  1.00  0.00    -0.107 C  
BRANCH   3   4
HETATM    4  C   UNL     1      -7.566   5.134  67.980  1.00  0.00    -0.083 C  
BRANCH   4   5
HETATM    5  C   UNL     1      -6.488   6.131  67.552  1.00  0.00    -0.046 C  
BRANCH   5   6
HETATM    6  C   UNL     1      -6.844   6.894  66.263  1.00  0.00    -0.064 C  
HETATM    7  O   UNL     1      -5.663   6.944  65.468  1.00  0.00    -0.029 OA 
HETATM    8  H   UNL     1      -5.883   7.414  64.673  1.00  0.00     0.000 HD 
BRANCH   6   9
HETATM    9  C   UNL     1      -7.374   8.288  66.526  1.00  0.00    -0.081 C  
HETATM   10  C   UNL     1      -7.538   8.873  67.726  1.00  0.00    -0.093 C  
BRANCH  10  11
HETATM   11  C   UNL     1      -8.244  10.194  67.958  1.00  0.00    -0.113 C  
HETATM   12  C   UNL     1      -7.391  11.078  68.894  1.00  0.00    -0.111 C  
HETATM   13  O   UNL     1      -7.530  10.699  70.256  1.00  0.00    -0.447 OA 
HETATM   14  C   UNL     1      -7.883  12.493  68.679  1.00  0.00    -0.048 C  
HETATM   15  H   UNL     1      -7.005  11.243  70.832  1.00  0.00     0.000 HD 
HETATM   16  C   UNL     1      -8.235  12.461  67.225  1.00  0.00    -0.184 C  
HETATM   17  O   UNL     1      -8.341  13.484  66.558  1.00  0.00     0.147 OA 
HETATM   18  C   UNL     1      -8.472  11.055  66.693  1.00  0.00    -0.153 C  
BRANCH  18  19
HETATM   19  C   UNL     1      -9.905  10.889  66.162  1.00  0.00    -0.268 C  
BRANCH  19  20
HETATM   20  C   UNL     1     -10.871  11.941  66.644  1.00  0.00    -0.315 C  
HETATM   21  C   UNL     1     -11.689  11.883  67.706  1.00  0.00    -0.362 C  
BRANCH  21  22
HETATM   22  C   UNL     1     -11.835  10.724  68.644  1.00  0.00    -0.208 C  
BRANCH  22  23
HETATM   23  C   UNL     1     -11.377  11.054  70.063  1.00  0.00    -0.358 C  
BRANCH  23  24
HETATM   24  C   UNL     1     -10.748   9.814  70.699  1.00  0.00    -0.394 C  
HETATM   25  C   UNL     1     -11.609   9.215  71.782  1.00  0.00    -0.387 C  
HETATM   26  O   UNL     1     -12.692   9.641  72.144  1.00  0.00    -0.378 OA 
HETATM   27  O   UNL     1     -11.037   8.117  72.332  1.00  0.00    -0.315 OA 
ENDBRANCH  23  24
ENDBRANCH  22  23
ENDBRANCH  21  22
ENDBRANCH  19  20
ENDBRANCH  18  19
ENDBRANCH  10  11
ENDBRANCH   6   9
ENDBRANCH   5   6
ENDBRANCH   4   5
ENDBRANCH   3   4
ENDBRANCH   2   3
TORSDOF 11
ENDMDL
MODEL      334
REMARK 921   NORMALIZED FREE ENERGY PREDICTED BY IDOCK:   -2.83 KCAL/MOL
REMARK 922        TOTAL FREE ENERGY PREDICTED BY IDOCK:   -6.47 KCAL/MOL
REMARK 923 INTER-LIGAND FREE ENERGY PREDICTED BY IDOCK:   -4.61 KCAL/MOL
REMARK 924 INTRA-LIGAND FREE ENERGY PREDICTED BY IDOCK:   -1.87 KCAL/MOL
REMARK 927      BINDING AFFINITY PREDICTED BY RF-SCORE:    0.00 PKD
ROOT
HETATM    1  C   UNL     1      -8.354   2.796  68.665  1.00  0.00    -0.086 C  
HETATM    2  C   UNL     1      -9.542   3.529  68.071  1.00  0.00    -0.166 C  
ENDROOT
BRANCH   2   3
HETATM    3  C   UNL     1      -9.163   4.319  66.817  1.00  0.00    -0.156 C  
BRANCH   3   4
HETATM    4  C   UNL     1      -7.665   4.629  66.823  1.00  0.00    -0.095 C  
BRANCH   4   5
HETATM    5  C   UNL     1      -7.315   5.844  65.962  1.00  0.00    -0.077 C  
BRANCH   5   6
HETATM    6  C   UNL     1      -8.553   6.588  65.432  1.00  0.00    -0.068 C  
HETATM    7  O   UNL     1      -8.327   6.839  64.047  1.00  0.00    -0.329 OA 
HETATM    8  H   UNL     1      -9.091   7.298  63.720  1.00  0.00     0.000 HD 
BRANCH   6   9
HETATM    9  C   UNL     1      -8.831   7.880  66.172  1.00  0.00    -0.197 C  
HETATM   10  C   UNL     1      -8.001   8.516  67.019  1.00  0.00    -0.100 C  
BRANCH  10  11
HETATM   11  C   UNL     1      -8.384   9.701  67.883  1.00  0.00    -0.117 C  
HETATM   12  C   UNL     1      -7.197  10.686  67.963  1.00  0.00    -0.087 C  
HETATM   13  O   UNL     1      -6.211  10.257  68.890  1.00  0.00    -0.046 OA 
HETATM   14  C   UNL     1      -7.794  12.010  68.390  1.00  0.00    -0.147 C  
HETATM   15  H   UNL     1      -5.481  10.863  68.939  1.00  0.00     0.000 HD 
HETATM   16  C   UNL     1      -9.130  11.959  67.717  1.00  0.00    -0.180 C  
HETATM   17  O   UNL     1      -9.793  12.968  67.510  1.00  0.00    -0.203 OA 
HETATM   18  C   UNL     1      -9.570  10.546  67.360  1.00  0.00    -0.181 C  
BRANCH  18  19
HETATM   19  C   UNL     1     -10.876  10.168  68.076  1.00  0.00    -0.320 C  
BRANCH  19  20
HETATM   20  C   UNL     1     -10.713   9.855  69.542  1.00  0.00    -0.265 C  
HETATM   21  C   UNL     1     -10.715   8.650  70.132  1.00  0.00    -0.244 C  
BRANCH  21  22
HETATM   22  C   UNL     1     -10.909   7.333  69.445  1.00  0.00    -0.206 C  
BRANCH  22  23
HETATM   23  C   UNL     1     -10.801   6.148  70.404  1.00  0.00    -0.374 C  
BRANCH  23  24
HETATM   24  C   UNL     1     -11.177   6.597  71.816  1.00  0.00    -0.299 C  
HETATM   25  C   UNL     1      -9.974   6.800  72.702  1.00  0.00    -0.171 C  
HETATM   26  O   UNL     1      -8.813   6.634  72.370  1.00  0.00    -0.133 OA 
HETATM   27  O   UNL     1     -10.326   7.200  73.947  1.00  0.00    -0.358 OA 
ENDBRANCH  23  24
ENDBRANCH  22  23
ENDBRANCH  21  22
ENDBRANCH  19  20
ENDBRANCH  18  19
ENDBRANCH  10  11
ENDBRANCH   6   9
ENDBRANCH   5   6
ENDBRANCH   4   5
ENDBRANCH   3   4
ENDBRANCH   2   3
TORSDOF 11
ENDMDL
MODEL      335
REMARK 921   NORMALIZED FREE ENERGY PREDICTED BY IDOCK:   -2.82 KCAL/MOL
REMARK 922        TOTAL FREE ENERGY PREDICTED BY IDOCK:   -6.46 KCAL/MOL
REMARK 923 INTER-LIGAND FREE ENERGY PREDICTED BY IDOCK:   -4.03 KCAL/MOL
REMARK 924 INTRA-LIGAND FREE ENERGY PREDICTED BY IDOCK:   -2.42 KCAL/MOL
REMARK 927      BINDING AFFINITY PREDICTED BY RF-SCORE:    0.00 PKD
ROOT
HETATM    1  C   UNL     1      -7.099  10.703  69.411  1.00  0.00    -0.120 C  
HETATM    2  C   UNL     1      -7.885  11.635  68.507  1.00  0.00    -0.140 C  
ENDROOT
BRANCH   2   3
HETATM    3  C   UNL     1      -7.467  11.503  67.042  1.00  0.00    -0.151 C  
BRANCH   3   4
HETATM    4  C   UNL     1      -7.891  10.140  66.492  1.00  0.00    -0.112 C  
BRANCH   4   5
HETATM    5  C   UNL     1      -9.384   9.871  66.683  1.00  0.00    -0.196 C  
BRANCH   5   6
HETATM    6  C   UNL     1      -9.713   8.379  66.874  1.00  0.00    -0.227 C  
HETATM    7  O   UNL     1     -11.130   8.276  66.991  1.00  0.00    -0.332 OA 
HETATM    8  H   UNL     1     -11.332   7.356  67.109  1.00  0.00     0.000 HD 
BRANCH   6   9
HETATM    9  C   UNL     1      -9.029   7.771  68.081  1.00  0.00    -0.127 C  
HETATM   10  C   UNL     1      -8.767   6.468  68.285  1.00  0.00    -0.117 C  
BRANCH  10  11
HETATM   11  C   UNL     1      -8.253   5.879  69.584  1.00  0.00    -0.110 C  
HETATM   12  C   UNL     1      -8.440   4.346  69.565  1.00  0.00    -0.076 C  
HETATM   13  O   UNL     1      -9.778   3.970  69.858  1.00  0.00    -0.203 OA 
HETATM   14  C   UNL     1      -7.490   3.807  70.613  1.00  0.00    -0.041 C  
HETATM   15  H   UNL     1      -9.893   3.026  69.847  1.00  0.00     0.000 HD 
HETATM   16  C   UNL     1      -6.352   4.771  70.499  1.00  0.00    -0.026 C  
HETATM   17  O   UNL     1      -5.229   4.505  70.913  1.00  0.00     0.000 OA 
HETATM   18  C   UNL     1      -6.746   6.094  69.858  1.00  0.00    -0.056 C  
BRANCH  18  19
HETATM   19  C   UNL     1      -6.521   7.272  70.819  1.00  0.00    -0.043 C  
BRANCH  19  20
HETATM   20  C   UNL     1      -6.695   6.926  72.276  1.00  0.00    -0.058 C  
HETATM   21  C   UNL     1      -7.618   7.396  73.129  1.00  0.00    -0.107 C  
BRANCH  21  22
HETATM   22  C   UNL     1      -8.679   8.405  72.812  1.00  0.00    -0.256 C  
BRANCH  22  23
HETATM   23  C   UNL     1     -10.091   7.863  73.036  1.00  0.00    -0.384 C  
BRANCH  23  24
HETATM   24  C   UNL     1     -10.876   7.925  71.725  1.00  0.00    -0.286 C  
HETATM   25  C   UNL     1     -11.280   6.561  71.225  1.00  0.00    -0.288 C  
HETATM   26  O   UNL     1     -11.028   5.502  71.772  1.00  0.00    -0.240 OA 
HETATM   27  O   UNL     1     -11.976   6.635  70.065  1.00  0.00    -0.340 OA 
ENDBRANCH  23  24
ENDBRANCH  22  23
ENDBRANCH  21  22
ENDBRANCH  19  20
ENDBRANCH  18  19
ENDBRANCH  10  11
ENDBRANCH   6   9
ENDBRANCH   5   6
ENDBRANCH   4   5
ENDBRANCH   3   4
ENDBRANCH   2   3
TORSDOF 11
ENDMDL
MODEL      336
REMARK 921   NORMALIZED FREE ENERGY PREDICTED BY IDOCK:   -2.79 KCAL/MOL
REMARK 922        TOTAL FREE ENERGY PREDICTED BY IDOCK:   -6.41 KCAL/MOL
REMARK 923 INTER-LIGAND FREE ENERGY PREDICTED BY IDOCK:   -5.14 KCAL/MOL
REMARK 924 INTRA-LIGAND FREE ENERGY PREDICTED BY IDOCK:   -1.26 KCAL/MOL
REMARK 927      BINDING AFFINITY PREDICTED BY RF-SCORE:    0.00 PKD
ROOT
HETATM    1  C   UNL     1      -8.489   9.756  64.556  1.00  0.00    -0.182 C  
HETATM    2  C   UNL     1      -9.627   9.078  65.297  1.00  0.00     0.010 C  
ENDROOT
BRANCH   2   3
HETATM    3  C   UNL     1     -10.310  10.022  66.288  1.00  0.00    -0.235 C  
BRANCH   3   4
HETATM    4  C   UNL     1     -10.148   9.496  67.715  1.00  0.00    -0.244 C  
BRANCH   4   5
HETATM    5  C   UNL     1      -8.723   9.024  68.007  1.00  0.00    -0.129 C  
BRANCH   5   6
HETATM    6  C   UNL     1      -8.166   9.562  69.337  1.00  0.00    -0.126 C  
HETATM    7  O   UNL     1      -8.966   9.010  70.378  1.00  0.00    -0.168 OA 
HETATM    8  H   UNL     1      -8.622   9.342  71.199  1.00  0.00     0.000 HD 
BRANCH   6   9
HETATM    9  C   UNL     1      -8.161  11.076  69.409  1.00  0.00     0.064 C  
HETATM   10  C   UNL     1      -7.780  11.926  68.438  1.00  0.00    -0.131 C  
BRANCH  10  11
HETATM   11  C   UNL     1      -7.611  13.422  68.612  1.00  0.00    -0.101 C  
HETATM   12  C   UNL     1      -6.283  13.709  69.345  1.00  0.00    -0.109 C  
HETATM   13  O   UNL     1      -6.392  13.501  70.746  1.00  0.00    -0.408 OA 
HETATM   14  C   UNL     1      -5.955  15.155  69.043  1.00  0.00    -0.097 C  
HETATM   15  H   UNL     1      -5.575  13.679  71.197  1.00  0.00     0.000 HD 
HETATM   16  C   UNL     1      -6.488  15.290  67.651  1.00  0.00    -0.163 C  
HETATM   17  O   UNL     1      -6.124  16.186  66.898  1.00  0.00    -0.321 OA 
HETATM   18  C   UNL     1      -7.529  14.236  67.300  1.00  0.00    -0.082 C  
BRANCH  18  19
HETATM   19  C   UNL     1      -8.883  14.876  66.960  1.00  0.00    -0.255 C  
BRANCH  19  20
HETATM   20  C   UNL     1      -9.808  15.037  68.139  1.00  0.00    -0.216 C  
HETATM   21  C   UNL     1     -10.347  16.171  68.614  1.00  0.00    -0.252 C  
BRANCH  21  22
HETATM   22  C   UNL     1     -10.119  17.549  68.073  1.00  0.00    -0.332 C  
BRANCH  22  23
HETATM   23  C   UNL     1      -8.830  18.180  68.597  1.00  0.00    -0.277 C  
BRANCH  23  24
HETATM   24  C   UNL     1      -8.516  19.443  67.794  1.00  0.00    -0.345 C  
HETATM   25  C   UNL     1      -8.176  19.148  66.355  1.00  0.00    -0.314 C  
HETATM   26  O   UNL     1      -8.141  18.040  65.847  1.00  0.00    -0.519 OA 
HETATM   27  O   UNL     1      -7.903  20.277  65.659  1.00  0.00    -0.213 OA 
ENDBRANCH  23  24
ENDBRANCH  22  23
ENDBRANCH  21  22
ENDBRANCH  19  20
ENDBRANCH  18  19
ENDBRANCH  10  11
ENDBRANCH   6   9
ENDBRANCH   5   6
ENDBRANCH   4   5
ENDBRANCH   3   4
ENDBRANCH   2   3
TORSDOF 11
ENDMDL
MODEL      337
REMARK 921   NORMALIZED FREE ENERGY PREDICTED BY IDOCK:   -2.78 KCAL/MOL
REMARK 922        TOTAL FREE ENERGY PREDICTED BY IDOCK:   -6.39 KCAL/MOL
REMARK 923 INTER-LIGAND FREE ENERGY PREDICTED BY IDOCK:   -4.58 KCAL/MOL
REMARK 924 INTRA-LIGAND FREE ENERGY PREDICTED BY IDOCK:   -1.81 KCAL/MOL
REMARK 927      BINDING AFFINITY PREDICTED BY RF-SCORE:    0.00 PKD
ROOT
HETATM    1  C   UNL     1      -6.487  13.787  69.534  1.00  0.00    -0.105 C  
HETATM    2  C   UNL     1      -7.105  13.685  68.151  1.00  0.00    -0.118 C  
ENDROOT
BRANCH   2   3
HETATM    3  C   UNL     1      -8.480  13.016  68.184  1.00  0.00    -0.176 C  
BRANCH   3   4
HETATM    4  C   UNL     1      -8.333  11.522  68.473  1.00  0.00    -0.146 C  
BRANCH   4   5
HETATM    5  C   UNL     1      -7.066  10.928  67.857  1.00  0.00    -0.081 C  
BRANCH   5   6
HETATM    6  C   UNL     1      -7.346  10.032  66.638  1.00  0.00    -0.103 C  
HETATM    7  O   UNL     1      -8.049  10.828  65.688  1.00  0.00    -0.192 OA 
HETATM    8  H   UNL     1      -8.221  10.275  64.935  1.00  0.00     0.000 HD 
BRANCH   6   9
HETATM    9  C   UNL     1      -8.137   8.787  66.985  1.00  0.00    -0.099 C  
HETATM   10  C   UNL     1      -7.639   7.568  67.257  1.00  0.00    -0.108 C  
BRANCH  10  11
HETATM   11  C   UNL     1      -8.467   6.308  67.415  1.00  0.00    -0.108 C  
HETATM   12  C   UNL     1      -8.392   5.475  66.117  1.00  0.00    -0.119 C  
HETATM   13  O   UNL     1      -9.253   5.982  65.108  1.00  0.00    -0.364 OA 
HETATM   14  C   UNL     1      -8.797   4.071  66.510  1.00  0.00    -0.122 C  
HETATM   15  H   UNL     1      -9.207   5.469  64.309  1.00  0.00     0.000 HD 
HETATM   16  C   UNL     1      -8.245   3.985  67.898  1.00  0.00    -0.093 C  
HETATM   17  O   UNL     1      -8.041   2.912  68.453  1.00  0.00    -0.060 OA 
HETATM   18  C   UNL     1      -8.003   5.347  68.535  1.00  0.00    -0.091 C  
BRANCH  18  19
HETATM   19  C   UNL     1      -8.848   5.530  69.805  1.00  0.00    -0.129 C  
BRANCH  19  20
HETATM   20  C   UNL     1     -10.332   5.380  69.591  1.00  0.00    -0.361 C  
HETATM   21  C   UNL     1     -11.250   6.353  69.478  1.00  0.00    -0.477 C  
BRANCH  21  22
HETATM   22  C   UNL     1     -10.989   7.825  69.569  1.00  0.00    -0.092 C  
BRANCH  22  23
HETATM   23  C   UNL     1     -11.169   8.369  70.985  1.00  0.00    -0.304 C  
BRANCH  23  24
HETATM   24  C   UNL     1      -9.885   9.069  71.432  1.00  0.00    -0.381 C  
HETATM   25  C   UNL     1      -9.049   8.218  72.354  1.00  0.00    -0.237 C  
HETATM   26  O   UNL     1      -9.330   7.093  72.729  1.00  0.00    -0.136 OA 
HETATM   27  O   UNL     1      -7.916   8.853  72.736  1.00  0.00    -0.375 OA 
ENDBRANCH  23  24
ENDBRANCH  22  23
ENDBRANCH  21  22
ENDBRANCH  19  20
ENDBRANCH  18  19
ENDBRANCH  10  11
ENDBRANCH   6   9
ENDBRANCH   5   6
ENDBRANCH   4   5
ENDBRANCH   3   4
ENDBRANCH   2   3
TORSDOF 11
ENDMDL
MODEL      338
REMARK 921   NORMALIZED FREE ENERGY PREDICTED BY IDOCK:   -2.77 KCAL/MOL
REMARK 922        TOTAL FREE ENERGY PREDICTED BY IDOCK:   -6.37 KCAL/MOL
REMARK 923 INTER-LIGAND FREE ENERGY PREDICTED BY IDOCK:   -5.33 KCAL/MOL
REMARK 924 INTRA-LIGAND FREE ENERGY PREDICTED BY IDOCK:   -1.04 KCAL/MOL
REMARK 927      BINDING AFFINITY PREDICTED BY RF-SCORE:    0.00 PKD
ROOT
HETATM    1  C   UNL     1     -11.062   5.742  70.243  1.00  0.00    -0.300 C  
HETATM    2  C   UNL     1     -10.441   6.479  71.415  1.00  0.00    -0.246 C  
ENDROOT
BRANCH   2   3
HETATM    3  C   UNL     1      -9.700   7.741  70.973  1.00  0.00    -0.174 C  
BRANCH   3   4
HETATM    4  C   UNL     1      -9.812   7.915  69.457  1.00  0.00    -0.176 C  
BRANCH   4   5
HETATM    5  C   UNL     1      -8.497   8.366  68.820  1.00  0.00    -0.124 C  
BRANCH   5   6
HETATM    6  C   UNL     1      -8.263   9.884  68.918  1.00  0.00    -0.118 C  
HETATM    7  O   UNL     1      -7.206  10.084  69.852  1.00  0.00    -0.108 OA 
HETATM    8  H   UNL     1      -7.062  11.020  69.912  1.00  0.00     0.000 HD 
BRANCH   6   9
HETATM    9  C   UNL     1      -9.502  10.648  69.338  1.00  0.00    -0.101 C  
HETATM   10  C   UNL     1     -10.332  11.338  68.535  1.00  0.00    -0.217 C  
BRANCH  10  11
HETATM   11  C   UNL     1     -11.450  12.242  69.013  1.00  0.00    -0.349 C  
HETATM   12  C   UNL     1     -12.159  11.591  70.221  1.00  0.00    -0.359 C  
HETATM   13  O   UNL     1     -13.073  10.580  69.819  1.00  0.00    -0.542 OA 
HETATM   14  C   UNL     1     -12.884  12.718  70.924  1.00  0.00    -0.187 C  
HETATM   15  H   UNL     1     -13.509  10.179  70.562  1.00  0.00     0.000 HD 
HETATM   16  C   UNL     1     -11.944  13.859  70.693  1.00  0.00    -0.292 C  
HETATM   17  O   UNL     1     -11.966  14.871  71.384  1.00  0.00    -0.310 OA 
HETATM   18  C   UNL     1     -11.005  13.636  69.515  1.00  0.00    -0.054 C  
BRANCH  18  19
HETATM   19  C   UNL     1     -11.206  14.705  68.429  1.00  0.00    -0.290 C  
BRANCH  19  20
HETATM   20  C   UNL     1      -9.925  15.246  67.846  1.00  0.00    -0.228 C  
HETATM   21  C   UNL     1      -9.709  15.680  66.595  1.00  0.00    -0.266 C  
BRANCH  21  22
HETATM   22  C   UNL     1     -10.711  15.694  65.482  1.00  0.00    -0.403 C  
BRANCH  22  23
HETATM   23  C   UNL     1     -11.017  17.107  64.985  1.00  0.00     0.097 C  
BRANCH  23  24
HETATM   24  C   UNL     1     -10.358  18.129  65.912  1.00  0.00    -0.284 C  
HETATM   25  C   UNL     1     -10.579  19.550  65.461  1.00  0.00    -0.208 C  
HETATM   26  O   UNL     1     -11.205  19.891  64.472  1.00  0.00     0.291 OA 
HETATM   27  O   UNL     1      -9.990  20.441  66.294  1.00  0.00    -0.383 OA 
ENDBRANCH  23  24
ENDBRANCH  22  23
ENDBRANCH  21  22
ENDBRANCH  19  20
ENDBRANCH  18  19
ENDBRANCH  10  11
ENDBRANCH   6   9
ENDBRANCH   5   6
ENDBRANCH   4   5
ENDBRANCH   3   4
ENDBRANCH   2   3
TORSDOF 11
ENDMDL
MODEL      339
REMARK 921   NORMALIZED FREE ENERGY PREDICTED BY IDOCK:   -2.74 KCAL/MOL
REMARK 922        TOTAL FREE ENERGY PREDICTED BY IDOCK:   -6.32 KCAL/MOL
REMARK 923 INTER-LIGAND FREE ENERGY PREDICTED BY IDOCK:   -5.77 KCAL/MOL
REMARK 924 INTRA-LIGAND FREE ENERGY PREDICTED BY IDOCK:   -0.55 KCAL/MOL
REMARK 927      BINDING AFFINITY PREDICTED BY RF-SCORE:    0.00 PKD
ROOT
HETATM    1  C   UNL     1     -13.355   9.901  71.609  1.00  0.00    -0.481 C  
HETATM    2  C   UNL     1     -11.841   9.953  71.700  1.00  0.00    -0.374 C  
ENDROOT
BRANCH   2   3
HETATM    3  C   UNL     1     -11.196  10.311  70.360  1.00  0.00    -0.407 C  
BRANCH   3   4
HETATM    4  C   UNL     1     -12.258  10.820  69.383  1.00  0.00    -0.242 C  
BRANCH   4   5
HETATM    5  C   UNL     1     -11.695  11.827  68.379  1.00  0.00    -0.389 C  
BRANCH   5   6
HETATM    6  C   UNL     1     -10.832  11.175  67.284  1.00  0.00    -0.274 C  
HETATM    7  O   UNL     1     -11.506  11.380  66.045  1.00  0.00    -0.233 OA 
HETATM    8  H   UNL     1     -10.974  10.978  65.370  1.00  0.00     0.000 HD 
BRANCH   6   9
HETATM    9  C   UNL     1     -10.585   9.699  67.523  1.00  0.00    -0.339 C  
HETATM   10  C   UNL     1      -9.400   9.066  67.482  1.00  0.00    -0.159 C  
BRANCH  10  11
HETATM   11  C   UNL     1      -9.217   7.562  67.541  1.00  0.00    -0.140 C  
HETATM   12  C   UNL     1     -10.127   6.890  66.490  1.00  0.00    -0.070 C  
HETATM   13  O   UNL     1     -11.474   6.801  66.932  1.00  0.00    -0.752 OA 
HETATM   14  C   UNL     1      -9.544   5.512  66.267  1.00  0.00    -0.173 C  
HETATM   15  H   UNL     1     -12.034   6.387  66.285  1.00  0.00     0.000 HD 
HETATM   16  C   UNL     1      -8.082   5.782  66.434  1.00  0.00    -0.106 C  
HETATM   17  O   UNL     1      -7.225   5.024  65.996  1.00  0.00    -0.073 OA 
HETATM   18  C   UNL     1      -7.791   7.055  67.218  1.00  0.00    -0.110 C  
BRANCH  18  19
HETATM   19  C   UNL     1      -7.006   6.755  68.504  1.00  0.00    -0.076 C  
BRANCH  19  20
HETATM   20  C   UNL     1      -6.363   7.963  69.135  1.00  0.00    -0.036 C  
HETATM   21  C   UNL     1      -6.592   8.475  70.354  1.00  0.00    -0.036 C  
BRANCH  21  22
HETATM   22  C   UNL     1      -7.575   7.957  71.358  1.00  0.00    -0.083 C  
BRANCH  22  23
HETATM   23  C   UNL     1      -8.552   6.948  70.756  1.00  0.00    -0.144 C  
BRANCH  23  24
HETATM   24  C   UNL     1      -9.539   6.488  71.831  1.00  0.00    -0.156 C  
HETATM   25  C   UNL     1     -10.953   6.394  71.319  1.00  0.00    -0.271 C  
HETATM   26  O   UNL     1     -11.315   6.648  70.183  1.00  0.00    -0.327 OA 
HETATM   27  O   UNL     1     -11.812   5.983  72.283  1.00  0.00    -0.319 OA 
ENDBRANCH  23  24
ENDBRANCH  22  23
ENDBRANCH  21  22
ENDBRANCH  19  20
ENDBRANCH  18  19
ENDBRANCH  10  11
ENDBRANCH   6   9
ENDBRANCH   5   6
ENDBRANCH   4   5
ENDBRANCH   3   4
ENDBRANCH   2   3
TORSDOF 11
ENDMDL
MODEL      340
REMARK 921   NORMALIZED FREE ENERGY PREDICTED BY IDOCK:   -2.65 KCAL/MOL
REMARK 922        TOTAL FREE ENERGY PREDICTED BY IDOCK:   -6.17 KCAL/MOL
REMARK 923 INTER-LIGAND FREE ENERGY PREDICTED BY IDOCK:   -4.45 KCAL/MOL
REMARK 924 INTRA-LIGAND FREE ENERGY PREDICTED BY IDOCK:   -1.72 KCAL/MOL
REMARK 927      BINDING AFFINITY PREDICTED BY RF-SCORE:    0.00 PKD
ROOT
HETATM    1  C   UNL     1     -12.983  13.397  65.162  1.00  0.00    -0.249 C  
HETATM    2  C   UNL     1     -11.876  12.459  64.718  1.00  0.00    -0.442 C  
ENDROOT
BRANCH   2   3
HETATM    3  C   UNL     1     -10.565  13.201  64.451  1.00  0.00    -0.441 C  
BRANCH   3   4
HETATM    4  C   UNL     1     -10.658  14.638  64.969  1.00  0.00    -0.461 C  
BRANCH   4   5
HETATM    5  C   UNL     1      -9.675  14.916  66.106  1.00  0.00    -0.333 C  
BRANCH   5   6
HETATM    6  C   UNL     1      -9.826  13.944  67.290  1.00  0.00    -0.244 C  
HETATM    7  O   UNL     1     -10.024  14.737  68.457  1.00  0.00    -0.215 OA 
HETATM    8  H   UNL     1     -10.117  14.138  69.188  1.00  0.00     0.000 HD 
BRANCH   6   9
HETATM    9  C   UNL     1      -8.632  13.027  67.461  1.00  0.00    -0.192 C  
HETATM   10  C   UNL     1      -8.662  11.703  67.692  1.00  0.00    -0.156 C  
BRANCH  10  11
HETATM   11  C   UNL     1      -7.455  10.856  68.043  1.00  0.00    -0.090 C  
HETATM   12  C   UNL     1      -7.420  10.613  69.568  1.00  0.00    -0.130 C  
HETATM   13  O   UNL     1      -6.909  11.735  70.273  1.00  0.00    -0.447 OA 
HETATM   14  C   UNL     1      -6.532   9.404  69.768  1.00  0.00    -0.041 C  
HETATM   15  H   UNL     1      -6.887  11.585  71.211  1.00  0.00     0.000 HD 
HETATM   16  C   UNL     1      -6.842   8.607  68.540  1.00  0.00    -0.064 C  
HETATM   17  O   UNL     1      -6.611   7.406  68.468  1.00  0.00    -0.046 OA 
HETATM   18  C   UNL     1      -7.431   9.443  67.412  1.00  0.00    -0.091 C  
BRANCH  18  19
HETATM   19  C   UNL     1      -6.536   9.410  66.163  1.00  0.00    -0.070 C  
BRANCH  19  20
HETATM   20  C   UNL     1      -7.153  10.039  64.940  1.00  0.00    -0.136 C  
HETATM   21  C   UNL     1      -7.058   9.628  63.666  1.00  0.00    -0.110 C  
BRANCH  21  22
HETATM   22  C   UNL     1      -6.281   8.445  63.178  1.00  0.00    -0.082 C  
BRANCH  22  23
HETATM   23  C   UNL     1      -7.174   7.251  62.843  1.00  0.00    -0.077 C  
BRANCH  23  24
HETATM   24  C   UNL     1      -6.779   6.057  63.713  1.00  0.00    -0.037 C  
HETATM   25  C   UNL     1      -7.603   5.956  64.971  1.00  0.00    -0.089 C  
HETATM   26  O   UNL     1      -8.493   6.721  65.299  1.00  0.00    -0.133 OA 
HETATM   27  O   UNL     1      -7.241   4.891  65.727  1.00  0.00    -0.073 OA 
ENDBRANCH  23  24
ENDBRANCH  22  23
ENDBRANCH  21  22
ENDBRANCH  19  20
ENDBRANCH  18  19
ENDBRANCH  10  11
ENDBRANCH   6   9
ENDBRANCH   5   6
ENDBRANCH   4   5
ENDBRANCH   3   4
ENDBRANCH   2   3
TORSDOF 11
ENDMDL
MODEL      341
REMARK 921   NORMALIZED FREE ENERGY PREDICTED BY IDOCK:   -2.59 KCAL/MOL
REMARK 922        TOTAL FREE ENERGY PREDICTED BY IDOCK:   -6.07 KCAL/MOL
REMARK 923 INTER-LIGAND FREE ENERGY PREDICTED BY IDOCK:   -4.90 KCAL/MOL
REMARK 924 INTRA-LIGAND FREE ENERGY PREDICTED BY IDOCK:   -1.17 KCAL/MOL
REMARK 927      BINDING AFFINITY PREDICTED BY RF-SCORE:    0.00 PKD
ROOT
HETATM    1  C   UNL     1     -12.972  13.400  65.164  1.00  0.00    -0.249 C  
HETATM    2  C   UNL     1     -11.869  12.428  64.788  1.00  0.00    -0.442 C  
ENDROOT
BRANCH   2   3
HETATM    3  C   UNL     1     -10.546  13.142  64.506  1.00  0.00    -0.425 C  
BRANCH   3   4
HETATM    4  C   UNL     1     -10.660  14.625  64.864  1.00  0.00    -0.446 C  
BRANCH   4   5
HETATM    5  C   UNL     1      -9.742  15.019  66.023  1.00  0.00    -0.359 C  
BRANCH   5   6
HETATM    6  C   UNL     1     -10.022  14.232  67.315  1.00  0.00    -0.252 C  
HETATM    7  O   UNL     1     -10.265  15.189  68.342  1.00  0.00    -0.215 OA 
HETATM    8  H   UNL     1     -10.438  14.703  69.139  1.00  0.00     0.000 HD 
BRANCH   6   9
HETATM    9  C   UNL     1      -8.888  13.305  67.702  1.00  0.00    -0.200 C  
HETATM   10  C   UNL     1      -9.000  12.043  68.153  1.00  0.00    -0.190 C  
BRANCH  10  11
HETATM   11  C   UNL     1      -7.857  11.215  68.707  1.00  0.00    -0.142 C  
HETATM   12  C   UNL     1      -7.027  12.072  69.688  1.00  0.00     0.165 C  
HETATM   13  O   UNL     1      -6.139  12.948  69.008  1.00  0.00    -0.078 OA 
HETATM   14  C   UNL     1      -6.259  11.085  70.541  1.00  0.00    -0.053 C  
HETATM   15  H   UNL     1      -5.628  13.474  69.612  1.00  0.00     0.000 HD 
HETATM   16  C   UNL     1      -7.235   9.956  70.632  1.00  0.00    -0.017 C  
HETATM   17  O   UNL     1      -7.166   9.104  71.510  1.00  0.00    -0.277 OA 
HETATM   18  C   UNL     1      -8.276   9.968  69.521  1.00  0.00    -0.173 C  
BRANCH  18  19
HETATM   19  C   UNL     1      -8.196   8.695  68.663  1.00  0.00    -0.121 C  
BRANCH  19  20
HETATM   20  C   UNL     1      -9.242   8.609  67.581  1.00  0.00    -0.148 C  
HETATM   21  C   UNL     1      -9.810   7.505  67.071  1.00  0.00    -0.280 C  
BRANCH  21  22
HETATM   22  C   UNL     1      -9.498   6.093  67.462  1.00  0.00    -0.114 C  
BRANCH  22  23
HETATM   23  C   UNL     1     -10.296   5.630  68.680  1.00  0.00    -0.277 C  
BRANCH  23  24
HETATM   24  C   UNL     1      -9.357   4.952  69.679  1.00  0.00    -0.190 C  
HETATM   25  C   UNL     1      -9.054   5.820  70.874  1.00  0.00    -0.145 C  
HETATM   26  O   UNL     1      -9.486   6.944  71.061  1.00  0.00    -0.163 OA 
HETATM   27  O   UNL     1      -8.223   5.202  71.748  1.00  0.00    -0.113 OA 
ENDBRANCH  23  24
ENDBRANCH  22  23
ENDBRANCH  21  22
ENDBRANCH  19  20
ENDBRANCH  18  19
ENDBRANCH  10  11
ENDBRANCH   6   9
ENDBRANCH   5   6
ENDBRANCH   4   5
ENDBRANCH   3   4
ENDBRANCH   2   3
TORSDOF 11
ENDMDL
MODEL      342
REMARK 921   NORMALIZED FREE ENERGY PREDICTED BY IDOCK:   -2.59 KCAL/MOL
REMARK 922        TOTAL FREE ENERGY PREDICTED BY IDOCK:   -6.07 KCAL/MOL
REMARK 923 INTER-LIGAND FREE ENERGY PREDICTED BY IDOCK:   -4.33 KCAL/MOL
REMARK 924 INTRA-LIGAND FREE ENERGY PREDICTED BY IDOCK:   -1.74 KCAL/MOL
REMARK 927      BINDING AFFINITY PREDICTED BY RF-SCORE:    0.00 PKD
ROOT
HETATM    1  C   UNL     1      -8.171   8.107  74.343  1.00  0.00    -0.253 C  
HETATM    2  C   UNL     1      -7.879   7.829  72.880  1.00  0.00    -0.151 C  
ENDROOT
BRANCH   2   3
HETATM    3  C   UNL     1      -8.916   8.469  71.955  1.00  0.00    -0.301 C  
BRANCH   3   4
HETATM    4  C   UNL     1      -8.900   7.780  70.589  1.00  0.00    -0.144 C  
BRANCH   4   5
HETATM    5  C   UNL     1      -9.294   6.305  70.672  1.00  0.00    -0.171 C  
BRANCH   5   6
HETATM    6  C   UNL     1      -8.208   5.355  70.137  1.00  0.00    -0.100 C  
HETATM    7  O   UNL     1      -6.983   6.083  70.131  1.00  0.00    -0.064 OA 
HETATM    8  H   UNL     1      -6.313   5.497  69.801  1.00  0.00     0.000 HD 
BRANCH   6   9
HETATM    9  C   UNL     1      -8.519   4.818  68.755  1.00  0.00    -0.087 C  
HETATM   10  C   UNL     1      -7.648   4.269  67.891  1.00  0.00    -0.069 C  
BRANCH  10  11
HETATM   11  C   UNL     1      -7.960   3.916  66.450  1.00  0.00    -0.097 C  
HETATM   12  C   UNL     1      -8.435   2.448  66.369  1.00  0.00    -0.100 C  
HETATM   13  O   UNL     1      -7.348   1.534  66.418  1.00  0.00    -0.050 OA 
HETATM   14  C   UNL     1      -9.175   2.331  65.055  1.00  0.00    -0.114 C  
HETATM   15  H   UNL     1      -7.641   0.632  66.368  1.00  0.00     0.000 HD 
HETATM   16  C   UNL     1      -9.795   3.689  64.947  1.00  0.00    -0.164 C  
HETATM   17  O   UNL     1     -10.755   3.910  64.218  1.00  0.00    -0.277 OA 
HETATM   18  C   UNL     1      -9.094   4.740  65.797  1.00  0.00    -0.142 C  
BRANCH  18  19
HETATM   19  C   UNL     1      -8.526   5.874  64.931  1.00  0.00    -0.085 C  
BRANCH  19  20
HETATM   20  C   UNL     1      -7.917   7.009  65.715  1.00  0.00    -0.116 C  
HETATM   21  C   UNL     1      -8.511   7.788  66.631  1.00  0.00    -0.129 C  
BRANCH  21  22
HETATM   22  C   UNL     1      -9.944   7.709  67.060  1.00  0.00    -0.310 C  
BRANCH  22  23
HETATM   23  C   UNL     1     -10.685   9.033  66.881  1.00  0.00    -0.150 C  
BRANCH  23  24
HETATM   24  C   UNL     1      -9.890  10.159  67.544  1.00  0.00    -0.211 C  
HETATM   25  C   UNL     1     -10.763  11.306  67.985  1.00  0.00    -0.203 C  
HETATM   26  O   UNL     1     -11.972  11.371  67.846  1.00  0.00    -0.626 OA 
HETATM   27  O   UNL     1     -10.042  12.291  68.571  1.00  0.00    -0.216 OA 
ENDBRANCH  23  24
ENDBRANCH  22  23
ENDBRANCH  21  22
ENDBRANCH  19  20
ENDBRANCH  18  19
ENDBRANCH  10  11
ENDBRANCH   6   9
ENDBRANCH   5   6
ENDBRANCH   4   5
ENDBRANCH   3   4
ENDBRANCH   2   3
TORSDOF 11
ENDMDL
MODEL      343
REMARK 921   NORMALIZED FREE ENERGY PREDICTED BY IDOCK:   -2.59 KCAL/MOL
REMARK 922        TOTAL FREE ENERGY PREDICTED BY IDOCK:   -6.07 KCAL/MOL
REMARK 923 INTER-LIGAND FREE ENERGY PREDICTED BY IDOCK:   -4.32 KCAL/MOL
REMARK 924 INTRA-LIGAND FREE ENERGY PREDICTED BY IDOCK:   -1.75 KCAL/MOL
REMARK 927      BINDING AFFINITY PREDICTED BY RF-SCORE:    0.00 PKD
ROOT
HETATM    1  C   UNL     1     -13.882   6.501  72.389  1.00  0.00     0.353 C  
HETATM    2  C   UNL     1     -14.225   7.696  71.519  1.00  0.00    -0.564 C  
ENDROOT
BRANCH   2   3
HETATM    3  C   UNL     1     -14.301   8.993  72.326  1.00  0.00    -0.356 C  
BRANCH   3   4
HETATM    4  C   UNL     1     -13.002   9.786  72.172  1.00  0.00    -0.483 C  
BRANCH   4   5
HETATM    5  C   UNL     1     -13.117  10.902  71.133  1.00  0.00    -0.351 C  
BRANCH   5   6
HETATM    6  C   UNL     1     -11.794  11.650  70.896  1.00  0.00     0.135 C  
HETATM    7  O   UNL     1     -12.127  13.004  70.603  1.00  0.00    -0.453 OA 
HETATM    8  H   UNL     1     -11.310  13.466  70.457  1.00  0.00     0.000 HD 
BRANCH   6   9
HETATM    9  C   UNL     1     -10.964  11.048  69.780  1.00  0.00    -0.258 C  
HETATM   10  C   UNL     1     -10.695  11.607  68.587  1.00  0.00    -0.246 C  
BRANCH  10  11
HETATM   11  C   UNL     1     -10.021  10.898  67.429  1.00  0.00    -0.215 C  
HETATM   12  C   UNL     1     -10.034  11.813  66.185  1.00  0.00    -0.226 C  
HETATM   13  O   UNL     1     -11.295  11.803  65.531  1.00  0.00    -0.300 OA 
HETATM   14  C   UNL     1      -8.952  11.276  65.273  1.00  0.00    -0.079 C  
HETATM   15  H   UNL     1     -11.302  12.366  64.765  1.00  0.00     0.000 HD 
HETATM   16  C   UNL     1      -7.943  10.796  66.267  1.00  0.00    -0.160 C  
HETATM   17  O   UNL     1      -6.769  10.612  65.966  1.00  0.00    -0.122 OA 
HETATM   18  C   UNL     1      -8.531  10.542  67.648  1.00  0.00    -0.115 C  
BRANCH  18  19
HETATM   19  C   UNL     1      -8.369   9.071  68.064  1.00  0.00    -0.117 C  
BRANCH  19  20
HETATM   20  C   UNL     1      -7.808   8.876  69.449  1.00  0.00    -0.098 C  
HETATM   21  C   UNL     1      -7.464   7.722  70.042  1.00  0.00    -0.080 C  
BRANCH  21  22
HETATM   22  C   UNL     1      -7.594   6.353  69.449  1.00  0.00    -0.095 C  
BRANCH  22  23
HETATM   23  C   UNL     1      -8.713   5.536  70.093  1.00  0.00    -0.133 C  
BRANCH  23  24
HETATM   24  C   UNL     1      -9.946   5.557  69.190  1.00  0.00    -0.256 C  
HETATM   25  C   UNL     1     -10.947   6.609  69.597  1.00  0.00    -0.313 C  
HETATM   26  O   UNL     1     -10.827   7.376  70.536  1.00  0.00    -0.233 OA 
HETATM   27  O   UNL     1     -12.031   6.614  68.784  1.00  0.00     0.446 OA 
ENDBRANCH  23  24
ENDBRANCH  22  23
ENDBRANCH  21  22
ENDBRANCH  19  20
ENDBRANCH  18  19
ENDBRANCH  10  11
ENDBRANCH   6   9
ENDBRANCH   5   6
ENDBRANCH   4   5
ENDBRANCH   3   4
ENDBRANCH   2   3
TORSDOF 11
ENDMDL
MODEL      344
REMARK 921   NORMALIZED FREE ENERGY PREDICTED BY IDOCK:   -2.55 KCAL/MOL
REMARK 922        TOTAL FREE ENERGY PREDICTED BY IDOCK:   -6.01 KCAL/MOL
REMARK 923 INTER-LIGAND FREE ENERGY PREDICTED BY IDOCK:   -4.40 KCAL/MOL
REMARK 924 INTRA-LIGAND FREE ENERGY PREDICTED BY IDOCK:   -1.61 KCAL/MOL
REMARK 927      BINDING AFFINITY PREDICTED BY RF-SCORE:    0.00 PKD
ROOT
HETATM    1  C   UNL     1      -7.552  10.128  63.101  1.00  0.00    -0.147 C  
HETATM    2  C   UNL     1      -8.270   8.945  63.724  1.00  0.00    -0.172 C  
ENDROOT
BRANCH   2   3
HETATM    3  C   UNL     1      -7.920   7.628  63.029  1.00  0.00    -0.112 C  
BRANCH   3   4
HETATM    4  C   UNL     1      -6.613   7.067  63.590  1.00  0.00    -0.044 C  
BRANCH   4   5
HETATM    5  C   UNL     1      -6.663   6.869  65.106  1.00  0.00    -0.050 C  
BRANCH   5   6
HETATM    6  C   UNL     1      -6.524   5.396  65.530  1.00  0.00    -0.040 C  
HETATM    7  O   UNL     1      -7.018   4.604  64.454  1.00  0.00    -0.048 OA 
HETATM    8  H   UNL     1      -6.932   3.695  64.716  1.00  0.00     0.000 HD 
BRANCH   6   9
HETATM    9  C   UNL     1      -7.263   5.077  66.814  1.00  0.00    -0.077 C  
HETATM   10  C   UNL     1      -8.199   4.127  66.989  1.00  0.00    -0.100 C  
BRANCH  10  11
HETATM   11  C   UNL     1      -9.047   3.963  68.234  1.00  0.00    -0.186 C  
HETATM   12  C   UNL     1      -9.048   2.481  68.667  1.00  0.00    -0.146 C  
HETATM   13  O   UNL     1      -9.942   1.699  67.886  1.00  0.00    -0.334 OA 
HETATM   14  C   UNL     1      -9.466   2.481  70.121  1.00  0.00    -0.150 C  
HETATM   15  H   UNL     1      -9.942   0.787  68.153  1.00  0.00     0.000 HD 
HETATM   16  C   UNL     1      -8.856   3.759  70.601  1.00  0.00    -0.079 C  
HETATM   17  O   UNL     1      -8.651   3.978  71.789  1.00  0.00    -0.096 OA 
HETATM   18  C   UNL     1      -8.556   4.742  69.477  1.00  0.00    -0.103 C  
BRANCH  18  19
HETATM   19  C   UNL     1      -9.339   6.052  69.654  1.00  0.00    -0.161 C  
BRANCH  19  20
HETATM   20  C   UNL     1     -10.837   5.887  69.644  1.00  0.00    -0.444 C  
HETATM   21  C   UNL     1     -11.739   6.507  70.419  1.00  0.00    -0.439 C  
BRANCH  21  22
HETATM   22  C   UNL     1     -11.439   7.499  71.500  1.00  0.00    -0.293 C  
BRANCH  22  23
HETATM   23  C   UNL     1     -11.361   8.933  70.977  1.00  0.00    -0.350 C  
BRANCH  23  24
HETATM   24  C   UNL     1      -9.906   9.404  70.988  1.00  0.00    -0.317 C  
HETATM   25  C   UNL     1      -9.367   9.657  69.604  1.00  0.00    -0.211 C  
HETATM   26  O   UNL     1      -9.986   9.514  68.564  1.00  0.00    -0.158 OA 
HETATM   27  O   UNL     1      -8.079  10.075  69.634  1.00  0.00    -0.143 OA 
ENDBRANCH  23  24
ENDBRANCH  22  23
ENDBRANCH  21  22
ENDBRANCH  19  20
ENDBRANCH  18  19
ENDBRANCH  10  11
ENDBRANCH   6   9
ENDBRANCH   5   6
ENDBRANCH   4   5
ENDBRANCH   3   4
ENDBRANCH   2   3
TORSDOF 11
ENDMDL
MODEL      345
REMARK 921   NORMALIZED FREE ENERGY PREDICTED BY IDOCK:   -2.53 KCAL/MOL
REMARK 922        TOTAL FREE ENERGY PREDICTED BY IDOCK:   -5.97 KCAL/MOL
REMARK 923 INTER-LIGAND FREE ENERGY PREDICTED BY IDOCK:   -4.60 KCAL/MOL
REMARK 924 INTRA-LIGAND FREE ENERGY PREDICTED BY IDOCK:   -1.37 KCAL/MOL
REMARK 927      BINDING AFFINITY PREDICTED BY RF-SCORE:    0.00 PKD
ROOT
HETATM    1  C   UNL     1      -6.279  14.545  69.861  1.00  0.00    -0.150 C  
HETATM    2  C   UNL     1      -6.119  13.784  68.558  1.00  0.00    -0.092 C  
ENDROOT
BRANCH   2   3
HETATM    3  C   UNL     1      -7.468  13.437  67.926  1.00  0.00    -0.149 C  
BRANCH   3   4
HETATM    4  C   UNL     1      -7.719  11.930  68.012  1.00  0.00    -0.132 C  
BRANCH   4   5
HETATM    5  C   UNL     1      -7.130  11.310  69.280  1.00  0.00    -0.112 C  
BRANCH   5   6
HETATM    6  C   UNL     1      -6.761   9.825  69.114  1.00  0.00    -0.053 C  
HETATM    7  O   UNL     1      -6.051   9.706  67.885  1.00  0.00    -0.051 OA 
HETATM    8  H   UNL     1      -5.823   8.790  67.783  1.00  0.00     0.000 HD 
BRANCH   6   9
HETATM    9  C   UNL     1      -7.968   8.909  69.128  1.00  0.00    -0.105 C  
HETATM   10  C   UNL     1      -8.299   8.030  70.090  1.00  0.00    -0.126 C  
BRANCH  10  11
HETATM   11  C   UNL     1      -9.407   7.001  69.982  1.00  0.00    -0.158 C  
HETATM   12  C   UNL     1      -8.978   5.881  69.008  1.00  0.00    -0.122 C  
HETATM   13  O   UNL     1      -9.128   6.270  67.650  1.00  0.00    -0.119 OA 
HETATM   14  C   UNL     1      -9.867   4.700  69.329  1.00  0.00    -0.260 C  
HETATM   15  H   UNL     1      -8.865   5.581  67.052  1.00  0.00     0.000 HD 
HETATM   16  C   UNL     1     -10.040   4.857  70.806  1.00  0.00    -0.233 C  
HETATM   17  O   UNL     1     -10.395   3.928  71.523  1.00  0.00    -0.055 OA 
HETATM   18  C   UNL     1      -9.764   6.271  71.298  1.00  0.00    -0.193 C  
BRANCH  18  19
HETATM   19  C   UNL     1     -11.008   6.890  71.954  1.00  0.00    -0.266 C  
BRANCH  19  20
HETATM   20  C   UNL     1     -12.176   7.075  71.019  1.00  0.00    -0.419 C  
HETATM   21  C   UNL     1     -13.212   7.917  71.152  1.00  0.00    -0.107 C  
BRANCH  21  22
HETATM   22  C   UNL     1     -13.444   8.855  72.297  1.00  0.00    -0.503 C  
BRANCH  22  23
HETATM   23  C   UNL     1     -13.463  10.320  71.863  1.00  0.00    -0.403 C  
BRANCH  23  24
HETATM   24  C   UNL     1     -12.040  10.776  71.541  1.00  0.00    -0.201 C  
HETATM   25  C   UNL     1     -11.852  11.111  70.083  1.00  0.00    -0.365 C  
HETATM   26  O   UNL     1     -12.711  11.037  69.222  1.00  0.00    -0.280 OA 
HETATM   27  O   UNL     1     -10.587  11.515  69.818  1.00  0.00     0.057 OA 
ENDBRANCH  23  24
ENDBRANCH  22  23
ENDBRANCH  21  22
ENDBRANCH  19  20
ENDBRANCH  18  19
ENDBRANCH  10  11
ENDBRANCH   6   9
ENDBRANCH   5   6
ENDBRANCH   4   5
ENDBRANCH   3   4
ENDBRANCH   2   3
TORSDOF 11
ENDMDL
MODEL      346
REMARK 921   NORMALIZED FREE ENERGY PREDICTED BY IDOCK:   -2.46 KCAL/MOL
REMARK 922        TOTAL FREE ENERGY PREDICTED BY IDOCK:   -5.85 KCAL/MOL
REMARK 923 INTER-LIGAND FREE ENERGY PREDICTED BY IDOCK:   -4.65 KCAL/MOL
REMARK 924 INTRA-LIGAND FREE ENERGY PREDICTED BY IDOCK:   -1.20 KCAL/MOL
REMARK 927      BINDING AFFINITY PREDICTED BY RF-SCORE:    0.00 PKD
ROOT
HETATM    1  C   UNL     1      -7.434  10.575  63.386  1.00  0.00     0.028 C  
HETATM    2  C   UNL     1      -8.086   9.319  63.934  1.00  0.00    -0.151 C  
ENDROOT
BRANCH   2   3
HETATM    3  C   UNL     1      -7.391   8.049  63.441  1.00  0.00    -0.107 C  
BRANCH   3   4
HETATM    4  C   UNL     1      -6.164   7.750  64.305  1.00  0.00    -0.053 C  
BRANCH   4   5
HETATM    5  C   UNL     1      -6.505   7.657  65.793  1.00  0.00    -0.042 C  
BRANCH   5   6
HETATM    6  C   UNL     1      -6.127   6.303  66.419  1.00  0.00    -0.033 C  
HETATM    7  O   UNL     1      -6.210   5.327  65.384  1.00  0.00    -0.032 OA 
HETATM    8  H   UNL     1      -5.976   4.492  65.770  1.00  0.00     0.000 HD 
BRANCH   6   9
HETATM    9  C   UNL     1      -7.012   5.922  67.588  1.00  0.00    -0.069 C  
HETATM   10  C   UNL     1      -7.837   4.863  67.660  1.00  0.00    -0.094 C  
BRANCH  10  11
HETATM   11  C   UNL     1      -8.843   4.620  68.768  1.00  0.00    -0.127 C  
HETATM   12  C   UNL     1      -8.982   3.102  69.015  1.00  0.00    -0.123 C  
HETATM   13  O   UNL     1      -9.814   2.479  68.046  1.00  0.00    -0.240 OA 
HETATM   14  C   UNL     1      -9.580   2.968  70.399  1.00  0.00    -0.170 C  
HETATM   15  H   UNL     1      -9.899   1.546  68.199  1.00  0.00     0.000 HD 
HETATM   16  C   UNL     1      -8.963   4.138  71.098  1.00  0.00    -0.117 C  
HETATM   17  O   UNL     1      -8.897   4.206  72.320  1.00  0.00    -0.105 OA 
HETATM   18  C   UNL     1      -8.468   5.217  70.145  1.00  0.00    -0.109 C  
BRANCH  18  19
HETATM   19  C   UNL     1      -9.192   6.551  70.385  1.00  0.00    -0.156 C  
BRANCH  19  20
HETATM   20  C   UNL     1     -10.613   6.586  69.884  1.00  0.00    -0.282 C  
HETATM   21  C   UNL     1     -11.742   6.555  70.609  1.00  0.00    -0.436 C  
BRANCH  21  22
HETATM   22  C   UNL     1     -11.830   6.453  72.101  1.00  0.00    -0.361 C  
BRANCH  22  23
HETATM   23  C   UNL     1     -11.769   7.816  72.788  1.00  0.00    -0.312 C  
BRANCH  23  24
HETATM   24  C   UNL     1     -11.808   8.923  71.733  1.00  0.00    -0.429 C  
HETATM   25  C   UNL     1     -13.163   9.576  71.626  1.00  0.00    -0.406 C  
HETATM   26  O   UNL     1     -14.145   9.284  72.285  1.00  0.00    -0.413 OA 
HETATM   27  O   UNL     1     -13.177  10.555  70.689  1.00  0.00    -0.316 OA 
ENDBRANCH  23  24
ENDBRANCH  22  23
ENDBRANCH  21  22
ENDBRANCH  19  20
ENDBRANCH  18  19
ENDBRANCH  10  11
ENDBRANCH   6   9
ENDBRANCH   5   6
ENDBRANCH   4   5
ENDBRANCH   3   4
ENDBRANCH   2   3
TORSDOF 11
ENDMDL
MODEL      347
REMARK 921   NORMALIZED FREE ENERGY PREDICTED BY IDOCK:   -2.41 KCAL/MOL
REMARK 922        TOTAL FREE ENERGY PREDICTED BY IDOCK:   -5.77 KCAL/MOL
REMARK 923 INTER-LIGAND FREE ENERGY PREDICTED BY IDOCK:   -4.19 KCAL/MOL
REMARK 924 INTRA-LIGAND FREE ENERGY PREDICTED BY IDOCK:   -1.58 KCAL/MOL
REMARK 927      BINDING AFFINITY PREDICTED BY RF-SCORE:    0.00 PKD
ROOT
HETATM    1  C   UNL     1     -11.842  14.521  67.188  1.00  0.00    -0.412 C  
HETATM    2  C   UNL     1     -10.737  15.553  67.063  1.00  0.00    -0.321 C  
ENDROOT
BRANCH   2   3
HETATM    3  C   UNL     1      -9.627  15.094  66.115  1.00  0.00    -0.344 C  
BRANCH   3   4
HETATM    4  C   UNL     1      -8.317  14.914  66.885  1.00  0.00    -0.212 C  
BRANCH   4   5
HETATM    5  C   UNL     1      -8.420  13.843  67.972  1.00  0.00    -0.173 C  
BRANCH   5   6
HETATM    6  C   UNL     1      -7.592  12.583  67.663  1.00  0.00    -0.145 C  
HETATM    7  O   UNL     1      -6.402  13.015  67.010  1.00  0.00    -0.480 OA 
HETATM    8  H   UNL     1      -5.891  12.238  66.820  1.00  0.00     0.000 HD 
BRANCH   6   9
HETATM    9  C   UNL     1      -8.338  11.578  66.809  1.00  0.00    -0.165 C  
HETATM   10  C   UNL     1      -7.908  10.357  66.444  1.00  0.00    -0.128 C  
BRANCH  10  11
HETATM   11  C   UNL     1      -8.600   9.459  65.438  1.00  0.00    -0.176 C  
HETATM   12  C   UNL     1      -7.914   9.601  64.062  1.00  0.00    -0.140 C  
HETATM   13  O   UNL     1      -8.328  10.778  63.381  1.00  0.00    -0.316 OA 
HETATM   14  C   UNL     1      -8.305   8.366  63.281  1.00  0.00    -0.075 C  
HETATM   15  H   UNL     1      -7.906  10.865  62.534  1.00  0.00     0.000 HD 
HETATM   16  C   UNL     1      -8.370   7.341  64.369  1.00  0.00     0.108 C  
HETATM   17  O   UNL     1      -8.309   6.139  64.137  1.00  0.00    -0.075 OA 
HETATM   18  C   UNL     1      -8.548   7.945  65.755  1.00  0.00    -0.167 C  
BRANCH  18  19
HETATM   19  C   UNL     1      -9.855   7.472  66.410  1.00  0.00    -0.152 C  
BRANCH  19  20
HETATM   20  C   UNL     1      -9.668   6.451  67.503  1.00  0.00    -0.137 C  
HETATM   21  C   UNL     1      -9.543   6.669  68.821  1.00  0.00    -0.131 C  
BRANCH  21  22
HETATM   22  C   UNL     1      -9.539   8.006  69.497  1.00  0.00    -0.164 C  
BRANCH  22  23
HETATM   23  C   UNL     1      -8.222   8.757  69.306  1.00  0.00    -0.108 C  
BRANCH  23  24
HETATM   24  C   UNL     1      -7.059   7.876  69.764  1.00  0.00    -0.061 C  
HETATM   25  C   UNL     1      -6.157   8.571  70.751  1.00  0.00    -0.033 C  
HETATM   26  O   UNL     1      -6.300   9.709  71.163  1.00  0.00    -0.159 OA 
HETATM   27  O   UNL     1      -5.135   7.775  71.147  1.00  0.00    -0.026 OA 
ENDBRANCH  23  24
ENDBRANCH  22  23
ENDBRANCH  21  22
ENDBRANCH  19  20
ENDBRANCH  18  19
ENDBRANCH  10  11
ENDBRANCH   6   9
ENDBRANCH   5   6
ENDBRANCH   4   5
ENDBRANCH   3   4
ENDBRANCH   2   3
TORSDOF 11
ENDMDL
MODEL      348
REMARK 921   NORMALIZED FREE ENERGY PREDICTED BY IDOCK:   -2.35 KCAL/MOL
REMARK 922        TOTAL FREE ENERGY PREDICTED BY IDOCK:   -5.67 KCAL/MOL
REMARK 923 INTER-LIGAND FREE ENERGY PREDICTED BY IDOCK:   -4.25 KCAL/MOL
REMARK 924 INTRA-LIGAND FREE ENERGY PREDICTED BY IDOCK:   -1.42 KCAL/MOL
REMARK 927      BINDING AFFINITY PREDICTED BY RF-SCORE:    0.00 PKD
ROOT
HETATM    1  C   UNL     1      -7.448   9.769  62.574  1.00  0.00    -0.120 C  
HETATM    2  C   UNL     1      -8.306   8.690  63.208  1.00  0.00    -0.137 C  
ENDROOT
BRANCH   2   3
HETATM    3  C   UNL     1      -8.336   7.412  62.368  1.00  0.00    -0.021 C  
BRANCH   3   4
HETATM    4  C   UNL     1      -7.600   6.286  63.096  1.00  0.00    -0.085 C  
BRANCH   4   5
HETATM    5  C   UNL     1      -6.906   6.767  64.370  1.00  0.00    -0.046 C  
BRANCH   5   6
HETATM    6  C   UNL     1      -7.541   6.209  65.656  1.00  0.00    -0.085 C  
HETATM    7  O   UNL     1      -8.760   5.576  65.278  1.00  0.00    -0.153 OA 
HETATM    8  H   UNL     1      -9.152   5.231  66.071  1.00  0.00     0.000 HD 
BRANCH   6   9
HETATM    9  C   UNL     1      -7.791   7.273  66.705  1.00  0.00    -0.102 C  
HETATM   10  C   UNL     1      -8.987   7.733  67.114  1.00  0.00    -0.138 C  
BRANCH  10  11
HETATM   11  C   UNL     1      -9.192   8.926  68.026  1.00  0.00    -0.147 C  
HETATM   12  C   UNL     1      -9.791   8.454  69.369  1.00  0.00    -0.185 C  
HETATM   13  O   UNL     1     -11.188   8.214  69.273  1.00  0.00    -0.434 OA 
HETATM   14  C   UNL     1      -9.503   9.564  70.356  1.00  0.00    -0.317 C  
HETATM   15  H   UNL     1     -11.556   7.924  70.100  1.00  0.00     0.000 HD 
HETATM   16  C   UNL     1      -8.181  10.059  69.862  1.00  0.00    -0.159 C  
HETATM   17  O   UNL     1      -7.424  10.713  70.571  1.00  0.00     0.021 OA 
HETATM   18  C   UNL     1      -7.906   9.695  68.410  1.00  0.00    -0.085 C  
BRANCH  18  19
HETATM   19  C   UNL     1      -7.731  10.950  67.540  1.00  0.00    -0.109 C  
BRANCH  19  20
HETATM   20  C   UNL     1      -8.894  11.908  67.592  1.00  0.00    -0.169 C  
HETATM   21  C   UNL     1      -8.867  13.222  67.866  1.00  0.00    -0.192 C  
BRANCH  21  22
HETATM   22  C   UNL     1      -7.651  14.025  68.211  1.00  0.00    -0.135 C  
BRANCH  22  23
HETATM   23  C   UNL     1      -7.956  15.514  68.371  1.00  0.00    -0.127 C  
BRANCH  23  24
HETATM   24  C   UNL     1      -7.048  16.325  67.445  1.00  0.00    -0.200 C  
HETATM   25  C   UNL     1      -7.810  17.024  66.350  1.00  0.00    -0.308 C  
HETATM   26  O   UNL     1      -9.017  16.975  66.182  1.00  0.00    -0.400 OA 
HETATM   27  O   UNL     1      -6.991  17.739  65.542  1.00  0.00    -0.415 OA 
ENDBRANCH  23  24
ENDBRANCH  22  23
ENDBRANCH  21  22
ENDBRANCH  19  20
ENDBRANCH  18  19
ENDBRANCH  10  11
ENDBRANCH   6   9
ENDBRANCH   5   6
ENDBRANCH   4   5
ENDBRANCH   3   4
ENDBRANCH   2   3
TORSDOF 11
ENDMDL
MODEL      349
REMARK 921   NORMALIZED FREE ENERGY PREDICTED BY IDOCK:   -2.31 KCAL/MOL
REMARK 922        TOTAL FREE ENERGY PREDICTED BY IDOCK:   -5.62 KCAL/MOL
REMARK 923 INTER-LIGAND FREE ENERGY PREDICTED BY IDOCK:   -4.07 KCAL/MOL
REMARK 924 INTRA-LIGAND FREE ENERGY PREDICTED BY IDOCK:   -1.55 KCAL/MOL
REMARK 927      BINDING AFFINITY PREDICTED BY RF-SCORE:    0.00 PKD
ROOT
HETATM    1  C   UNL     1      -8.736  10.190  68.143  1.00  0.00    -0.122 C  
HETATM    2  C   UNL     1     -10.038  10.110  67.367  1.00  0.00    -0.251 C  
ENDROOT
BRANCH   2   3
HETATM    3  C   UNL     1      -9.990   9.042  66.273  1.00  0.00    -0.352 C  
BRANCH   3   4
HETATM    4  C   UNL     1      -8.822   9.312  65.323  1.00  0.00    -0.237 C  
BRANCH   4   5
HETATM    5  C   UNL     1      -8.409   8.068  64.534  1.00  0.00    -0.048 C  
BRANCH   5   6
HETATM    6  C   UNL     1      -7.316   7.241  65.234  1.00  0.00    -0.080 C  
HETATM    7  O   UNL     1      -6.234   7.119  64.316  1.00  0.00    -0.036 OA 
HETATM    8  H   UNL     1      -5.559   6.608  64.748  1.00  0.00     0.000 HD 
BRANCH   6   9
HETATM    9  C   UNL     1      -7.800   5.876  65.679  1.00  0.00    -0.101 C  
HETATM   10  C   UNL     1      -8.997   5.582  66.216  1.00  0.00    -0.140 C  
BRANCH  10  11
HETATM   11  C   UNL     1      -9.373   4.244  66.820  1.00  0.00    -0.180 C  
HETATM   12  C   UNL     1      -9.102   3.121  65.794  1.00  0.00    -0.149 C  
HETATM   13  O   UNL     1     -10.130   3.033  64.817  1.00  0.00    -0.364 OA 
HETATM   14  C   UNL     1      -9.020   1.843  66.601  1.00  0.00    -0.111 C  
HETATM   15  H   UNL     1      -9.963   2.342  64.187  1.00  0.00     0.000 HD 
HETATM   16  C   UNL     1      -8.400   2.338  67.870  1.00  0.00    -0.066 C  
HETATM   17  O   UNL     1      -7.838   1.586  68.657  1.00  0.00    -0.046 OA 
HETATM   18  C   UNL     1      -8.572   3.836  68.079  1.00  0.00    -0.114 C  
BRANCH  18  19
HETATM   19  C   UNL     1      -9.366   4.136  69.360  1.00  0.00    -0.238 C  
BRANCH  19  20
HETATM   20  C   UNL     1      -8.603   3.889  70.636  1.00  0.00    -0.108 C  
HETATM   21  C   UNL     1      -7.857   4.762  71.332  1.00  0.00    -0.096 C  
BRANCH  21  22
HETATM   22  C   UNL     1      -7.602   6.191  70.964  1.00  0.00    -0.097 C  
BRANCH  22  23
HETATM   23  C   UNL     1      -8.689   7.134  71.478  1.00  0.00    -0.119 C  
BRANCH  23  24
HETATM   24  C   UNL     1      -9.809   7.236  70.443  1.00  0.00    -0.183 C  
HETATM   25  C   UNL     1     -11.098   6.615  70.918  1.00  0.00    -0.286 C  
HETATM   26  O   UNL     1     -11.271   6.079  71.999  1.00  0.00    -0.263 OA 
HETATM   27  O   UNL     1     -12.079   6.716  69.989  1.00  0.00    -0.280 OA 
ENDBRANCH  23  24
ENDBRANCH  22  23
ENDBRANCH  21  22
ENDBRANCH  19  20
ENDBRANCH  18  19
ENDBRANCH  10  11
ENDBRANCH   6   9
ENDBRANCH   5   6
ENDBRANCH   4   5
ENDBRANCH   3   4
ENDBRANCH   2   3
TORSDOF 11
ENDMDL
MODEL      350
REMARK 921   NORMALIZED FREE ENERGY PREDICTED BY IDOCK:   -2.31 KCAL/MOL
REMARK 922        TOTAL FREE ENERGY PREDICTED BY IDOCK:   -5.61 KCAL/MOL
REMARK 923 INTER-LIGAND FREE ENERGY PREDICTED BY IDOCK:   -4.71 KCAL/MOL
REMARK 924 INTRA-LIGAND FREE ENERGY PREDICTED BY IDOCK:   -0.90 KCAL/MOL
REMARK 927      BINDING AFFINITY PREDICTED BY RF-SCORE:    0.00 PKD
ROOT
HETATM    1  C   UNL     1     -13.304   9.884  71.723  1.00  0.00    -0.501 C  
HETATM    2  C   UNL     1     -11.807   9.692  71.885  1.00  0.00    -0.280 C  
ENDROOT
BRANCH   2   3
HETATM    3  C   UNL     1     -11.062   9.840  70.558  1.00  0.00    -0.384 C  
BRANCH   3   4
HETATM    4  C   UNL     1     -11.966  10.501  69.516  1.00  0.00    -0.258 C  
BRANCH   4   5
HETATM    5  C   UNL     1     -11.210  11.486  68.624  1.00  0.00    -0.307 C  
BRANCH   5   6
HETATM    6  C   UNL     1     -10.496  10.810  67.440  1.00  0.00    -0.225 C  
HETATM    7  O   UNL     1     -11.220  11.158  66.263  1.00  0.00    -0.184 OA 
HETATM    8  H   UNL     1     -10.780  10.741  65.533  1.00  0.00     0.000 HD 
BRANCH   6   9
HETATM    9  C   UNL     1     -10.401   9.305  67.586  1.00  0.00    -0.311 C  
HETATM   10  C   UNL     1      -9.350   8.531  67.260  1.00  0.00    -0.184 C  
BRANCH  10  11
HETATM   11  C   UNL     1      -9.362   7.015  67.245  1.00  0.00    -0.153 C  
HETATM   12  C   UNL     1     -10.669   6.515  66.594  1.00  0.00    -0.173 C  
HETATM   13  O   UNL     1     -11.767   6.571  67.494  1.00  0.00    -0.596 OA 
HETATM   14  C   UNL     1     -10.395   5.088  66.172  1.00  0.00    -0.309 C  
HETATM   15  H   UNL     1     -12.572   6.263  67.092  1.00  0.00     0.000 HD 
HETATM   16  C   UNL     1      -8.948   5.166  65.800  1.00  0.00    -0.152 C  
HETATM   17  O   UNL     1      -8.414   4.331  65.079  1.00  0.00    -0.112 OA 
HETATM   18  C   UNL     1      -8.228   6.352  66.427  1.00  0.00    -0.115 C  
BRANCH  18  19
HETATM   19  C   UNL     1      -7.082   5.893  67.342  1.00  0.00    -0.074 C  
BRANCH  19  20
HETATM   20  C   UNL     1      -6.168   7.001  67.797  1.00  0.00    -0.042 C  
HETATM   21  C   UNL     1      -6.081   7.545  69.021  1.00  0.00    -0.034 C  
BRANCH  21  22
HETATM   22  C   UNL     1      -6.909   7.173  70.212  1.00  0.00    -0.056 C  
BRANCH  22  23
HETATM   23  C   UNL     1      -6.282   6.050  71.037  1.00  0.00    -0.039 C  
BRANCH  23  24
HETATM   24  C   UNL     1      -7.096   5.837  72.314  1.00  0.00    -0.084 C  
HETATM   25  C   UNL     1      -6.704   4.581  73.050  1.00  0.00    -0.056 C  
HETATM   26  O   UNL     1      -5.842   3.794  72.701  1.00  0.00    -0.007 OA 
HETATM   27  O   UNL     1      -7.434   4.410  74.179  1.00  0.00    -0.071 OA 
ENDBRANCH  23  24
ENDBRANCH  22  23
ENDBRANCH  21  22
ENDBRANCH  19  20
ENDBRANCH  18  19
ENDBRANCH  10  11
ENDBRANCH   6   9
ENDBRANCH   5   6
ENDBRANCH   4   5
ENDBRANCH   3   4
ENDBRANCH   2   3
TORSDOF 11
ENDMDL
MODEL      351
REMARK 921   NORMALIZED FREE ENERGY PREDICTED BY IDOCK:   -2.28 KCAL/MOL
REMARK 922        TOTAL FREE ENERGY PREDICTED BY IDOCK:   -5.57 KCAL/MOL
REMARK 923 INTER-LIGAND FREE ENERGY PREDICTED BY IDOCK:   -5.13 KCAL/MOL
REMARK 924 INTRA-LIGAND FREE ENERGY PREDICTED BY IDOCK:   -0.44 KCAL/MOL
REMARK 927      BINDING AFFINITY PREDICTED BY RF-SCORE:    0.00 PKD
ROOT
HETATM    1  C   UNL     1     -14.220   6.263  72.135  1.00  0.00     0.312 C  
HETATM    2  C   UNL     1     -14.357   7.470  71.226  1.00  0.00    -0.434 C  
ENDROOT
BRANCH   2   3
HETATM    3  C   UNL     1     -14.112   8.783  71.971  1.00  0.00    -0.508 C  
BRANCH   3   4
HETATM    4  C   UNL     1     -12.716   9.319  71.650  1.00  0.00    -0.442 C  
BRANCH   4   5
HETATM    5  C   UNL     1     -12.745  10.448  70.619  1.00  0.00    -0.417 C  
BRANCH   5   6
HETATM    6  C   UNL     1     -11.344  10.952  70.230  1.00  0.00    -0.256 C  
HETATM    7  O   UNL     1     -11.460  12.349  69.971  1.00  0.00    -0.506 OA 
HETATM    8  H   UNL     1     -10.595  12.660  69.731  1.00  0.00     0.000 HD 
BRANCH   6   9
HETATM    9  C   UNL     1     -10.765  10.230  69.031  1.00  0.00    -0.257 C  
HETATM   10  C   UNL     1     -10.597  10.731  67.795  1.00  0.00    -0.266 C  
BRANCH  10  11
HETATM   11  C   UNL     1     -10.191   9.923  66.578  1.00  0.00    -0.292 C  
HETATM   12  C   UNL     1     -10.027  10.864  65.365  1.00  0.00    -0.263 C  
HETATM   13  O   UNL     1     -11.278  11.210  64.787  1.00  0.00    -0.146 OA 
HETATM   14  C   UNL     1      -9.172  10.104  64.373  1.00  0.00    -0.306 C  
HETATM   15  H   UNL     1     -11.177  11.789  64.040  1.00  0.00     0.000 HD 
HETATM   16  C   UNL     1      -8.274   9.336  65.291  1.00  0.00    -0.134 C  
HETATM   17  O   UNL     1      -7.206   8.866  64.914  1.00  0.00    -0.089 OA 
HETATM   18  C   UNL     1      -8.838   9.183  66.696  1.00  0.00    -0.147 C  
BRANCH  18  19
HETATM   19  C   UNL     1      -9.046   7.704  67.059  1.00  0.00    -0.157 C  
BRANCH  19  20
HETATM   20  C   UNL     1      -7.964   6.783  66.557  1.00  0.00    -0.105 C  
HETATM   21  C   UNL     1      -7.829   5.468  66.788  1.00  0.00    -0.101 C  
BRANCH  21  22
HETATM   22  C   UNL     1      -8.734   4.624  67.633  1.00  0.00    -0.108 C  
BRANCH  22  23
HETATM   23  C   UNL     1      -8.295   4.572  69.095  1.00  0.00    -0.086 C  
BRANCH  23  24
HETATM   24  C   UNL     1      -8.817   5.808  69.830  1.00  0.00    -0.130 C  
HETATM   25  C   UNL     1      -7.973   6.173  71.025  1.00  0.00    -0.116 C  
HETATM   26  O   UNL     1      -6.978   5.577  71.399  1.00  0.00    -0.062 OA 
HETATM   27  O   UNL     1      -8.449   7.270  71.661  1.00  0.00    -0.112 OA 
ENDBRANCH  23  24
ENDBRANCH  22  23
ENDBRANCH  21  22
ENDBRANCH  19  20
ENDBRANCH  18  19
ENDBRANCH  10  11
ENDBRANCH   6   9
ENDBRANCH   5   6
ENDBRANCH   4   5
ENDBRANCH   3   4
ENDBRANCH   2   3
TORSDOF 11
ENDMDL
MODEL      352
REMARK 921   NORMALIZED FREE ENERGY PREDICTED BY IDOCK:   -2.27 KCAL/MOL
REMARK 922        TOTAL FREE ENERGY PREDICTED BY IDOCK:   -5.55 KCAL/MOL
REMARK 923 INTER-LIGAND FREE ENERGY PREDICTED BY IDOCK:   -4.74 KCAL/MOL
REMARK 924 INTRA-LIGAND FREE ENERGY PREDICTED BY IDOCK:   -0.81 KCAL/MOL
REMARK 927      BINDING AFFINITY PREDICTED BY RF-SCORE:    0.00 PKD
ROOT
HETATM    1  C   UNL     1      -9.301   3.157  68.397  1.00  0.00    -0.244 C  
HETATM    2  C   UNL     1     -10.031   4.080  67.438  1.00  0.00    -0.013 C  
ENDROOT
BRANCH   2   3
HETATM    3  C   UNL     1      -9.095   5.114  66.810  1.00  0.00    -0.118 C  
BRANCH   3   4
HETATM    4  C   UNL     1      -7.831   5.266  67.659  1.00  0.00    -0.096 C  
BRANCH   4   5
HETATM    5  C   UNL     1      -6.906   6.368  67.141  1.00  0.00    -0.066 C  
BRANCH   5   6
HETATM    6  C   UNL     1      -7.494   7.143  65.949  1.00  0.00    -0.080 C  
HETATM    7  O   UNL     1      -6.503   7.148  64.925  1.00  0.00    -0.036 OA 
HETATM    8  H   UNL     1      -6.866   7.626  64.189  1.00  0.00     0.000 HD 
BRANCH   6   9
HETATM    9  C   UNL     1      -7.905   8.557  66.305  1.00  0.00    -0.098 C  
HETATM   10  C   UNL     1      -7.848   9.128  67.521  1.00  0.00    -0.100 C  
BRANCH  10  11
HETATM   11  C   UNL     1      -8.441  10.478  67.875  1.00  0.00    -0.119 C  
HETATM   12  C   UNL     1      -7.508  11.208  68.865  1.00  0.00    -0.125 C  
HETATM   13  O   UNL     1      -7.663  10.729  70.193  1.00  0.00    -0.399 OA 
HETATM   14  C   UNL     1      -7.885  12.671  68.776  1.00  0.00     0.039 C  
HETATM   15  H   UNL     1      -7.089  11.179  70.802  1.00  0.00     0.000 HD 
HETATM   16  C   UNL     1      -8.255  12.790  67.331  1.00  0.00    -0.186 C  
HETATM   17  O   UNL     1      -8.284  13.871  66.753  1.00  0.00    -0.023 OA 
HETATM   18  C   UNL     1      -8.612  11.457  66.689  1.00  0.00    -0.170 C  
BRANCH  18  19
HETATM   19  C   UNL     1     -10.059  11.453  66.172  1.00  0.00    -0.271 C  
BRANCH  19  20
HETATM   20  C   UNL     1     -10.492  12.745  65.527  1.00  0.00    -0.306 C  
HETATM   21  C   UNL     1     -11.342  13.662  66.012  1.00  0.00    -0.322 C  
BRANCH  21  22
HETATM   22  C   UNL     1     -12.076  13.582  67.316  1.00  0.00    -0.367 C  
BRANCH  22  23
HETATM   23  C   UNL     1     -11.454  14.464  68.397  1.00  0.00    -0.329 C  
BRANCH  23  24
HETATM   24  C   UNL     1     -11.721  13.852  69.773  1.00  0.00    -0.372 C  
HETATM   25  C   UNL     1     -12.690  14.665  70.592  1.00  0.00    -0.357 C  
HETATM   26  O   UNL     1     -13.223  15.703  70.237  1.00  0.00    -0.267 OA 
HETATM   27  O   UNL     1     -12.916  14.108  71.806  1.00  0.00    -0.316 OA 
ENDBRANCH  23  24
ENDBRANCH  22  23
ENDBRANCH  21  22
ENDBRANCH  19  20
ENDBRANCH  18  19
ENDBRANCH  10  11
ENDBRANCH   6   9
ENDBRANCH   5   6
ENDBRANCH   4   5
ENDBRANCH   3   4
ENDBRANCH   2   3
TORSDOF 11
ENDMDL
MODEL      353
REMARK 921   NORMALIZED FREE ENERGY PREDICTED BY IDOCK:   -1.99 KCAL/MOL
REMARK 922        TOTAL FREE ENERGY PREDICTED BY IDOCK:   -5.08 KCAL/MOL
REMARK 923 INTER-LIGAND FREE ENERGY PREDICTED BY IDOCK:   -3.95 KCAL/MOL
REMARK 924 INTRA-LIGAND FREE ENERGY PREDICTED BY IDOCK:   -1.14 KCAL/MOL
REMARK 927      BINDING AFFINITY PREDICTED BY RF-SCORE:    0.00 PKD
ROOT
HETATM    1  C   UNL     1      -8.166   7.968  74.390  1.00  0.00    -0.284 C  
HETATM    2  C   UNL     1      -8.613   6.546  74.103  1.00  0.00    -0.148 C  
ENDROOT
BRANCH   2   3
HETATM    3  C   UNL     1      -7.757   5.882  73.022  1.00  0.00    -0.103 C  
BRANCH   3   4
HETATM    4  C   UNL     1      -8.508   5.868  71.690  1.00  0.00    -0.128 C  
BRANCH   4   5
HETATM    5  C   UNL     1      -8.075   7.003  70.761  1.00  0.00    -0.113 C  
BRANCH   5   6
HETATM    6  C   UNL     1      -9.219   7.971  70.410  1.00  0.00    -0.155 C  
HETATM    7  O   UNL     1     -10.438   7.253  70.577  1.00  0.00    -0.212 OA 
HETATM    8  H   UNL     1     -11.144   7.850  70.360  1.00  0.00     0.000 HD 
BRANCH   6   9
HETATM    9  C   UNL     1      -9.113   8.531  69.007  1.00  0.00    -0.146 C  
HETATM   10  C   UNL     1      -8.159   9.356  68.540  1.00  0.00    -0.105 C  
BRANCH  10  11
HETATM   11  C   UNL     1      -8.190  10.042  67.189  1.00  0.00    -0.117 C  
HETATM   12  C   UNL     1      -6.795   9.953  66.532  1.00  0.00    -0.085 C  
HETATM   13  O   UNL     1      -5.895  10.915  67.063  1.00  0.00    -0.052 OA 
HETATM   14  C   UNL     1      -7.024  10.191  65.055  1.00  0.00    -0.135 C  
HETATM   15  H   UNL     1      -5.037  10.860  66.659  1.00  0.00     0.000 HD 
HETATM   16  C   UNL     1      -8.366   9.559  64.862  1.00  0.00    -0.146 C  
HETATM   17  O   UNL     1      -8.771   9.217  63.757  1.00  0.00    -0.209 OA 
HETATM   18  C   UNL     1      -9.160   9.423  66.154  1.00  0.00    -0.214 C  
BRANCH  18  19
HETATM   19  C   UNL     1     -10.477  10.212  66.089  1.00  0.00    -0.173 C  
BRANCH  19  20
HETATM   20  C   UNL     1     -10.377  11.528  65.361  1.00  0.00    -0.322 C  
HETATM   21  C   UNL     1     -11.202  12.583  65.451  1.00  0.00    -0.343 C  
BRANCH  21  22
HETATM   22  C   UNL     1     -12.437  12.666  66.295  1.00  0.00     0.210 C  
BRANCH  22  23
HETATM   23  C   UNL     1     -12.483  13.933  67.147  1.00  0.00    -0.084 C  
BRANCH  23  24
HETATM   24  C   UNL     1     -11.668  15.036  66.469  1.00  0.00    -0.126 C  
HETATM   25  C   UNL     1     -10.561  15.563  67.346  1.00  0.00    -0.292 C  
HETATM   26  O   UNL     1     -10.309  15.182  68.476  1.00  0.00    -0.221 OA 
HETATM   27  O   UNL     1      -9.849  16.536  66.728  1.00  0.00    -0.246 OA 
ENDBRANCH  23  24
ENDBRANCH  22  23
ENDBRANCH  21  22
ENDBRANCH  19  20
ENDBRANCH  18  19
ENDBRANCH  10  11
ENDBRANCH   6   9
ENDBRANCH   5   6
ENDBRANCH   4   5
ENDBRANCH   3   4
ENDBRANCH   2   3
TORSDOF 11
ENDMDL
MODEL      354
REMARK 921   NORMALIZED FREE ENERGY PREDICTED BY IDOCK:   -1.94 KCAL/MOL
REMARK 922        TOTAL FREE ENERGY PREDICTED BY IDOCK:   -5.01 KCAL/MOL
REMARK 923 INTER-LIGAND FREE ENERGY PREDICTED BY IDOCK:   -3.38 KCAL/MOL
REMARK 924 INTRA-LIGAND FREE ENERGY PREDICTED BY IDOCK:   -1.63 KCAL/MOL
REMARK 927      BINDING AFFINITY PREDICTED BY RF-SCORE:    0.00 PKD
ROOT
HETATM    1  C   UNL     1      -9.613  11.704  67.268  1.00  0.00    -0.182 C  
HETATM    2  C   UNL     1      -8.735  10.593  67.814  1.00  0.00    -0.129 C  
ENDROOT
BRANCH   2   3
HETATM    3  C   UNL     1      -9.288  10.010  69.116  1.00  0.00    -0.200 C  
BRANCH   3   4
HETATM    4  C   UNL     1      -9.950   8.657  68.849  1.00  0.00    -0.197 C  
BRANCH   4   5
HETATM    5  C   UNL     1     -11.384   8.593  69.375  1.00  0.00     0.325 C  
BRANCH   5   6
HETATM    6  C   UNL     1     -11.467   8.259  70.875  1.00  0.00    -0.274 C  
HETATM    7  O   UNL     1     -11.422   9.496  71.581  1.00  0.00    -0.381 OA 
HETATM    8  H   UNL     1     -11.473   9.290  72.506  1.00  0.00     0.000 HD 
BRANCH   6   9
HETATM    9  C   UNL     1     -10.358   7.336  71.340  1.00  0.00    -0.212 C  
HETATM   10  C   UNL     1     -10.495   6.073  71.780  1.00  0.00    -0.268 C  
BRANCH  10  11
HETATM   11  C   UNL     1      -9.390   5.249  72.410  1.00  0.00    -0.157 C  
HETATM   12  C   UNL     1      -9.485   5.350  73.948  1.00  0.00    -0.138 C  
HETATM   13  O   UNL     1      -8.934   6.566  74.436  1.00  0.00    -0.146 OA 
HETATM   14  C   UNL     1      -8.715   4.162  74.483  1.00  0.00    -0.094 C  
HETATM   15  H   UNL     1      -8.992   6.628  75.382  1.00  0.00     0.000 HD 
HETATM   16  C   UNL     1      -9.002   3.133  73.436  1.00  0.00    -0.086 C  
HETATM   17  O   UNL     1      -8.867   1.933  73.646  1.00  0.00    -0.061 OA 
HETATM   18  C   UNL     1      -9.438   3.733  72.106  1.00  0.00    -0.194 C  
BRANCH  18  19
HETATM   19  C   UNL     1      -8.463   3.364  70.977  1.00  0.00    -0.098 C  
BRANCH  19  20
HETATM   20  C   UNL     1      -7.439   4.427  70.669  1.00  0.00    -0.052 C  
HETATM   21  C   UNL     1      -7.103   4.923  69.468  1.00  0.00    -0.055 C  
BRANCH  21  22
HETATM   22  C   UNL     1      -7.669   4.496  68.149  1.00  0.00    -0.080 C  
BRANCH  22  23
HETATM   23  C   UNL     1      -8.443   5.614  67.452  1.00  0.00    -0.106 C  
BRANCH  23  24
HETATM   24  C   UNL     1      -8.327   5.448  65.936  1.00  0.00    -0.123 C  
HETATM   25  C   UNL     1      -9.439   4.612  65.356  1.00  0.00    -0.171 C  
HETATM   26  O   UNL     1     -10.349   4.104  65.988  1.00  0.00    -0.155 OA 
HETATM   27  O   UNL     1      -9.322   4.479  64.013  1.00  0.00    -0.145 OA 
ENDBRANCH  23  24
ENDBRANCH  22  23
ENDBRANCH  21  22
ENDBRANCH  19  20
ENDBRANCH  18  19
ENDBRANCH  10  11
ENDBRANCH   6   9
ENDBRANCH   5   6
ENDBRANCH   4   5
ENDBRANCH   3   4
ENDBRANCH   2   3
TORSDOF 11
ENDMDL
MODEL      355
REMARK 921   NORMALIZED FREE ENERGY PREDICTED BY IDOCK:   -1.88 KCAL/MOL
REMARK 922        TOTAL FREE ENERGY PREDICTED BY IDOCK:   -4.91 KCAL/MOL
REMARK 923 INTER-LIGAND FREE ENERGY PREDICTED BY IDOCK:   -3.74 KCAL/MOL
REMARK 924 INTRA-LIGAND FREE ENERGY PREDICTED BY IDOCK:   -1.16 KCAL/MOL
REMARK 927      BINDING AFFINITY PREDICTED BY RF-SCORE:    0.00 PKD
ROOT
HETATM    1  C   UNL     1     -11.820  14.525  67.202  1.00  0.00    -0.412 C  
HETATM    2  C   UNL     1     -10.837  15.671  67.050  1.00  0.00    -0.294 C  
ENDROOT
BRANCH   2   3
HETATM    3  C   UNL     1      -9.680  15.316  66.114  1.00  0.00    -0.343 C  
BRANCH   3   4
HETATM    4  C   UNL     1      -8.346  15.458  66.847  1.00  0.00    -0.290 C  
BRANCH   4   5
HETATM    5  C   UNL     1      -8.233  14.514  68.045  1.00  0.00    -0.145 C  
BRANCH   5   6
HETATM    6  C   UNL     1      -7.181  13.408  67.850  1.00  0.00    -0.133 C  
HETATM    7  O   UNL     1      -6.122  13.970  67.080  1.00  0.00    -0.342 OA 
HETATM    8  H   UNL     1      -5.473  13.288  66.960  1.00  0.00     0.000 HD 
BRANCH   6   9
HETATM    9  C   UNL     1      -7.739  12.172  67.173  1.00  0.00    -0.151 C  
HETATM   10  C   UNL     1      -7.075  11.034  66.905  1.00  0.00    -0.125 C  
BRANCH  10  11
HETATM   11  C   UNL     1      -7.613   9.895  66.061  1.00  0.00    -0.106 C  
HETATM   12  C   UNL     1      -7.073  10.021  64.620  1.00  0.00    -0.140 C  
HETATM   13  O   UNL     1      -7.788  10.991  63.867  1.00  0.00    -0.290 OA 
HETATM   14  C   UNL     1      -7.227   8.646  64.005  1.00  0.00    -0.092 C  
HETATM   15  H   UNL     1      -7.456  11.068  62.980  1.00  0.00     0.000 HD 
HETATM   16  C   UNL     1      -6.983   7.768  65.191  1.00  0.00    -0.059 C  
HETATM   17  O   UNL     1      -6.667   6.589  65.074  1.00  0.00    -0.041 OA 
HETATM   18  C   UNL     1      -7.197   8.477  66.521  1.00  0.00    -0.080 C  
BRANCH  18  19
HETATM   19  C   UNL     1      -8.315   7.811  67.338  1.00  0.00    -0.123 C  
BRANCH  19  20
HETATM   20  C   UNL     1      -7.825   6.927  68.456  1.00  0.00    -0.118 C  
HETATM   21  C   UNL     1      -7.509   7.285  69.710  1.00  0.00    -0.093 C  
BRANCH  21  22
HETATM   22  C   UNL     1      -7.554   8.674  70.268  1.00  0.00    -0.074 C  
BRANCH  22  23
HETATM   23  C   UNL     1      -8.903   9.011  70.900  1.00  0.00    -0.294 C  
BRANCH  23  24
HETATM   24  C   UNL     1     -10.011   8.845  69.859  1.00  0.00    -0.197 C  
HETATM   25  C   UNL     1     -10.869  10.077  69.720  1.00  0.00    -0.273 C  
HETATM   26  O   UNL     1     -10.731  11.111  70.350  1.00  0.00     0.287 OA 
HETATM   27  O   UNL     1     -11.842   9.912  68.793  1.00  0.00     0.184 OA 
ENDBRANCH  23  24
ENDBRANCH  22  23
ENDBRANCH  21  22
ENDBRANCH  19  20
ENDBRANCH  18  19
ENDBRANCH  10  11
ENDBRANCH   6   9
ENDBRANCH   5   6
ENDBRANCH   4   5
ENDBRANCH   3   4
ENDBRANCH   2   3
TORSDOF 11
ENDMDL
MODEL      356
REMARK 921   NORMALIZED FREE ENERGY PREDICTED BY IDOCK:   -1.82 KCAL/MOL
REMARK 922        TOTAL FREE ENERGY PREDICTED BY IDOCK:   -4.81 KCAL/MOL
REMARK 923 INTER-LIGAND FREE ENERGY PREDICTED BY IDOCK:   -3.80 KCAL/MOL
REMARK 924 INTRA-LIGAND FREE ENERGY PREDICTED BY IDOCK:   -1.01 KCAL/MOL
REMARK 927      BINDING AFFINITY PREDICTED BY RF-SCORE:    0.00 PKD
ROOT
HETATM    1  C   UNL     1      -7.854  20.202  69.667  1.00  0.00     0.525 C  
HETATM    2  C   UNL     1      -8.083  19.027  68.734  1.00  0.00    -0.372 C  
ENDROOT
BRANCH   2   3
HETATM    3  C   UNL     1      -9.527  18.526  68.784  1.00  0.00    -0.334 C  
BRANCH   3   4
HETATM    4  C   UNL     1      -9.685  17.286  67.902  1.00  0.00    -0.273 C  
BRANCH   4   5
HETATM    5  C   UNL     1     -10.228  16.083  68.675  1.00  0.00    -0.231 C  
BRANCH   5   6
HETATM    6  C   UNL     1      -9.165  15.004  68.945  1.00  0.00    -0.206 C  
HETATM    7  O   UNL     1      -7.908  15.670  69.034  1.00  0.00    -0.169 OA 
HETATM    8  H   UNL     1      -7.252  15.004  69.201  1.00  0.00     0.000 HD 
BRANCH   6   9
HETATM    9  C   UNL     1      -9.128  13.927  67.880  1.00  0.00    -0.194 C  
HETATM   10  C   UNL     1     -10.177  13.240  67.395  1.00  0.00    -0.229 C  
BRANCH  10  11
HETATM   11  C   UNL     1     -10.078  12.044  66.469  1.00  0.00    -0.224 C  
HETATM   12  C   UNL     1     -10.568  12.441  65.059  1.00  0.00    -0.298 C  
HETATM   13  O   UNL     1     -11.987  12.460  64.975  1.00  0.00    -0.390 OA 
HETATM   14  C   UNL     1      -9.990  11.405  64.120  1.00  0.00    -0.335 C  
HETATM   15  H   UNL     1     -12.288  12.704  64.108  1.00  0.00     0.000 HD 
HETATM   16  C   UNL     1      -8.680  11.112  64.779  1.00  0.00     0.118 C  
HETATM   17  O   UNL     1      -7.747  10.595  64.175  1.00  0.00    -0.009 OA 
HETATM   18  C   UNL     1      -8.650  11.490  66.254  1.00  0.00    -0.133 C  
BRANCH  18  19
HETATM   19  C   UNL     1      -8.393  10.263  67.143  1.00  0.00    -0.122 C  
BRANCH  19  20
HETATM   20  C   UNL     1      -7.271  10.437  68.134  1.00  0.00    -0.087 C  
HETATM   21  C   UNL     1      -7.320  10.288  69.467  1.00  0.00    -0.132 C  
BRANCH  21  22
HETATM   22  C   UNL     1      -8.533   9.933  70.270  1.00  0.00    -0.074 C  
BRANCH  22  23
HETATM   23  C   UNL     1      -9.286   8.732  69.699  1.00  0.00    -0.150 C  
BRANCH  23  24
HETATM   24  C   UNL     1      -9.045   7.510  70.586  1.00  0.00    -0.155 C  
HETATM   25  C   UNL     1      -8.181   6.470  69.920  1.00  0.00    -0.126 C  
HETATM   26  O   UNL     1      -7.707   6.553  68.800  1.00  0.00    -0.104 OA 
HETATM   27  O   UNL     1      -7.977   5.396  70.720  1.00  0.00    -0.094 OA 
ENDBRANCH  23  24
ENDBRANCH  22  23
ENDBRANCH  21  22
ENDBRANCH  19  20
ENDBRANCH  18  19
ENDBRANCH  10  11
ENDBRANCH   6   9
ENDBRANCH   5   6
ENDBRANCH   4   5
ENDBRANCH   3   4
ENDBRANCH   2   3
TORSDOF 11
ENDMDL
MODEL      357
REMARK 921   NORMALIZED FREE ENERGY PREDICTED BY IDOCK:   -1.79 KCAL/MOL
REMARK 922        TOTAL FREE ENERGY PREDICTED BY IDOCK:   -4.76 KCAL/MOL
REMARK 923 INTER-LIGAND FREE ENERGY PREDICTED BY IDOCK:   -3.37 KCAL/MOL
REMARK 924 INTRA-LIGAND FREE ENERGY PREDICTED BY IDOCK:   -1.40 KCAL/MOL
REMARK 927      BINDING AFFINITY PREDICTED BY RF-SCORE:    0.00 PKD
ROOT
HETATM    1  C   UNL     1      -7.654   8.461  74.387  1.00  0.00    -0.260 C  
HETATM    2  C   UNL     1      -7.897   6.965  74.457  1.00  0.00    -0.141 C  
ENDROOT
BRANCH   2   3
HETATM    3  C   UNL     1      -7.163   6.211  73.347  1.00  0.00    -0.088 C  
BRANCH   3   4
HETATM    4  C   UNL     1      -8.162   5.687  72.314  1.00  0.00    -0.108 C  
BRANCH   4   5
HETATM    5  C   UNL     1      -7.900   6.239  70.913  1.00  0.00    -0.107 C  
BRANCH   5   6
HETATM    6  C   UNL     1      -8.885   7.347  70.501  1.00  0.00    -0.148 C  
HETATM    7  O   UNL     1     -10.098   7.111  71.211  1.00  0.00    -0.190 OA 
HETATM    8  H   UNL     1     -10.706   7.795  70.958  1.00  0.00     0.000 HD 
BRANCH   6   9
HETATM    9  C   UNL     1      -9.137   7.393  69.008  1.00  0.00    -0.133 C  
HETATM   10  C   UNL     1      -8.231   7.644  68.047  1.00  0.00    -0.124 C  
BRANCH  10  11
HETATM   11  C   UNL     1      -8.557   7.867  66.584  1.00  0.00    -0.138 C  
HETATM   12  C   UNL     1      -9.247   9.237  66.411  1.00  0.00    -0.180 C  
HETATM   13  O   UNL     1     -10.622   9.188  66.768  1.00  0.00    -0.227 OA 
HETATM   14  C   UNL     1      -9.087   9.593  64.949  1.00  0.00    -0.284 C  
HETATM   15  H   UNL     1     -11.047  10.032  66.662  1.00  0.00     0.000 HD 
HETATM   16  C   UNL     1      -7.747   8.999  64.649  1.00  0.00    -0.115 C  
HETATM   17  O   UNL     1      -7.078   9.353  63.686  1.00  0.00    -0.097 OA 
HETATM   18  C   UNL     1      -7.337   7.911  65.633  1.00  0.00    -0.079 C  
BRANCH  18  19
HETATM   19  C   UNL     1      -7.138   6.561  64.926  1.00  0.00    -0.057 C  
BRANCH  19  20
HETATM   20  C   UNL     1      -8.240   6.194  63.966  1.00  0.00    -0.020 C  
HETATM   21  C   UNL     1      -8.741   4.974  63.715  1.00  0.00    -0.075 C  
BRANCH  21  22
HETATM   22  C   UNL     1      -8.282   3.689  64.332  1.00  0.00    -0.090 C  
BRANCH  22  23
HETATM   23  C   UNL     1      -9.372   3.012  65.162  1.00  0.00    -0.133 C  
BRANCH  23  24
HETATM   24  C   UNL     1      -9.799   3.940  66.300  1.00  0.00    -0.131 C  
HETATM   25  C   UNL     1      -9.339   3.453  67.650  1.00  0.00    -0.199 C  
HETATM   26  O   UNL     1      -8.699   2.437  67.857  1.00  0.00    -0.089 OA 
HETATM   27  O   UNL     1      -9.724   4.288  68.645  1.00  0.00    -0.156 OA 
ENDBRANCH  23  24
ENDBRANCH  22  23
ENDBRANCH  21  22
ENDBRANCH  19  20
ENDBRANCH  18  19
ENDBRANCH  10  11
ENDBRANCH   6   9
ENDBRANCH   5   6
ENDBRANCH   4   5
ENDBRANCH   3   4
ENDBRANCH   2   3
TORSDOF 11
ENDMDL
MODEL      358
REMARK 921   NORMALIZED FREE ENERGY PREDICTED BY IDOCK:   -1.60 KCAL/MOL
REMARK 922        TOTAL FREE ENERGY PREDICTED BY IDOCK:   -4.44 KCAL/MOL
REMARK 923 INTER-LIGAND FREE ENERGY PREDICTED BY IDOCK:   -3.21 KCAL/MOL
REMARK 924 INTRA-LIGAND FREE ENERGY PREDICTED BY IDOCK:   -1.23 KCAL/MOL
REMARK 927      BINDING AFFINITY PREDICTED BY RF-SCORE:    0.00 PKD
ROOT
HETATM    1  C   UNL     1      -9.267  11.514  67.555  1.00  0.00    -0.166 C  
HETATM    2  C   UNL     1     -10.731  11.821  67.301  1.00  0.00    -0.279 C  
ENDROOT
BRANCH   2   3
HETATM    3  C   UNL     1     -11.241  11.168  66.015  1.00  0.00    -0.036 C  
BRANCH   3   4
HETATM    4  C   UNL     1     -10.659  11.882  64.794  1.00  0.00    -0.346 C  
BRANCH   4   5
HETATM    5  C   UNL     1      -9.975  10.919  63.823  1.00  0.00    -0.408 C  
BRANCH   5   6
HETATM    6  C   UNL     1      -8.554  10.522  64.260  1.00  0.00    -0.152 C  
HETATM    7  O   UNL     1      -7.669  10.925  63.219  1.00  0.00    -0.359 OA 
HETATM    8  H   UNL     1      -6.793  10.680  63.489  1.00  0.00     0.000 HD 
BRANCH   6   9
HETATM    9  C   UNL     1      -8.413   9.040  64.541  1.00  0.00    -0.191 C  
HETATM   10  C   UNL     1      -9.323   8.242  65.128  1.00  0.00     0.467 C  
BRANCH  10  11
HETATM   11  C   UNL     1      -9.072   6.811  65.561  1.00  0.00     0.174 C  
HETATM   12  C   UNL     1      -8.431   6.025  64.396  1.00  0.00     0.051 C  
HETATM   13  O   UNL     1      -9.395   5.624  63.432  1.00  0.00    -0.009 OA 
HETATM   14  C   UNL     1      -7.776   4.818  65.032  1.00  0.00    -0.078 C  
HETATM   15  H   UNL     1      -9.000   5.140  62.715  1.00  0.00     0.000 HD 
HETATM   16  C   UNL     1      -7.332   5.383  66.344  1.00  0.00    -0.082 C  
HETATM   17  O   UNL     1      -6.459   4.852  67.020  1.00  0.00    -0.042 OA 
HETATM   18  C   UNL     1      -8.092   6.640  66.746  1.00  0.00    -0.113 C  
BRANCH  18  19
HETATM   19  C   UNL     1      -8.852   6.437  68.066  1.00  0.00    -0.113 C  
BRANCH  19  20
HETATM   20  C   UNL     1      -8.008   5.894  69.191  1.00  0.00    -0.099 C  
HETATM   21  C   UNL     1      -7.671   6.505  70.337  1.00  0.00    -0.098 C  
BRANCH  21  22
HETATM   22  C   UNL     1      -8.050   7.898  70.737  1.00  0.00    -0.101 C  
BRANCH  22  23
HETATM   23  C   UNL     1      -8.937   7.931  71.981  1.00  0.00    -0.189 C  
BRANCH  23  24
HETATM   24  C   UNL     1     -10.184   7.079  71.742  1.00  0.00    -0.209 C  
HETATM   25  C   UNL     1     -11.207   7.775  70.881  1.00  0.00    -0.271 C  
HETATM   26  O   UNL     1     -11.094   8.893  70.408  1.00  0.00    -0.240 OA 
HETATM   27  O   UNL     1     -12.303   7.005  70.679  1.00  0.00    -0.319 OA 
ENDBRANCH  23  24
ENDBRANCH  22  23
ENDBRANCH  21  22
ENDBRANCH  19  20
ENDBRANCH  18  19
ENDBRANCH  10  11
ENDBRANCH   6   9
ENDBRANCH   5   6
ENDBRANCH   4   5
ENDBRANCH   3   4
ENDBRANCH   2   3
TORSDOF 11
ENDMDL
MODEL      359
REMARK 921   NORMALIZED FREE ENERGY PREDICTED BY IDOCK:   -1.56 KCAL/MOL
REMARK 922        TOTAL FREE ENERGY PREDICTED BY IDOCK:   -4.38 KCAL/MOL
REMARK 923 INTER-LIGAND FREE ENERGY PREDICTED BY IDOCK:   -4.81 KCAL/MOL
REMARK 924 INTRA-LIGAND FREE ENERGY PREDICTED BY IDOCK:    0.43 KCAL/MOL
REMARK 927      BINDING AFFINITY PREDICTED BY RF-SCORE:    0.00 PKD
ROOT
HETATM    1  C   UNL     1     -12.887   7.306  71.259  1.00  0.00    -0.391 C  
HETATM    2  C   UNL     1     -13.259   8.772  71.377  1.00  0.00    -0.290 C  
ENDROOT
BRANCH   2   3
HETATM    3  C   UNL     1     -12.027   9.669  71.507  1.00  0.00    -0.485 C  
BRANCH   3   4
HETATM    4  C   UNL     1     -10.883   9.120  70.653  1.00  0.00    -0.321 C  
BRANCH   4   5
HETATM    5  C   UNL     1     -10.829   9.760  69.265  1.00  0.00    -0.240 C  
BRANCH   5   6
HETATM    6  C   UNL     1      -9.514   9.477  68.516  1.00  0.00    -0.141 C  
HETATM    7  O   UNL     1      -8.840   8.447  69.233  1.00  0.00    -0.140 OA 
HETATM    8  H   UNL     1      -8.029   8.272  68.771  1.00  0.00     0.000 HD 
BRANCH   6   9
HETATM    9  C   UNL     1      -8.633  10.702  68.381  1.00  0.00    -0.134 C  
HETATM   10  C   UNL     1      -8.192  11.489  69.378  1.00  0.00     0.451 C  
BRANCH  10  11
HETATM   11  C   UNL     1      -7.471  12.808  69.187  1.00  0.00     0.200 C  
HETATM   12  C   UNL     1      -6.122  12.562  68.477  1.00  0.00    -0.061 C  
HETATM   13  O   UNL     1      -5.129  12.083  69.374  1.00  0.00    -0.059 OA 
HETATM   14  C   UNL     1      -5.718  13.898  67.894  1.00  0.00    -0.116 C  
HETATM   15  H   UNL     1      -4.299  11.932  68.937  1.00  0.00     0.000 HD 
HETATM   16  C   UNL     1      -7.051  14.477  67.538  1.00  0.00    -0.175 C  
HETATM   17  O   UNL     1      -7.170  15.388  66.727  1.00  0.00    -0.137 OA 
HETATM   18  C   UNL     1      -8.205  13.843  68.302  1.00  0.00    -0.158 C  
BRANCH  18  19
HETATM   19  C   UNL     1      -8.946  14.879  69.161  1.00  0.00    -0.140 C  
BRANCH  19  20
HETATM   20  C   UNL     1      -8.469  16.297  68.972  1.00  0.00    -0.244 C  
HETATM   21  C   UNL     1      -9.017  17.255  68.208  1.00  0.00    -0.262 C  
BRANCH  21  22
HETATM   22  C   UNL     1     -10.230  17.106  67.343  1.00  0.00    -0.321 C  
BRANCH  22  23
HETATM   23  C   UNL     1     -10.878  15.728  67.471  1.00  0.00    -0.315 C  
BRANCH  23  24
HETATM   24  C   UNL     1     -11.037  15.107  66.082  1.00  0.00    -0.311 C  
HETATM   25  C   UNL     1     -11.825  13.823  66.107  1.00  0.00    -0.398 C  
HETATM   26  O   UNL     1     -12.300  13.300  67.101  1.00  0.00    -0.280 OA 
HETATM   27  O   UNL     1     -11.957  13.289  64.869  1.00  0.00    -0.344 OA 
ENDBRANCH  23  24
ENDBRANCH  22  23
ENDBRANCH  21  22
ENDBRANCH  19  20
ENDBRANCH  18  19
ENDBRANCH  10  11
ENDBRANCH   6   9
ENDBRANCH   5   6
ENDBRANCH   4   5
ENDBRANCH   3   4
ENDBRANCH   2   3
TORSDOF 11
ENDMDL
MODEL      360
REMARK 921   NORMALIZED FREE ENERGY PREDICTED BY IDOCK:   -1.43 KCAL/MOL
REMARK 922        TOTAL FREE ENERGY PREDICTED BY IDOCK:   -4.17 KCAL/MOL
REMARK 923 INTER-LIGAND FREE ENERGY PREDICTED BY IDOCK:   -3.06 KCAL/MOL
REMARK 924 INTRA-LIGAND FREE ENERGY PREDICTED BY IDOCK:   -1.11 KCAL/MOL
REMARK 927      BINDING AFFINITY PREDICTED BY RF-SCORE:    0.00 PKD
ROOT
HETATM    1  C   UNL     1     -11.068  10.984  68.833  1.00  0.00    -0.295 C  
HETATM    2  C   UNL     1     -10.081   9.834  68.913  1.00  0.00    -0.194 C  
ENDROOT
BRANCH   2   3
HETATM    3  C   UNL     1     -10.350   8.928  70.116  1.00  0.00    -0.228 C  
BRANCH   3   4
HETATM    4  C   UNL     1     -11.101   7.672  69.672  1.00  0.00    -0.074 C  
BRANCH   4   5
HETATM    5  C   UNL     1     -12.220   7.285  70.641  1.00  0.00    -0.186 C  
BRANCH   5   6
HETATM    6  C   UNL     1     -11.711   6.957  72.056  1.00  0.00    -0.300 C  
HETATM    7  O   UNL     1     -11.890   8.129  72.846  1.00  0.00    -0.559 OA 
HETATM    8  H   UNL     1     -11.576   7.926  73.719  1.00  0.00     0.000 HD 
BRANCH   6   9
HETATM    9  C   UNL     1     -10.263   6.511  72.077  1.00  0.00    -0.212 C  
HETATM   10  C   UNL     1      -9.743   5.502  72.797  1.00  0.00    -0.166 C  
BRANCH  10  11
HETATM   11  C   UNL     1      -8.262   5.207  72.935  1.00  0.00    -0.109 C  
HETATM   12  C   UNL     1      -7.738   5.803  74.260  1.00  0.00    -0.094 C  
HETATM   13  O   UNL     1      -7.509   7.201  74.160  1.00  0.00    -0.103 OA 
HETATM   14  C   UNL     1      -6.449   5.068  74.556  1.00  0.00    -0.065 C  
HETATM   15  H   UNL     1      -7.186   7.568  74.976  1.00  0.00     0.000 HD 
HETATM   16  C   UNL     1      -6.757   3.708  74.015  1.00  0.00    -0.044 C  
HETATM   17  O   UNL     1      -6.129   2.713  74.357  1.00  0.00    -0.010 OA 
HETATM   18  C   UNL     1      -7.888   3.707  72.996  1.00  0.00    -0.067 C  
BRANCH  18  19
HETATM   19  C   UNL     1      -7.409   3.201  71.627  1.00  0.00    -0.040 C  
BRANCH  19  20
HETATM   20  C   UNL     1      -6.151   3.862  71.126  1.00  0.00    -0.014 C  
HETATM   21  C   UNL     1      -6.023   4.719  70.101  1.00  0.00    -0.021 C  
BRANCH  21  22
HETATM   22  C   UNL     1      -7.126   5.191  69.204  1.00  0.00    -0.056 C  
BRANCH  22  23
HETATM   23  C   UNL     1      -6.828   4.945  67.726  1.00  0.00    -0.060 C  
BRANCH  23  24
HETATM   24  C   UNL     1      -6.052   3.636  67.572  1.00  0.00    -0.028 C  
HETATM   25  C   UNL     1      -6.719   2.672  66.625  1.00  0.00    -0.040 C  
HETATM   26  O   UNL     1      -7.764   2.872  66.029  1.00  0.00    -0.076 OA 
HETATM   27  O   UNL     1      -6.017   1.521  66.500  1.00  0.00    -0.018 OA 
ENDBRANCH  23  24
ENDBRANCH  22  23
ENDBRANCH  21  22
ENDBRANCH  19  20
ENDBRANCH  18  19
ENDBRANCH  10  11
ENDBRANCH   6   9
ENDBRANCH   5   6
ENDBRANCH   4   5
ENDBRANCH   3   4
ENDBRANCH   2   3
TORSDOF 11
ENDMDL
MODEL      361
REMARK 921   NORMALIZED FREE ENERGY PREDICTED BY IDOCK:   -1.20 KCAL/MOL
REMARK 922        TOTAL FREE ENERGY PREDICTED BY IDOCK:   -3.79 KCAL/MOL
REMARK 923 INTER-LIGAND FREE ENERGY PREDICTED BY IDOCK:   -4.56 KCAL/MOL
REMARK 924 INTRA-LIGAND FREE ENERGY PREDICTED BY IDOCK:    0.77 KCAL/MOL
REMARK 927      BINDING AFFINITY PREDICTED BY RF-SCORE:    0.00 PKD
ROOT
HETATM    1  C   UNL     1     -12.749   7.911  70.947  1.00  0.00     0.032 C  
HETATM    2  C   UNL     1     -13.164   9.338  71.255  1.00  0.00    -0.325 C  
ENDROOT
BRANCH   2   3
HETATM    3  C   UNL     1     -11.959  10.265  71.416  1.00  0.00    -0.419 C  
BRANCH   3   4
HETATM    4  C   UNL     1     -10.862   9.882  70.419  1.00  0.00    -0.380 C  
BRANCH   4   5
HETATM    5  C   UNL     1     -11.052  10.548  69.056  1.00  0.00    -0.300 C  
BRANCH   5   6
HETATM    6  C   UNL     1      -9.948  10.189  68.046  1.00  0.00    -0.148 C  
HETATM    7  O   UNL     1      -9.393   8.944  68.460  1.00  0.00    -0.140 OA 
HETATM    8  H   UNL     1      -8.711   8.722  67.837  1.00  0.00     0.000 HD 
BRANCH   6   9
HETATM    9  C   UNL     1      -8.870  11.249  67.943  1.00  0.00    -0.142 C  
HETATM   10  C   UNL     1      -8.220  11.837  68.963  1.00  0.00     0.150 C  
BRANCH  10  11
HETATM   11  C   UNL     1      -7.286  13.023  68.829  1.00  0.00    -0.064 C  
HETATM   12  C   UNL     1      -6.119  12.657  67.887  1.00  0.00    -0.108 C  
HETATM   13  O   UNL     1      -5.128  11.879  68.544  1.00  0.00    -0.043 OA 
HETATM   14  C   UNL     1      -5.542  13.976  67.421  1.00  0.00     0.330 C  
HETATM   15  H   UNL     1      -4.410  11.654  67.964  1.00  0.00     0.000 HD 
HETATM   16  C   UNL     1      -6.771  14.827  67.360  1.00  0.00    -0.029 C  
HETATM   17  O   UNL     1      -6.816  15.860  66.701  1.00  0.00    -0.204 OA 
HETATM   18  C   UNL     1      -7.915  14.294  68.212  1.00  0.00    -0.140 C  
BRANCH  18  19
HETATM   19  C   UNL     1      -8.316  15.299  69.303  1.00  0.00    -0.243 C  
BRANCH  19  20
HETATM   20  C   UNL     1      -7.695  16.663  69.151  1.00  0.00    -0.186 C  
HETATM   21  C   UNL     1      -8.308  17.818  68.846  1.00  0.00    -0.135 C  
BRANCH  21  22
HETATM   22  C   UNL     1      -9.768  17.992  68.562  1.00  0.00    -0.357 C  
BRANCH  22  23
HETATM   23  C   UNL     1     -10.289  16.997  67.527  1.00  0.00    -0.329 C  
BRANCH  23  24
HETATM   24  C   UNL     1     -10.381  17.680  66.162  1.00  0.00    -0.334 C  
HETATM   25  C   UNL     1     -10.734  19.142  66.266  1.00  0.00    -0.355 C  
HETATM   26  O   UNL     1     -10.935  19.751  67.303  1.00  0.00    -0.414 OA 
HETATM   27  O   UNL     1     -10.809  19.730  65.048  1.00  0.00    -0.280 OA 
ENDBRANCH  23  24
ENDBRANCH  22  23
ENDBRANCH  21  22
ENDBRANCH  19  20
ENDBRANCH  18  19
ENDBRANCH  10  11
ENDBRANCH   6   9
ENDBRANCH   5   6
ENDBRANCH   4   5
ENDBRANCH   3   4
ENDBRANCH   2   3
TORSDOF 11
ENDMDL
MODEL      362
REMARK 921   NORMALIZED FREE ENERGY PREDICTED BY IDOCK:   -0.98 KCAL/MOL
REMARK 922        TOTAL FREE ENERGY PREDICTED BY IDOCK:   -3.42 KCAL/MOL
REMARK 923 INTER-LIGAND FREE ENERGY PREDICTED BY IDOCK:   -4.30 KCAL/MOL
REMARK 924 INTRA-LIGAND FREE ENERGY PREDICTED BY IDOCK:    0.88 KCAL/MOL
REMARK 927      BINDING AFFINITY PREDICTED BY RF-SCORE:    0.00 PKD
ROOT
HETATM    1  C   UNL     1      -9.207  20.366  65.516  1.00  0.00     0.421 C  
HETATM    2  C   UNL     1      -7.734  20.001  65.539  1.00  0.00    -0.066 C  
ENDROOT
BRANCH   2   3
HETATM    3  C   UNL     1      -7.342  19.275  66.827  1.00  0.00    -0.229 C  
BRANCH   3   4
HETATM    4  C   UNL     1      -6.402  20.148  67.659  1.00  0.00    -0.260 C  
BRANCH   4   5
HETATM    5  C   UNL     1      -6.134  19.563  69.046  1.00  0.00    -0.294 C  
BRANCH   5   6
HETATM    6  C   UNL     1      -6.339  18.039  69.112  1.00  0.00    -0.246 C  
HETATM    7  O   UNL     1      -5.129  17.435  68.664  1.00  0.00    -0.138 OA 
HETATM    8  H   UNL     1      -5.256  16.495  68.705  1.00  0.00     0.000 HD 
BRANCH   6   9
HETATM    9  C   UNL     1      -7.516  17.563  68.286  1.00  0.00    -0.237 C  
HETATM   10  C   UNL     1      -8.562  16.837  68.719  1.00  0.00    -0.255 C  
BRANCH  10  11
HETATM   11  C   UNL     1      -9.620  16.222  67.825  1.00  0.00    -0.223 C  
HETATM   12  C   UNL     1     -10.144  17.286  66.837  1.00  0.00    -0.304 C  
HETATM   13  O   UNL     1     -11.084  18.160  67.446  1.00  0.00    -0.211 OA 
HETATM   14  C   UNL     1     -10.786  16.512  65.707  1.00  0.00    -0.137 C  
HETATM   15  H   UNL     1     -11.407  18.815  66.837  1.00  0.00     0.000 HD 
HETATM   16  C   UNL     1      -9.909  15.302  65.646  1.00  0.00    -0.348 C  
HETATM   17  O   UNL     1      -9.856  14.585  64.653  1.00  0.00    -0.102 OA 
HETATM   18  C   UNL     1      -9.138  15.052  66.935  1.00  0.00    -0.269 C  
BRANCH  18  19
HETATM   19  C   UNL     1      -9.506  13.696  67.555  1.00  0.00    -0.222 C  
BRANCH  19  20
HETATM   20  C   UNL     1      -8.495  12.606  67.310  1.00  0.00    -0.193 C  
HETATM   21  C   UNL     1      -7.159  12.682  67.419  1.00  0.00    -0.138 C  
BRANCH  21  22
HETATM   22  C   UNL     1      -6.374  13.902  67.791  1.00  0.00    -0.169 C  
BRANCH  22  23
HETATM   23  C   UNL     1      -5.174  13.580  68.681  1.00  0.00    -0.077 C  
BRANCH  23  24
HETATM   24  C   UNL     1      -5.659  12.935  69.980  1.00  0.00    -0.126 C  
HETATM   25  C   UNL     1      -5.558  11.431  69.955  1.00  0.00    -0.084 C  
HETATM   26  O   UNL     1      -5.144  10.764  69.023  1.00  0.00    -0.042 OA 
HETATM   27  O   UNL     1      -5.990  10.878  71.113  1.00  0.00    -0.351 OA 
ENDBRANCH  23  24
ENDBRANCH  22  23
ENDBRANCH  21  22
ENDBRANCH  19  20
ENDBRANCH  18  19
ENDBRANCH  10  11
ENDBRANCH   6   9
ENDBRANCH   5   6
ENDBRANCH   4   5
ENDBRANCH   3   4
ENDBRANCH   2   3
TORSDOF 11
ENDMDL
MODEL      363
REMARK 921   NORMALIZED FREE ENERGY PREDICTED BY IDOCK:   -0.81 KCAL/MOL
REMARK 922        TOTAL FREE ENERGY PREDICTED BY IDOCK:   -3.15 KCAL/MOL
REMARK 923 INTER-LIGAND FREE ENERGY PREDICTED BY IDOCK:   -4.27 KCAL/MOL
REMARK 924 INTRA-LIGAND FREE ENERGY PREDICTED BY IDOCK:    1.12 KCAL/MOL
REMARK 927      BINDING AFFINITY PREDICTED BY RF-SCORE:    0.00 PKD
ROOT
HETATM    1  C   UNL     1      -8.664   8.695  67.299  1.00  0.00    -0.133 C  
HETATM    2  C   UNL     1      -7.350   8.682  66.539  1.00  0.00    -0.081 C  
ENDROOT
BRANCH   2   3
HETATM    3  C   UNL     1      -6.242   9.418  67.294  1.00  0.00    -0.057 C  
BRANCH   3   4
HETATM    4  C   UNL     1      -5.205   9.963  66.310  1.00  0.00    -0.043 C  
BRANCH   4   5
HETATM    5  C   UNL     1      -5.220  11.490  66.231  1.00  0.00    -0.034 C  
BRANCH   5   6
HETATM    6  C   UNL     1      -5.374  12.168  67.604  1.00  0.00    -0.091 C  
HETATM    7  O   UNL     1      -5.203  11.155  68.591  1.00  0.00    -0.041 OA 
HETATM    8  H   UNL     1      -5.297  11.573  69.438  1.00  0.00     0.000 HD 
BRANCH   6   9
HETATM    9  C   UNL     1      -6.709  12.864  67.776  1.00  0.00    -0.141 C  
HETATM   10  C   UNL     1      -7.922  12.355  67.500  1.00  0.00    -0.173 C  
BRANCH  10  11
HETATM   11  C   UNL     1      -9.216  13.145  67.506  1.00  0.00    -0.206 C  
HETATM   12  C   UNL     1      -9.393  13.857  66.148  1.00  0.00    -0.098 C  
HETATM   13  O   UNL     1      -8.607  15.038  66.060  1.00  0.00    -0.375 OA 
HETATM   14  C   UNL     1     -10.867  14.187  66.049  1.00  0.00    -0.297 C  
HETATM   15  H   UNL     1      -8.717  15.476  65.224  1.00  0.00     0.000 HD 
HETATM   16  C   UNL     1     -11.475  13.019  66.759  1.00  0.00    -0.345 C  
HETATM   17  O   UNL     1     -12.650  12.704  66.607  1.00  0.00    -0.198 OA 
HETATM   18  C   UNL     1     -10.503  12.306  67.688  1.00  0.00    -0.230 C  
BRANCH  18  19
HETATM   19  C   UNL     1     -10.989  12.346  69.146  1.00  0.00    -0.206 C  
BRANCH  19  20
HETATM   20  C   UNL     1     -10.849  13.692  69.809  1.00  0.00     0.215 C  
HETATM   21  C   UNL     1     -11.783  14.376  70.488  1.00  0.00    -0.328 C  
BRANCH  21  22
HETATM   22  C   UNL     1     -13.201  13.947  70.713  1.00  0.00    -0.130 C  
BRANCH  22  23
HETATM   23  C   UNL     1     -13.320  12.833  71.753  1.00  0.00    -0.436 C  
BRANCH  23  24
HETATM   24  C   UNL     1     -12.252  11.771  71.489  1.00  0.00     0.160 C  
HETATM   25  C   UNL     1     -12.767  10.368  71.682  1.00  0.00    -0.455 C  
HETATM   26  O   UNL     1     -13.902  10.068  72.014  1.00  0.00    -0.228 OA 
HETATM   27  O   UNL     1     -11.809   9.441  71.442  1.00  0.00    -0.319 OA 
ENDBRANCH  23  24
ENDBRANCH  22  23
ENDBRANCH  21  22
ENDBRANCH  19  20
ENDBRANCH  18  19
ENDBRANCH  10  11
ENDBRANCH   6   9
ENDBRANCH   5   6
ENDBRANCH   4   5
ENDBRANCH   3   4
ENDBRANCH   2   3
TORSDOF 11
ENDMDL
MODEL      364
REMARK 921   NORMALIZED FREE ENERGY PREDICTED BY IDOCK:   -0.12 KCAL/MOL
REMARK 922        TOTAL FREE ENERGY PREDICTED BY IDOCK:   -2.02 KCAL/MOL
REMARK 923 INTER-LIGAND FREE ENERGY PREDICTED BY IDOCK:   -3.10 KCAL/MOL
REMARK 924 INTRA-LIGAND FREE ENERGY PREDICTED BY IDOCK:    1.08 KCAL/MOL
REMARK 927      BINDING AFFINITY PREDICTED BY RF-SCORE:    0.00 PKD
ROOT
HETATM    1  C   UNL     1      -8.997   4.981  65.138  1.00  0.00    -0.143 C  
HETATM    2  C   UNL     1      -9.020   6.300  64.389  1.00  0.00     0.656 C  
ENDROOT
BRANCH   2   3
HETATM    3  C   UNL     1      -9.132   7.497  65.335  1.00  0.00     0.241 C  
BRANCH   3   4
HETATM    4  C   UNL     1      -8.143   7.349  66.492  1.00  0.00    -0.117 C  
BRANCH   4   5
HETATM    5  C   UNL     1      -8.832   7.359  67.857  1.00  0.00    -0.132 C  
BRANCH   5   6
HETATM    6  C   UNL     1      -9.382   8.742  68.249  1.00  0.00    -0.137 C  
HETATM    7  O   UNL     1     -10.742   8.558  68.629  1.00  0.00    -0.381 OA 
HETATM    8  H   UNL     1     -11.081   9.411  68.872  1.00  0.00     0.000 HD 
BRANCH   6   9
HETATM    9  C   UNL     1      -9.269   9.763  67.136  1.00  0.00    -0.159 C  
HETATM   10  C   UNL     1     -10.162  10.720  66.828  1.00  0.00    -0.279 C  
BRANCH  10  11
HETATM   11  C   UNL     1     -10.104  11.599  65.595  1.00  0.00    -0.278 C  
HETATM   12  C   UNL     1     -10.375  10.743  64.338  1.00  0.00    -0.335 C  
HETATM   13  O   UNL     1      -9.227  10.006  63.938  1.00  0.00    -0.245 OA 
HETATM   14  C   UNL     1     -10.786  11.721  63.259  1.00  0.00    -0.414 C  
HETATM   15  H   UNL     1      -9.394   9.480  63.165  1.00  0.00     0.000 HD 
HETATM   16  C   UNL     1     -11.519  12.749  64.062  1.00  0.00    -0.417 C  
HETATM   17  O   UNL     1     -12.313  13.530  63.550  1.00  0.00    -0.711 OA 
HETATM   18  C   UNL     1     -11.153  12.734  65.539  1.00  0.00    -0.318 C  
BRANCH  18  19
HETATM   19  C   UNL     1     -10.542  14.074  65.979  1.00  0.00    -0.297 C  
BRANCH  19  20
HETATM   20  C   UNL     1     -11.495  15.240  65.920  1.00  0.00    -0.092 C  
HETATM   21  C   UNL     1     -11.194  16.547  65.862  1.00  0.00     0.339 C  
BRANCH  21  22
HETATM   22  C   UNL     1      -9.817  17.135  65.869  1.00  0.00    -0.178 C  
BRANCH  22  23
HETATM   23  C   UNL     1      -9.054  16.831  67.157  1.00  0.00    -0.224 C  
BRANCH  23  24
HETATM   24  C   UNL     1     -10.040  16.420  68.251  1.00  0.00    -0.248 C  
HETATM   25  C   UNL     1      -9.403  16.359  69.616  1.00  0.00     0.193 C  
HETATM   26  O   UNL     1      -8.234  16.600  69.864  1.00  0.00     0.625 OA 
HETATM   27  O   UNL     1     -10.292  15.995  70.571  1.00  0.00    -0.047 OA 
ENDBRANCH  23  24
ENDBRANCH  22  23
ENDBRANCH  21  22
ENDBRANCH  19  20
ENDBRANCH  18  19
ENDBRANCH  10  11
ENDBRANCH   6   9
ENDBRANCH   5   6
ENDBRANCH   4   5
ENDBRANCH   3   4
ENDBRANCH   2   3
TORSDOF 11
ENDMDL
MODEL      365
REMARK 921   NORMALIZED FREE ENERGY PREDICTED BY IDOCK:   -0.04 KCAL/MOL
REMARK 922        TOTAL FREE ENERGY PREDICTED BY IDOCK:   -1.88 KCAL/MOL
REMARK 923 INTER-LIGAND FREE ENERGY PREDICTED BY IDOCK:   -2.80 KCAL/MOL
REMARK 924 INTRA-LIGAND FREE ENERGY PREDICTED BY IDOCK:    0.92 KCAL/MOL
REMARK 927      BINDING AFFINITY PREDICTED BY RF-SCORE:    0.00 PKD
ROOT
HETATM    1  C   UNL     1      -8.889   9.917  68.899  1.00  0.00    -0.145 C  
HETATM    2  C   UNL     1      -7.677  10.795  68.650  1.00  0.00    -0.114 C  
ENDROOT
BRANCH   2   3
HETATM    3  C   UNL     1      -6.512  10.442  69.577  1.00  0.00    -0.065 C  
BRANCH   3   4
HETATM    4  C   UNL     1      -5.868  11.718  70.122  1.00  0.00    -0.156 C  
BRANCH   4   5
HETATM    5  C   UNL     1      -5.574  12.741  69.025  1.00  0.00    -0.070 C  
BRANCH   5   6
HETATM    6  C   UNL     1      -6.629  12.750  67.904  1.00  0.00    -0.118 C  
HETATM    7  O   UNL     1      -5.926  12.868  66.671  1.00  0.00    -0.269 OA 
HETATM    8  H   UNL     1      -6.577  12.873  65.979  1.00  0.00     0.000 HD 
BRANCH   6   9
HETATM    9  C   UNL     1      -7.642  13.866  68.053  1.00  0.00    -0.144 C  
HETATM   10  C   UNL     1      -8.728  13.865  68.847  1.00  0.00     0.106 C  
BRANCH  10  11
HETATM   11  C   UNL     1      -9.817  14.919  68.829  1.00  0.00    -0.225 C  
HETATM   12  C   UNL     1      -9.515  15.993  69.897  1.00  0.00     0.210 C  
HETATM   13  O   UNL     1      -9.876  15.561  71.202  1.00  0.00     0.504 OA 
HETATM   14  C   UNL     1     -10.320  17.208  69.493  1.00  0.00    -0.117 C  
HETATM   15  H   UNL     1      -9.690  16.222  71.859  1.00  0.00     0.000 HD 
HETATM   16  C   UNL     1     -10.274  17.107  68.001  1.00  0.00    -0.332 C  
HETATM   17  O   UNL     1     -10.497  18.069  67.276  1.00  0.00    -0.370 OA 
HETATM   18  C   UNL     1      -9.957  15.703  67.503  1.00  0.00    -0.231 C  
BRANCH  18  19
HETATM   19  C   UNL     1     -11.102  15.141  66.646  1.00  0.00    -0.308 C  
BRANCH  19  20
HETATM   20  C   UNL     1     -11.020  15.501  65.185  1.00  0.00    -0.422 C  
HETATM   21  C   UNL     1     -10.793  14.682  64.147  1.00  0.00     0.472 C  
BRANCH  21  22
HETATM   22  C   UNL     1     -10.544  13.207  64.226  1.00  0.00    -0.432 C  
BRANCH  22  23
HETATM   23  C   UNL     1     -11.833  12.401  64.382  1.00  0.00    -0.461 C  
BRANCH  23  24
HETATM   24  C   UNL     1     -12.127  12.189  65.868  1.00  0.00    -0.128 C  
HETATM   25  C   UNL     1     -11.506  10.927  66.409  1.00  0.00     0.488 C  
HETATM   26  O   UNL     1     -10.839  10.133  65.768  1.00  0.00     0.077 OA 
HETATM   27  O   UNL     1     -11.775  10.757  67.726  1.00  0.00    -0.547 OA 
ENDBRANCH  23  24
ENDBRANCH  22  23
ENDBRANCH  21  22
ENDBRANCH  19  20
ENDBRANCH  18  19
ENDBRANCH  10  11
ENDBRANCH   6   9
ENDBRANCH   5   6
ENDBRANCH   4   5
ENDBRANCH   3   4
ENDBRANCH   2   3
TORSDOF 11
ENDMDL
MODEL      366
REMARK 921   NORMALIZED FREE ENERGY PREDICTED BY IDOCK:    0.42 KCAL/MOL
REMARK 922        TOTAL FREE ENERGY PREDICTED BY IDOCK:   -1.12 KCAL/MOL
REMARK 923 INTER-LIGAND FREE ENERGY PREDICTED BY IDOCK:   -3.61 KCAL/MOL
REMARK 924 INTRA-LIGAND FREE ENERGY PREDICTED BY IDOCK:    2.49 KCAL/MOL
REMARK 927      BINDING AFFINITY PREDICTED BY RF-SCORE:    0.00 PKD
ROOT
HETATM    1  C   UNL     1     -12.389  14.136  66.952  1.00  0.00    -0.293 C  
HETATM    2  C   UNL     1     -13.145  13.747  65.695  1.00  0.00    -0.181 C  
ENDROOT
BRANCH   2   3
HETATM    3  C   UNL     1     -12.766  12.349  65.205  1.00  0.00    -0.053 C  
BRANCH   3   4
HETATM    4  C   UNL     1     -12.158  12.428  63.803  1.00  0.00    -0.618 C  
BRANCH   4   5
HETATM    5  C   UNL     1     -11.046  13.473  63.705  1.00  0.00     0.053 C  
BRANCH   5   6
HETATM    6  C   UNL     1      -9.687  12.962  64.217  1.00  0.00     0.222 C  
HETATM    7  O   UNL     1      -9.872  11.605  64.608  1.00  0.00    -0.244 OA 
HETATM    8  H   UNL     1      -9.033  11.290  64.923  1.00  0.00     0.000 HD 
BRANCH   6   9
HETATM    9  C   UNL     1      -9.139  13.783  65.367  1.00  0.00     0.993 C  
HETATM   10  C   UNL     1      -9.841  14.299  66.392  1.00  0.00    -0.309 C  
BRANCH  10  11
HETATM   11  C   UNL     1      -9.291  15.268  67.418  1.00  0.00    -0.202 C  
HETATM   12  C   UNL     1      -8.564  16.425  66.698  1.00  0.00    -0.260 C  
HETATM   13  O   UNL     1      -7.261  16.051  66.271  1.00  0.00    -0.075 OA 
HETATM   14  C   UNL     1      -8.493  17.552  67.706  1.00  0.00    -0.225 C  
HETATM   15  H   UNL     1      -6.815  16.763  65.828  1.00  0.00     0.000 HD 
HETATM   16  C   UNL     1      -9.778  17.362  68.448  1.00  0.00    -0.304 C  
HETATM   17  O   UNL     1     -10.287  18.258  69.111  1.00  0.00    -0.275 OA 
HETATM   18  C   UNL     1     -10.349  15.957  68.313  1.00  0.00    -0.242 C  
BRANCH  18  19
HETATM   19  C   UNL     1     -10.454  15.261  69.679  1.00  0.00    -0.279 C  
BRANCH  19  20
HETATM   20  C   UNL     1     -10.396  16.197  70.859  1.00  0.00     0.877 C  
HETATM   21  C   UNL     1     -11.249  16.275  71.892  1.00  0.00     0.130 C  
BRANCH  21  22
HETATM   22  C   UNL     1     -12.482  15.445  72.081  1.00  0.00    -0.452 C  
BRANCH  22  23
HETATM   23  C   UNL     1     -12.987  14.837  70.774  1.00  0.00    -0.407 C  
BRANCH  23  24
HETATM   24  C   UNL     1     -12.688  13.337  70.757  1.00  0.00    -0.284 C  
HETATM   25  C   UNL     1     -13.514  12.568  71.756  1.00  0.00    -0.187 C  
HETATM   26  O   UNL     1     -14.339  13.049  72.514  1.00  0.00    -0.548 OA 
HETATM   27  O   UNL     1     -13.237  11.242  71.726  1.00  0.00    -0.450 OA 
ENDBRANCH  23  24
ENDBRANCH  22  23
ENDBRANCH  21  22
ENDBRANCH  19  20
ENDBRANCH  18  19
ENDBRANCH  10  11
ENDBRANCH   6   9
ENDBRANCH   5   6
ENDBRANCH   4   5
ENDBRANCH   3   4
ENDBRANCH   2   3
TORSDOF 11
ENDMDL
MODEL      367
REMARK 921   NORMALIZED FREE ENERGY PREDICTED BY IDOCK:    2.43 KCAL/MOL
REMARK 922        TOTAL FREE ENERGY PREDICTED BY IDOCK:    2.17 KCAL/MOL
REMARK 923 INTER-LIGAND FREE ENERGY PREDICTED BY IDOCK:   -1.94 KCAL/MOL
REMARK 924 INTRA-LIGAND FREE ENERGY PREDICTED BY IDOCK:    4.11 KCAL/MOL
REMARK 927      BINDING AFFINITY PREDICTED BY RF-SCORE:    0.00 PKD
ROOT
HETATM    1  C   UNL     1      -9.922   5.216  65.048  1.00  0.00     0.358 C  
HETATM    2  C   UNL     1      -9.405   6.220  64.034  1.00  0.00     1.645 C  
ENDROOT
BRANCH   2   3
HETATM    3  C   UNL     1      -8.354   7.155  64.635  1.00  0.00     0.048 C  
BRANCH   3   4
HETATM    4  C   UNL     1      -7.001   6.445  64.715  1.00  0.00    -0.051 C  
BRANCH   4   5
HETATM    5  C   UNL     1      -6.682   5.949  66.126  1.00  0.00    -0.060 C  
BRANCH   5   6
HETATM    6  C   UNL     1      -7.043   6.966  67.223  1.00  0.00    -0.084 C  
HETATM    7  O   UNL     1      -8.084   6.386  68.003  1.00  0.00    -0.113 OA 
HETATM    8  H   UNL     1      -8.306   7.013  68.681  1.00  0.00     0.000 HD 
BRANCH   6   9
HETATM    9  C   UNL     1      -7.471   8.309  66.669  1.00  0.00    -0.086 C  
HETATM   10  C   UNL     1      -8.685   8.877  66.787  1.00  0.00    -0.130 C  
BRANCH  10  11
HETATM   11  C   UNL     1      -9.129  10.132  66.062  1.00  0.00    -0.185 C  
HETATM   12  C   UNL     1      -9.690   9.754  64.673  1.00  0.00    -0.096 C  
HETATM   13  O   UNL     1      -8.655   9.508  63.731  1.00  0.00    -0.185 OA 
HETATM   14  C   UNL     1     -10.538  10.931  64.242  1.00  0.00    -0.336 C  
HETATM   15  H   UNL     1      -9.001   9.276  62.877  1.00  0.00     0.000 HD 
HETATM   16  C   UNL     1     -11.088  11.392  65.555  1.00  0.00    -0.136 C  
HETATM   17  O   UNL     1     -12.089  12.094  65.632  1.00  0.00    -0.545 OA 
HETATM   18  C   UNL     1     -10.265  10.927  66.749  1.00  0.00    -0.277 C  
BRANCH  18  19
HETATM   19  C   UNL     1      -9.705  12.118  67.542  1.00  0.00    -0.185 C  
BRANCH  19  20
HETATM   20  C   UNL     1     -10.566  12.553  68.700  1.00  0.00    -0.240 C  
HETATM   21  C   UNL     1     -10.880  13.806  69.066  1.00  0.00    -0.247 C  
BRANCH  21  22
HETATM   22  C   UNL     1     -10.410  15.063  68.402  1.00  0.00    -0.231 C  
BRANCH  22  23
HETATM   23  C   UNL     1      -9.182  14.838  67.520  1.00  0.00    -0.198 C  
BRANCH  23  24
HETATM   24  C   UNL     1      -8.002  14.401  68.389  1.00  0.00    -0.141 C  
HETATM   25  C   UNL     1      -6.677  14.876  67.851  1.00  0.00    -0.160 C  
HETATM   26  O   UNL     1      -6.518  15.536  66.838  1.00  0.00    -0.226 OA 
HETATM   27  O   UNL     1      -5.644  14.481  68.634  1.00  0.00    -0.085 OA 
ENDBRANCH  23  24
ENDBRANCH  22  23
ENDBRANCH  21  22
ENDBRANCH  19  20
ENDBRANCH  18  19
ENDBRANCH  10  11
ENDBRANCH   6   9
ENDBRANCH   5   6
ENDBRANCH   4   5
ENDBRANCH   3   4
ENDBRANCH   2   3
TORSDOF 11
ENDMDL
MODEL      368
REMARK 921   NORMALIZED FREE ENERGY PREDICTED BY IDOCK:    2.46 KCAL/MOL
REMARK 922        TOTAL FREE ENERGY PREDICTED BY IDOCK:    2.23 KCAL/MOL
REMARK 923 INTER-LIGAND FREE ENERGY PREDICTED BY IDOCK:    3.22 KCAL/MOL
REMARK 924 INTRA-LIGAND FREE ENERGY PREDICTED BY IDOCK:   -0.99 KCAL/MOL
REMARK 927      BINDING AFFINITY PREDICTED BY RF-SCORE:    0.00 PKD
ROOT
HETATM    1  C   UNL     1      -8.194  19.604  67.124  1.00  0.00    -0.323 C  
HETATM    2  C   UNL     1      -9.313  19.827  68.126  1.00  0.00    -0.429 C  
ENDROOT
BRANCH   2   3
HETATM    3  C   UNL     1      -9.858  18.510  68.682  1.00  0.00    -0.419 C  
BRANCH   3   4
HETATM    4  C   UNL     1     -11.093  18.075  67.891  1.00  0.00     0.098 C  
BRANCH   4   5
HETATM    5  C   UNL     1     -11.053  16.594  67.511  1.00  0.00    -0.055 C  
BRANCH   5   6
HETATM    6  C   UNL     1     -10.768  16.357  66.018  1.00  0.00    -0.191 C  
HETATM    7  O   UNL     1     -11.961  16.680  65.309  1.00  0.00     0.959 OA 
HETATM    8  H   UNL     1     -11.785  16.534  64.387  1.00  0.00     0.000 HD 
BRANCH   6   9
HETATM    9  C   UNL     1     -10.330  14.939  65.715  1.00  0.00    -0.351 C  
HETATM   10  C   UNL     1     -11.046  13.995  65.079  1.00  0.00    -0.364 C  
BRANCH  10  11
HETATM   11  C   UNL     1     -10.649  12.537  64.961  1.00  0.00    -0.329 C  
HETATM   12  C   UNL     1     -11.766  11.755  64.235  1.00  0.00    -0.245 C  
HETATM   13  O   UNL     1     -12.849  11.449  65.101  1.00  0.00     1.262 OA 
HETATM   14  C   UNL     1     -11.112  10.488  63.727  1.00  0.00     1.323 C  
HETATM   15  H   UNL     1     -13.536  10.967  64.655  1.00  0.00     0.000 HD 
HETATM   16  C   UNL     1      -9.735  10.978  63.407  1.00  0.00    -0.348 C  
HETATM   17  O   UNL     1      -8.987  10.371  62.649  1.00  0.00    -0.202 OA 
HETATM   18  C   UNL     1      -9.369  12.264  64.137  1.00  0.00     0.387 C  
BRANCH  18  19
HETATM   19  C   UNL     1      -8.153  12.061  65.054  1.00  0.00     1.941 C  
BRANCH  19  20
HETATM   20  C   UNL     1      -7.882  10.624  65.418  1.00  0.00    -0.070 C  
HETATM   21  C   UNL     1      -8.408   9.918  66.432  1.00  0.00    -0.125 C  
BRANCH  21  22
HETATM   22  C   UNL     1      -9.378  10.430  67.452  1.00  0.00    -0.162 C  
BRANCH  22  23
HETATM   23  C   UNL     1      -9.075   9.919  68.860  1.00  0.00    -0.156 C  
BRANCH  23  24
HETATM   24  C   UNL     1      -8.481  11.052  69.698  1.00  0.00     0.477 C  
HETATM   25  C   UNL     1      -7.150  10.690  70.305  1.00  0.00     0.131 C  
HETATM   26  O   UNL     1      -6.576   9.623  70.171  1.00  0.00    -0.060 OA 
HETATM   27  O   UNL     1      -6.638  11.705  71.041  1.00  0.00     0.474 OA 
ENDBRANCH  23  24
ENDBRANCH  22  23
ENDBRANCH  21  22
ENDBRANCH  19  20
ENDBRANCH  18  19
ENDBRANCH  10  11
ENDBRANCH   6   9
ENDBRANCH   5   6
ENDBRANCH   4   5
ENDBRANCH   3   4
ENDBRANCH   2   3
TORSDOF 11
ENDMDL
MODEL      369
REMARK 921   NORMALIZED FREE ENERGY PREDICTED BY IDOCK:    2.81 KCAL/MOL
REMARK 922        TOTAL FREE ENERGY PREDICTED BY IDOCK:    2.79 KCAL/MOL
REMARK 923 INTER-LIGAND FREE ENERGY PREDICTED BY IDOCK:    0.67 KCAL/MOL
REMARK 924 INTRA-LIGAND FREE ENERGY PREDICTED BY IDOCK:    2.12 KCAL/MOL
REMARK 927      BINDING AFFINITY PREDICTED BY RF-SCORE:    0.00 PKD
ROOT
HETATM    1  C   UNL     1     -10.073   5.342  64.957  1.00  0.00     0.720 C  
HETATM    2  C   UNL     1      -9.710   6.414  63.946  1.00  0.00     3.128 C  
ENDROOT
BRANCH   2   3
HETATM    3  C   UNL     1      -8.394   7.112  64.296  1.00  0.00     0.137 C  
BRANCH   3   4
HETATM    4  C   UNL     1      -7.208   6.256  63.848  1.00  0.00    -0.062 C  
BRANCH   4   5
HETATM    5  C   UNL     1      -6.634   5.409  64.985  1.00  0.00    -0.040 C  
BRANCH   5   6
HETATM    6  C   UNL     1      -6.688   6.112  66.353  1.00  0.00    -0.060 C  
HETATM    7  O   UNL     1      -5.402   5.967  66.948  1.00  0.00    -0.005 OA 
HETATM    8  H   UNL     1      -5.435   6.401  67.792  1.00  0.00     0.000 HD 
BRANCH   6   9
HETATM    9  C   UNL     1      -7.766   5.558  67.263  1.00  0.00    -0.100 C  
HETATM   10  C   UNL     1      -7.584   4.765  68.334  1.00  0.00    -0.077 C  
BRANCH  10  11
HETATM   11  C   UNL     1      -8.695   4.080  69.104  1.00  0.00    -0.127 C  
HETATM   12  C   UNL     1      -9.026   2.726  68.439  1.00  0.00    -0.145 C  
HETATM   13  O   UNL     1      -9.844   2.884  67.289  1.00  0.00    -0.338 OA 
HETATM   14  C   UNL     1      -9.741   1.916  69.498  1.00  0.00     0.055 C  
HETATM   15  H   UNL     1     -10.048   2.051  66.880  1.00  0.00     0.000 HD 
HETATM   16  C   UNL     1      -9.052   2.384  70.740  1.00  0.00    -0.112 C  
HETATM   17  O   UNL     1      -9.075   1.738  71.782  1.00  0.00    -0.073 OA 
HETATM   18  C   UNL     1      -8.364   3.732  70.575  1.00  0.00    -0.084 C  
BRANCH  18  19
HETATM   19  C   UNL     1      -8.947   4.781  71.536  1.00  0.00    -0.162 C  
BRANCH  19  20
HETATM   20  C   UNL     1      -8.172   4.949  72.817  1.00  0.00    -0.105 C  
HETATM   21  C   UNL     1      -8.655   5.040  74.066  1.00  0.00    -0.112 C  
BRANCH  21  22
HETATM   22  C   UNL     1     -10.101   5.017  74.455  1.00  0.00    -0.278 C  
BRANCH  22  23
HETATM   23  C   UNL     1     -11.036   5.075  73.248  1.00  0.00    -0.406 C  
BRANCH  23  24
HETATM   24  C   UNL     1     -10.683   6.287  72.385  1.00  0.00    -0.257 C  
HETATM   25  C   UNL     1     -11.890   6.897  71.718  1.00  0.00    -0.316 C  
HETATM   26  O   UNL     1     -13.037   6.499  71.826  1.00  0.00    -0.227 OA 
HETATM   27  O   UNL     1     -11.558   7.970  70.961  1.00  0.00    -0.282 OA 
ENDBRANCH  23  24
ENDBRANCH  22  23
ENDBRANCH  21  22
ENDBRANCH  19  20
ENDBRANCH  18  19
ENDBRANCH  10  11
ENDBRANCH   6   9
ENDBRANCH   5   6
ENDBRANCH   4   5
ENDBRANCH   3   4
ENDBRANCH   2   3
TORSDOF 11
ENDMDL
MODEL      370
REMARK 921   NORMALIZED FREE ENERGY PREDICTED BY IDOCK:    2.81 KCAL/MOL
REMARK 922        TOTAL FREE ENERGY PREDICTED BY IDOCK:    2.81 KCAL/MOL
REMARK 923 INTER-LIGAND FREE ENERGY PREDICTED BY IDOCK:    3.31 KCAL/MOL
REMARK 924 INTRA-LIGAND FREE ENERGY PREDICTED BY IDOCK:   -0.50 KCAL/MOL
REMARK 927      BINDING AFFINITY PREDICTED BY RF-SCORE:    0.00 PKD
ROOT
HETATM    1  C   UNL     1      -7.769  20.004  72.257  1.00  0.00     2.321 C  
HETATM    2  C   UNL     1      -6.611  19.124  72.687  1.00  0.00     2.680 C  
ENDROOT
BRANCH   2   3
HETATM    3  C   UNL     1      -5.441  19.192  71.704  1.00  0.00    -0.288 C  
BRANCH   3   4
HETATM    4  C   UNL     1      -5.325  20.601  71.119  1.00  0.00    -0.194 C  
BRANCH   4   5
HETATM    5  C   UNL     1      -5.975  20.718  69.740  1.00  0.00    -0.137 C  
BRANCH   5   6
HETATM    6  C   UNL     1      -5.395  19.734  68.709  1.00  0.00    -0.194 C  
HETATM    7  O   UNL     1      -5.178  20.469  67.508  1.00  0.00    -0.174 OA 
HETATM    8  H   UNL     1      -4.820  19.862  66.871  1.00  0.00     0.000 HD 
BRANCH   6   9
HETATM    9  C   UNL     1      -6.294  18.542  68.454  1.00  0.00    -0.217 C  
HETATM   10  C   UNL     1      -5.950  17.244  68.529  1.00  0.00    -0.156 C  
BRANCH  10  11
HETATM   11  C   UNL     1      -6.824  16.088  68.086  1.00  0.00    -0.130 C  
HETATM   12  C   UNL     1      -5.935  14.951  67.535  1.00  0.00     0.058 C  
HETATM   13  O   UNL     1      -5.504  15.209  66.206  1.00  0.00     1.981 OA 
HETATM   14  C   UNL     1      -6.790  13.704  67.588  1.00  0.00    -0.185 C  
HETATM   15  H   UNL     1      -4.958  14.510  65.868  1.00  0.00     0.000 HD 
HETATM   16  C   UNL     1      -7.602  13.958  68.818  1.00  0.00    -0.108 C  
HETATM   17  O   UNL     1      -8.169  13.055  69.423  1.00  0.00     0.618 OA 
HETATM   18  C   UNL     1      -7.669  15.430  69.203  1.00  0.00    -0.207 C  
BRANCH  18  19
HETATM   19  C   UNL     1      -9.114  15.950  69.182  1.00  0.00    -0.255 C  
BRANCH  19  20
HETATM   20  C   UNL     1      -9.280  17.297  68.527  1.00  0.00    -0.273 C  
HETATM   21  C   UNL     1      -9.466  17.561  67.224  1.00  0.00    -0.253 C  
BRANCH  21  22
HETATM   22  C   UNL     1      -9.524  16.551  66.119  1.00  0.00    -0.347 C  
BRANCH  22  23
HETATM   23  C   UNL     1     -10.941  16.041  65.863  1.00  0.00    -0.115 C  
BRANCH  23  24
HETATM   24  C   UNL     1     -10.892  14.560  65.487  1.00  0.00    -0.342 C  
HETATM   25  C   UNL     1     -10.917  13.653  66.691  1.00  0.00    -0.292 C  
HETATM   26  O   UNL     1     -10.968  14.019  67.853  1.00  0.00    -0.240 OA 
HETATM   27  O   UNL     1     -10.874  12.346  66.339  1.00  0.00    -0.245 OA 
ENDBRANCH  23  24
ENDBRANCH  22  23
ENDBRANCH  21  22
ENDBRANCH  19  20
ENDBRANCH  18  19
ENDBRANCH  10  11
ENDBRANCH   6   9
ENDBRANCH   5   6
ENDBRANCH   4   5
ENDBRANCH   3   4
ENDBRANCH   2   3
TORSDOF 11
ENDMDL
MODEL      371
REMARK 921   NORMALIZED FREE ENERGY PREDICTED BY IDOCK:    2.92 KCAL/MOL
REMARK 922        TOTAL FREE ENERGY PREDICTED BY IDOCK:    2.98 KCAL/MOL
REMARK 923 INTER-LIGAND FREE ENERGY PREDICTED BY IDOCK:    3.74 KCAL/MOL
REMARK 924 INTRA-LIGAND FREE ENERGY PREDICTED BY IDOCK:   -0.76 KCAL/MOL
REMARK 927      BINDING AFFINITY PREDICTED BY RF-SCORE:    0.00 PKD
ROOT
HETATM    1  C   UNL     1     -12.608   5.697  62.586  1.00  0.00     6.668 C  
HETATM    2  C   UNL     1     -11.807   4.434  62.331  1.00  0.00     1.340 C  
ENDROOT
BRANCH   2   3
HETATM    3  C   UNL     1     -10.304   4.665  62.494  1.00  0.00     0.214 C  
BRANCH   3   4
HETATM    4  C   UNL     1      -9.653   3.453  63.162  1.00  0.00    -0.101 C  
BRANCH   4   5
HETATM    5  C   UNL     1      -8.909   3.821  64.446  1.00  0.00    -0.120 C  
BRANCH   5   6
HETATM    6  C   UNL     1      -7.691   4.730  64.203  1.00  0.00    -0.079 C  
HETATM    7  O   UNL     1      -6.541   4.014  64.643  1.00  0.00    -0.041 OA 
HETATM    8  H   UNL     1      -5.790   4.574  64.492  1.00  0.00     0.000 HD 
BRANCH   6   9
HETATM    9  C   UNL     1      -7.796   6.065  64.912  1.00  0.00    -0.106 C  
HETATM   10  C   UNL     1      -8.779   6.460  65.740  1.00  0.00    -0.135 C  
BRANCH  10  11
HETATM   11  C   UNL     1      -8.945   7.867  66.281  1.00  0.00    -0.207 C  
HETATM   12  C   UNL     1      -8.065   8.044  67.537  1.00  0.00    -0.123 C  
HETATM   13  O   UNL     1      -8.662   7.469  68.691  1.00  0.00    -0.129 OA 
HETATM   14  C   UNL     1      -7.897   9.538  67.709  1.00  0.00    -0.095 C  
HETATM   15  H   UNL     1      -8.121   7.579  69.464  1.00  0.00     0.000 HD 
HETATM   16  C   UNL     1      -7.874   9.996  66.285  1.00  0.00    -0.111 C  
HETATM   17  O   UNL     1      -7.408  11.081  65.956  1.00  0.00    -0.118 OA 
HETATM   18  C   UNL     1      -8.508   9.000  65.323  1.00  0.00    -0.181 C  
BRANCH  18  19
HETATM   19  C   UNL     1      -9.718   9.611  64.600  1.00  0.00    -0.040 C  
BRANCH  19  20
HETATM   20  C   UNL     1      -9.494  11.011  64.087  1.00  0.00    -0.274 C  
HETATM   21  C   UNL     1     -10.212  12.112  64.358  1.00  0.00    -0.333 C  
BRANCH  21  22
HETATM   22  C   UNL     1     -11.430  12.178  65.227  1.00  0.00    -0.388 C  
BRANCH  22  23
HETATM   23  C   UNL     1     -11.546  13.503  65.978  1.00  0.00    -0.363 C  
BRANCH  23  24
HETATM   24  C   UNL     1     -10.739  14.577  65.247  1.00  0.00    -0.390 C  
HETATM   25  C   UNL     1     -10.479  15.792  66.102  1.00  0.00    -0.317 C  
HETATM   26  O   UNL     1     -10.853  15.943  67.252  1.00  0.00    -0.319 OA 
HETATM   27  O   UNL     1      -9.762  16.730  65.439  1.00  0.00    -0.510 OA 
ENDBRANCH  23  24
ENDBRANCH  22  23
ENDBRANCH  21  22
ENDBRANCH  19  20
ENDBRANCH  18  19
ENDBRANCH  10  11
ENDBRANCH   6   9
ENDBRANCH   5   6
ENDBRANCH   4   5
ENDBRANCH   3   4
ENDBRANCH   2   3
TORSDOF 11
ENDMDL
MODEL      372
REMARK 921   NORMALIZED FREE ENERGY PREDICTED BY IDOCK:    3.62 KCAL/MOL
REMARK 922        TOTAL FREE ENERGY PREDICTED BY IDOCK:    4.13 KCAL/MOL
REMARK 923 INTER-LIGAND FREE ENERGY PREDICTED BY IDOCK:   -2.46 KCAL/MOL
REMARK 924 INTRA-LIGAND FREE ENERGY PREDICTED BY IDOCK:    6.59 KCAL/MOL
REMARK 927      BINDING AFFINITY PREDICTED BY RF-SCORE:    0.00 PKD
ROOT
HETATM    1  C   UNL     1     -11.777  13.640  64.192  1.00  0.00    -0.424 C  
HETATM    2  C   UNL     1     -12.922  14.086  65.082  1.00  0.00    -0.260 C  
ENDROOT
BRANCH   2   3
HETATM    3  C   UNL     1     -12.426  14.690  66.397  1.00  0.00     0.053 C  
BRANCH   3   4
HETATM    4  C   UNL     1     -11.900  13.589  67.319  1.00  0.00    -0.427 C  
BRANCH   4   5
HETATM    5  C   UNL     1     -11.679  12.266  66.584  1.00  0.00    -0.417 C  
BRANCH   5   6
HETATM    6  C   UNL     1     -10.329  12.199  65.848  1.00  0.00    -0.255 C  
HETATM    7  O   UNL     1      -9.776  10.912  66.108  1.00  0.00    -0.195 OA 
HETATM    8  H   UNL     1      -8.943  10.870  65.654  1.00  0.00     0.000 HD 
BRANCH   6   9
HETATM    9  C   UNL     1      -9.368  13.291  66.270  1.00  0.00    -0.134 C  
HETATM   10  C   UNL     1      -9.550  14.185  67.258  1.00  0.00    -0.234 C  
BRANCH  10  11
HETATM   11  C   UNL     1      -8.653  15.377  67.526  1.00  0.00    -0.187 C  
HETATM   12  C   UNL     1      -9.440  16.682  67.281  1.00  0.00    -0.232 C  
HETATM   13  O   UNL     1      -9.536  16.993  65.898  1.00  0.00    -0.492 OA 
HETATM   14  C   UNL     1      -8.682  17.762  68.022  1.00  0.00    -0.251 C  
HETATM   15  H   UNL     1     -10.020  17.797  65.747  1.00  0.00     0.000 HD 
HETATM   16  C   UNL     1      -8.169  17.000  69.203  1.00  0.00    -0.034 C  
HETATM   17  O   UNL     1      -7.803  17.560  70.230  1.00  0.00     1.924 OA 
HETATM   18  C   UNL     1      -8.125  15.495  68.976  1.00  0.00    -0.220 C  
BRANCH  18  19
HETATM   19  C   UNL     1      -6.692  14.953  69.088  1.00  0.00    -0.126 C  
BRANCH  19  20
HETATM   20  C   UNL     1      -5.855  15.146  67.850  1.00  0.00    -0.158 C  
HETATM   21  C   UNL     1      -5.491  16.302  67.274  1.00  0.00    -0.109 C  
BRANCH  21  22
HETATM   22  C   UNL     1      -5.868  17.675  67.739  1.00  0.00    -0.146 C  
BRANCH  22  23
HETATM   23  C   UNL     1      -6.016  18.667  66.586  1.00  0.00    -0.176 C  
BRANCH  23  24
HETATM   24  C   UNL     1      -7.386  19.341  66.664  1.00  0.00    -0.237 C  
HETATM   25  C   UNL     1      -7.720  20.124  65.420  1.00  0.00     0.106 C  
HETATM   26  O   UNL     1      -7.006  20.236  64.439  1.00  0.00    -0.197 OA 
HETATM   27  O   UNL     1      -8.938  20.712  65.506  1.00  0.00     0.366 OA 
ENDBRANCH  23  24
ENDBRANCH  22  23
ENDBRANCH  21  22
ENDBRANCH  19  20
ENDBRANCH  18  19
ENDBRANCH  10  11
ENDBRANCH   6   9
ENDBRANCH   5   6
ENDBRANCH   4   5
ENDBRANCH   3   4
ENDBRANCH   2   3
TORSDOF 11
ENDMDL
MODEL      373
REMARK 921   NORMALIZED FREE ENERGY PREDICTED BY IDOCK:    3.63 KCAL/MOL
REMARK 922        TOTAL FREE ENERGY PREDICTED BY IDOCK:    4.15 KCAL/MOL
REMARK 923 INTER-LIGAND FREE ENERGY PREDICTED BY IDOCK:    5.33 KCAL/MOL
REMARK 924 INTRA-LIGAND FREE ENERGY PREDICTED BY IDOCK:   -1.18 KCAL/MOL
REMARK 927      BINDING AFFINITY PREDICTED BY RF-SCORE:    0.00 PKD
ROOT
HETATM    1  C   UNL     1      -7.109  12.593  71.105  1.00  0.00     4.442 C  
HETATM    2  C   UNL     1      -7.408  12.896  69.649  1.00  0.00     0.642 C  
ENDROOT
BRANCH   2   3
HETATM    3  C   UNL     1      -8.037  11.701  68.930  1.00  0.00    -0.005 C  
BRANCH   3   4
HETATM    4  C   UNL     1      -7.476  11.584  67.512  1.00  0.00    -0.116 C  
BRANCH   4   5
HETATM    5  C   UNL     1      -7.500  10.147  66.990  1.00  0.00    -0.092 C  
BRANCH   5   6
HETATM    6  C   UNL     1      -8.311   9.986  65.692  1.00  0.00    -0.145 C  
HETATM    7  O   UNL     1      -7.383  10.034  64.612  1.00  0.00    -0.136 OA 
HETATM    8  H   UNL     1      -7.883   9.934  63.811  1.00  0.00     0.000 HD 
BRANCH   6   9
HETATM    9  C   UNL     1      -9.382  11.044  65.526  1.00  0.00    -0.242 C  
HETATM   10  C   UNL     1      -9.190  12.366  65.377  1.00  0.00     0.288 C  
BRANCH  10  11
HETATM   11  C   UNL     1     -10.288  13.411  65.403  1.00  0.00    -0.321 C  
HETATM   12  C   UNL     1     -11.243  13.187  64.210  1.00  0.00    -0.388 C  
HETATM   13  O   UNL     1     -10.707  13.698  62.997  1.00  0.00     0.954 OA 
HETATM   14  C   UNL     1     -12.525  13.904  64.573  1.00  0.00    -0.336 C  
HETATM   15  H   UNL     1     -11.295  13.560  62.264  1.00  0.00     0.000 HD 
HETATM   16  C   UNL     1     -12.562  13.703  66.055  1.00  0.00    -0.386 C  
HETATM   17  O   UNL     1     -13.596  13.816  66.703  1.00  0.00     1.745 OA 
HETATM   18  C   UNL     1     -11.199  13.384  66.654  1.00  0.00    -0.330 C  
BRANCH  18  19
HETATM   19  C   UNL     1     -10.770  14.451  67.673  1.00  0.00    -0.263 C  
BRANCH  19  20
HETATM   20  C   UNL     1     -10.142  15.677  67.062  1.00  0.00    -0.253 C  
HETATM   21  C   UNL     1      -9.837  16.835  67.669  1.00  0.00    -0.261 C  
BRANCH  21  22
HETATM   22  C   UNL     1     -10.085  17.168  69.108  1.00  0.00    -0.254 C  
BRANCH  22  23
HETATM   23  C   UNL     1      -8.807  17.151  69.944  1.00  0.00     1.493 C  
BRANCH  23  24
HETATM   24  C   UNL     1      -7.738  16.324  69.228  1.00  0.00    -0.186 C  
HETATM   25  C   UNL     1      -6.497  17.122  68.918  1.00  0.00    -0.192 C  
HETATM   26  O   UNL     1      -6.324  18.298  69.187  1.00  0.00    -0.231 OA 
HETATM   27  O   UNL     1      -5.562  16.373  68.286  1.00  0.00    -0.100 OA 
ENDBRANCH  23  24
ENDBRANCH  22  23
ENDBRANCH  21  22
ENDBRANCH  19  20
ENDBRANCH  18  19
ENDBRANCH  10  11
ENDBRANCH   6   9
ENDBRANCH   5   6
ENDBRANCH   4   5
ENDBRANCH   3   4
ENDBRANCH   2   3
TORSDOF 11
ENDMDL
MODEL      374
REMARK 921   NORMALIZED FREE ENERGY PREDICTED BY IDOCK:    3.78 KCAL/MOL
REMARK 922        TOTAL FREE ENERGY PREDICTED BY IDOCK:    4.39 KCAL/MOL
REMARK 923 INTER-LIGAND FREE ENERGY PREDICTED BY IDOCK:    5.26 KCAL/MOL
REMARK 924 INTRA-LIGAND FREE ENERGY PREDICTED BY IDOCK:   -0.88 KCAL/MOL
REMARK 927      BINDING AFFINITY PREDICTED BY RF-SCORE:    0.00 PKD
ROOT
HETATM    1  C   UNL     1     -12.676   5.774  62.651  1.00  0.00     7.453 C  
HETATM    2  C   UNL     1     -11.908   4.503  62.342  1.00  0.00     1.440 C  
ENDROOT
BRANCH   2   3
HETATM    3  C   UNL     1     -10.395   4.708  62.436  1.00  0.00     0.158 C  
BRANCH   3   4
HETATM    4  C   UNL     1      -9.728   3.461  63.018  1.00  0.00    -0.103 C  
BRANCH   4   5
HETATM    5  C   UNL     1      -8.868   3.775  64.243  1.00  0.00    -0.120 C  
BRANCH   5   6
HETATM    6  C   UNL     1      -7.666   4.680  63.925  1.00  0.00    -0.073 C  
HETATM    7  O   UNL     1      -6.490   3.922  64.195  1.00  0.00    -0.038 OA 
HETATM    8  H   UNL     1      -5.748   4.481  63.998  1.00  0.00     0.000 HD 
BRANCH   6   9
HETATM    9  C   UNL     1      -7.667   5.970  64.721  1.00  0.00    -0.101 C  
HETATM   10  C   UNL     1      -8.515   6.303  65.710  1.00  0.00    -0.148 C  
BRANCH  10  11
HETATM   11  C   UNL     1      -8.603   7.673  66.352  1.00  0.00    -0.149 C  
HETATM   12  C   UNL     1      -7.498   7.814  67.421  1.00  0.00    -0.093 C  
HETATM   13  O   UNL     1      -7.844   7.160  68.634  1.00  0.00    -0.117 OA 
HETATM   14  C   UNL     1      -7.332   9.302  67.643  1.00  0.00    -0.084 C  
HETATM   15  H   UNL     1      -7.164   7.247  69.292  1.00  0.00     0.000 HD 
HETATM   16  C   UNL     1      -7.600   9.833  66.271  1.00  0.00    -0.100 C  
HETATM   17  O   UNL     1      -7.232  10.949  65.921  1.00  0.00    -0.123 OA 
HETATM   18  C   UNL     1      -8.388   8.869  65.395  1.00  0.00    -0.155 C  
BRANCH  18  19
HETATM   19  C   UNL     1      -9.730   9.476  64.958  1.00  0.00    -0.138 C  
BRANCH  19  20
HETATM   20  C   UNL     1      -9.643  10.909  64.499  1.00  0.00    -0.312 C  
HETATM   21  C   UNL     1     -10.409  11.944  64.881  1.00  0.00    -0.328 C  
BRANCH  21  22
HETATM   22  C   UNL     1     -11.551  11.885  65.847  1.00  0.00    -0.291 C  
BRANCH  22  23
HETATM   23  C   UNL     1     -11.265  12.641  67.144  1.00  0.00    -0.348 C  
BRANCH  23  24
HETATM   24  C   UNL     1     -11.371  11.682  68.329  1.00  0.00    -0.348 C  
HETATM   25  C   UNL     1     -12.136  12.271  69.487  1.00  0.00    -0.198 C  
HETATM   26  O   UNL     1     -12.630  13.385  69.517  1.00  0.00    -0.068 OA 
HETATM   27  O   UNL     1     -12.222  11.407  70.526  1.00  0.00    -0.352 OA 
ENDBRANCH  23  24
ENDBRANCH  22  23
ENDBRANCH  21  22
ENDBRANCH  19  20
ENDBRANCH  18  19
ENDBRANCH  10  11
ENDBRANCH   6   9
ENDBRANCH   5   6
ENDBRANCH   4   5
ENDBRANCH   3   4
ENDBRANCH   2   3
TORSDOF 11
ENDMDL
MODEL      375
REMARK 921   NORMALIZED FREE ENERGY PREDICTED BY IDOCK:    4.09 KCAL/MOL
REMARK 922        TOTAL FREE ENERGY PREDICTED BY IDOCK:    4.91 KCAL/MOL
REMARK 923 INTER-LIGAND FREE ENERGY PREDICTED BY IDOCK:    4.36 KCAL/MOL
REMARK 924 INTRA-LIGAND FREE ENERGY PREDICTED BY IDOCK:    0.55 KCAL/MOL
REMARK 927      BINDING AFFINITY PREDICTED BY RF-SCORE:    0.00 PKD
ROOT
HETATM    1  C   UNL     1     -12.243  12.876  65.477  1.00  0.00    -0.527 C  
HETATM    2  C   UNL     1     -13.340  12.941  66.523  1.00  0.00     3.464 C  
ENDROOT
BRANCH   2   3
HETATM    3  C   UNL     1     -12.778  12.983  67.945  1.00  0.00     1.283 C  
BRANCH   3   4
HETATM    4  C   UNL     1     -11.652  11.959  68.097  1.00  0.00    -0.400 C  
BRANCH   4   5
HETATM    5  C   UNL     1     -10.282  12.539  67.746  1.00  0.00    -0.217 C  
BRANCH   5   6
HETATM    6  C   UNL     1      -9.526  13.093  68.967  1.00  0.00     0.410 C  
HETATM    7  O   UNL     1     -10.479  13.237  70.017  1.00  0.00     0.272 OA 
HETATM    8  H   UNL     1     -10.012  13.578  70.770  1.00  0.00     0.000 HD 
BRANCH   6   9
HETATM    9  C   UNL     1      -8.832  14.410  68.687  1.00  0.00    -0.167 C  
HETATM   10  C   UNL     1      -8.232  14.776  67.540  1.00  0.00    -0.201 C  
BRANCH  10  11
HETATM   11  C   UNL     1      -7.389  16.022  67.361  1.00  0.00    -0.216 C  
HETATM   12  C   UNL     1      -5.975  15.624  66.885  1.00  0.00     0.684 C  
HETATM   13  O   UNL     1      -5.164  15.160  67.955  1.00  0.00    -0.121 OA 
HETATM   14  C   UNL     1      -5.385  16.874  66.269  1.00  0.00     0.219 C  
HETATM   15  H   UNL     1      -4.294  14.916  67.661  1.00  0.00     0.000 HD 
HETATM   16  C   UNL     1      -6.602  17.508  65.673  1.00  0.00     0.110 C  
HETATM   17  O   UNL     1      -6.529  18.351  64.786  1.00  0.00    -0.366 OA 
HETATM   18  C   UNL     1      -7.902  17.022  66.299  1.00  0.00    -0.346 C  
BRANCH  18  19
HETATM   19  C   UNL     1      -8.675  18.177  66.954  1.00  0.00    -0.267 C  
BRANCH  19  20
HETATM   20  C   UNL     1      -9.756  18.771  66.088  1.00  0.00    -0.280 C  
HETATM   21  C   UNL     1     -10.578  19.791  66.381  1.00  0.00    -0.575 C  
BRANCH  21  22
HETATM   22  C   UNL     1     -10.611  20.554  67.670  1.00  0.00     0.084 C  
BRANCH  22  23
HETATM   23  C   UNL     1      -9.928  19.806  68.814  1.00  0.00    -0.510 C  
BRANCH  23  24
HETATM   24  C   UNL     1      -8.883  20.713  69.465  1.00  0.00     1.607 C  
HETATM   25  C   UNL     1      -7.612  19.980  69.810  1.00  0.00     0.372 C  
HETATM   26  O   UNL     1      -7.399  18.797  69.611  1.00  0.00     0.017 OA 
HETATM   27  O   UNL     1      -6.698  20.799  70.383  1.00  0.00     0.027 OA 
ENDBRANCH  23  24
ENDBRANCH  22  23
ENDBRANCH  21  22
ENDBRANCH  19  20
ENDBRANCH  18  19
ENDBRANCH  10  11
ENDBRANCH   6   9
ENDBRANCH   5   6
ENDBRANCH   4   5
ENDBRANCH   3   4
ENDBRANCH   2   3
TORSDOF 11
ENDMDL
MODEL      376
REMARK 921   NORMALIZED FREE ENERGY PREDICTED BY IDOCK:    5.76 KCAL/MOL
REMARK 922        TOTAL FREE ENERGY PREDICTED BY IDOCK:    7.65 KCAL/MOL
REMARK 923 INTER-LIGAND FREE ENERGY PREDICTED BY IDOCK:    4.47 KCAL/MOL
REMARK 924 INTRA-LIGAND FREE ENERGY PREDICTED BY IDOCK:    3.18 KCAL/MOL
REMARK 927      BINDING AFFINITY PREDICTED BY RF-SCORE:    0.00 PKD
ROOT
HETATM    1  C   UNL     1     -10.178   5.406  64.917  1.00  0.00     0.981 C  
HETATM    2  C   UNL     1     -10.086   6.488  63.858  1.00  0.00     5.097 C  
ENDROOT
BRANCH   2   3
HETATM    3  C   UNL     1      -8.828   7.345  64.019  1.00  0.00     0.881 C  
BRANCH   3   4
HETATM    4  C   UNL     1      -7.617   6.619  63.429  1.00  0.00    -0.085 C  
BRANCH   4   5
HETATM    5  C   UNL     1      -6.821   5.855  64.487  1.00  0.00    -0.050 C  
BRANCH   5   6
HETATM    6  C   UNL     1      -6.763   6.578  65.845  1.00  0.00    -0.048 C  
HETATM    7  O   UNL     1      -5.413   6.513  66.295  1.00  0.00    -0.013 OA 
HETATM    8  H   UNL     1      -5.378   6.959  67.132  1.00  0.00     0.000 HD 
BRANCH   6   9
HETATM    9  C   UNL     1      -7.702   5.982  66.874  1.00  0.00    -0.100 C  
HETATM   10  C   UNL     1      -7.362   5.200  67.914  1.00  0.00    -0.075 C  
BRANCH  10  11
HETATM   11  C   UNL     1      -8.344   4.471  68.809  1.00  0.00    -0.086 C  
HETATM   12  C   UNL     1      -8.731   3.123  68.162  1.00  0.00    -0.107 C  
HETATM   13  O   UNL     1      -9.699   3.284  67.135  1.00  0.00    -0.375 OA 
HETATM   14  C   UNL     1      -9.281   2.274  69.288  1.00  0.00    -0.190 C  
HETATM   15  H   UNL     1      -9.936   2.455  66.737  1.00  0.00     0.000 HD 
HETATM   16  C   UNL     1      -8.442   2.734  70.438  1.00  0.00    -0.053 C  
HETATM   17  O   UNL     1      -8.311   2.067  71.457  1.00  0.00    -0.053 OA 
HETATM   18  C   UNL     1      -7.813   4.103  70.214  1.00  0.00    -0.051 C  
BRANCH  18  19
HETATM   19  C   UNL     1      -8.286   5.116  71.268  1.00  0.00    -0.117 C  
BRANCH  19  20
HETATM   20  C   UNL     1      -9.778   5.321  71.306  1.00  0.00    -0.222 C  
HETATM   21  C   UNL     1     -10.448   6.481  71.398  1.00  0.00    -0.246 C  
BRANCH  21  22
HETATM   22  C   UNL     1      -9.838   7.844  71.509  1.00  0.00    -0.206 C  
BRANCH  22  23
HETATM   23  C   UNL     1      -8.313   7.801  71.591  1.00  0.00    -0.125 C  
BRANCH  23  24
HETATM   24  C   UNL     1      -7.886   6.772  72.639  1.00  0.00    -0.100 C  
HETATM   25  C   UNL     1      -6.618   7.163  73.354  1.00  0.00    -0.065 C  
HETATM   26  O   UNL     1      -5.972   8.176  73.150  1.00  0.00    -0.057 OA 
HETATM   27  O   UNL     1      -6.257   6.242  74.279  1.00  0.00    -0.064 OA 
ENDBRANCH  23  24
ENDBRANCH  22  23
ENDBRANCH  21  22
ENDBRANCH  19  20
ENDBRANCH  18  19
ENDBRANCH  10  11
ENDBRANCH   6   9
ENDBRANCH   5   6
ENDBRANCH   4   5
ENDBRANCH   3   4
ENDBRANCH   2   3
TORSDOF 11
ENDMDL
MODEL      377
REMARK 921   NORMALIZED FREE ENERGY PREDICTED BY IDOCK:    9.40 KCAL/MOL
REMARK 922        TOTAL FREE ENERGY PREDICTED BY IDOCK:   13.63 KCAL/MOL
REMARK 923 INTER-LIGAND FREE ENERGY PREDICTED BY IDOCK:   10.22 KCAL/MOL
REMARK 924 INTRA-LIGAND FREE ENERGY PREDICTED BY IDOCK:    3.41 KCAL/MOL
REMARK 927      BINDING AFFINITY PREDICTED BY RF-SCORE:    0.00 PKD
ROOT
HETATM    1  C   UNL     1      -9.615  20.312  65.259  1.00  0.00     0.623 C  
HETATM    2  C   UNL     1      -8.367  19.573  65.705  1.00  0.00     0.212 C  
ENDROOT
BRANCH   2   3
HETATM    3  C   UNL     1      -8.420  19.197  67.187  1.00  0.00    -0.301 C  
BRANCH   3   4
HETATM    4  C   UNL     1      -7.300  19.906  67.951  1.00  0.00    -0.326 C  
BRANCH   4   5
HETATM    5  C   UNL     1      -7.583  20.000  69.451  1.00  0.00     0.071 C  
BRANCH   5   6
HETATM    6  C   UNL     1      -8.747  19.102  69.907  1.00  0.00     0.977 C  
HETATM    7  O   UNL     1      -8.203  18.139  70.806  1.00  0.00     4.157 OA 
HETATM    8  H   UNL     1      -8.921  17.585  71.087  1.00  0.00     0.000 HD 
BRANCH   6   9
HETATM    9  C   UNL     1      -9.457  18.420  68.755  1.00  0.00    -0.317 C  
HETATM   10  C   UNL     1     -10.786  18.308  68.583  1.00  0.00     0.149 C  
BRANCH  10  11
HETATM   11  C   UNL     1     -11.454  17.459  67.521  1.00  0.00     0.701 C  
HETATM   12  C   UNL     1     -11.381  18.184  66.159  1.00  0.00     1.242 C  
HETATM   13  O   UNL     1     -12.366  19.203  66.046  1.00  0.00     3.901 OA 
HETATM   14  C   UNL     1     -11.598  17.112  65.114  1.00  0.00     1.252 C  
HETATM   15  H   UNL     1     -12.320  19.649  65.208  1.00  0.00     0.000 HD 
HETATM   16  C   UNL     1     -10.940  15.935  65.762  1.00  0.00    -0.177 C  
HETATM   17  O   UNL     1     -10.578  14.956  65.120  1.00  0.00    -0.369 OA 
HETATM   18  C   UNL     1     -10.806  16.076  67.272  1.00  0.00    -0.255 C  
BRANCH  18  19
HETATM   19  C   UNL     1     -11.571  14.966  68.010  1.00  0.00    -0.363 C  
BRANCH  19  20
HETATM   20  C   UNL     1     -10.706  13.829  68.489  1.00  0.00    -0.274 C  
HETATM   21  C   UNL     1      -9.446  13.889  68.946  1.00  0.00     0.047 C  
BRANCH  21  22
HETATM   22  C   UNL     1      -8.606  15.124  69.055  1.00  0.00    -0.219 C  
BRANCH  22  23
HETATM   23  C   UNL     1      -7.405  14.938  69.981  1.00  0.00     0.068 C  
BRANCH  23  24
HETATM   24  C   UNL     1      -6.392  16.058  69.736  1.00  0.00    -0.177 C  
HETATM   25  C   UNL     1      -6.095  16.263  68.273  1.00  0.00    -0.114 C  
HETATM   26  O   UNL     1      -6.583  15.628  67.354  1.00  0.00    -0.170 OA 
HETATM   27  O   UNL     1      -5.199  17.259  68.075  1.00  0.00    -0.117 OA 
ENDBRANCH  23  24
ENDBRANCH  22  23
ENDBRANCH  21  22
ENDBRANCH  19  20
ENDBRANCH  18  19
ENDBRANCH  10  11
ENDBRANCH   6   9
ENDBRANCH   5   6
ENDBRANCH   4   5
ENDBRANCH   3   4
ENDBRANCH   2   3
TORSDOF 11
ENDMDL
MODEL      378
REMARK 921   NORMALIZED FREE ENERGY PREDICTED BY IDOCK:   10.08 KCAL/MOL
REMARK 922        TOTAL FREE ENERGY PREDICTED BY IDOCK:   14.74 KCAL/MOL
REMARK 923 INTER-LIGAND FREE ENERGY PREDICTED BY IDOCK:    5.45 KCAL/MOL
REMARK 924 INTRA-LIGAND FREE ENERGY PREDICTED BY IDOCK:    9.29 KCAL/MOL
REMARK 927      BINDING AFFINITY PREDICTED BY RF-SCORE:    0.00 PKD
ROOT
HETATM    1  C   UNL     1     -11.076   5.857  64.792  1.00  0.00     4.249 C  
HETATM    2  C   UNL     1     -10.229   6.495  65.878  1.00  0.00     0.647 C  
ENDROOT
BRANCH   2   3
HETATM    3  C   UNL     1     -10.076   5.583  67.097  1.00  0.00    -0.220 C  
BRANCH   3   4
HETATM    4  C   UNL     1     -10.824   4.268  66.870  1.00  0.00     1.385 C  
BRANCH   4   5
HETATM    5  C   UNL     1     -10.085   3.332  65.913  1.00  0.00     0.503 C  
BRANCH   5   6
HETATM    6  C   UNL     1      -9.602   4.031  64.630  1.00  0.00    -0.175 C  
HETATM    7  O   UNL     1      -8.914   3.052  63.856  1.00  0.00    -0.095 OA 
HETATM    8  H   UNL     1      -8.617   3.484  63.064  1.00  0.00     0.000 HD 
BRANCH   6   9
HETATM    9  C   UNL     1      -8.709   5.223  64.904  1.00  0.00    -0.122 C  
HETATM   10  C   UNL     1      -8.182   6.060  63.993  1.00  0.00    -0.043 C  
BRANCH  10  11
HETATM   11  C   UNL     1      -7.145   7.125  64.289  1.00  0.00    -0.063 C  
HETATM   12  C   UNL     1      -6.123   7.186  63.134  1.00  0.00    -0.045 C  
HETATM   13  O   UNL     1      -5.160   6.144  63.219  1.00  0.00    -0.016 OA 
HETATM   14  C   UNL     1      -5.458   8.540  63.249  1.00  0.00    -0.064 C  
HETATM   15  H   UNL     1      -4.532   6.183  62.508  1.00  0.00     0.000 HD 
HETATM   16  C   UNL     1      -6.589   9.379  63.754  1.00  0.00    -0.095 C  
HETATM   17  O   UNL     1      -6.589  10.601  63.654  1.00  0.00     0.000 OA 
HETATM   18  C   UNL     1      -7.693   8.566  64.415  1.00  0.00    -0.128 C  
BRANCH  18  19
HETATM   19  C   UNL     1      -7.875   8.962  65.889  1.00  0.00    -0.102 C  
BRANCH  19  20
HETATM   20  C   UNL     1      -6.688   8.656  66.765  1.00  0.00    -0.069 C  
HETATM   21  C   UNL     1      -6.692   8.244  68.043  1.00  0.00    -0.065 C  
BRANCH  21  22
HETATM   22  C   UNL     1      -7.905   8.022  68.893  1.00  0.00    -0.113 C  
BRANCH  22  23
HETATM   23  C   UNL     1      -9.076   8.918  68.493  1.00  0.00    -0.137 C  
BRANCH  23  24
HETATM   24  C   UNL     1      -8.562  10.324  68.182  1.00  0.00    -0.119 C  
HETATM   25  C   UNL     1      -9.245  11.388  69.004  1.00  0.00     0.071 C  
HETATM   26  O   UNL     1     -10.117  11.193  69.833  1.00  0.00     0.270 OA 
HETATM   27  O   UNL     1      -8.775  12.625  68.717  1.00  0.00    -0.002 OA 
ENDBRANCH  23  24
ENDBRANCH  22  23
ENDBRANCH  21  22
ENDBRANCH  19  20
ENDBRANCH  18  19
ENDBRANCH  10  11
ENDBRANCH   6   9
ENDBRANCH   5   6
ENDBRANCH   4   5
ENDBRANCH   3   4
ENDBRANCH   2   3
TORSDOF 11
ENDMDL
MODEL      379
REMARK 921   NORMALIZED FREE ENERGY PREDICTED BY IDOCK:   10.62 KCAL/MOL
REMARK 922        TOTAL FREE ENERGY PREDICTED BY IDOCK:   15.64 KCAL/MOL
REMARK 923 INTER-LIGAND FREE ENERGY PREDICTED BY IDOCK:   -0.66 KCAL/MOL
REMARK 924 INTRA-LIGAND FREE ENERGY PREDICTED BY IDOCK:   16.30 KCAL/MOL
REMARK 927      BINDING AFFINITY PREDICTED BY RF-SCORE:    0.00 PKD
ROOT
HETATM    1  C   UNL     1      -8.745   8.713  67.310  1.00  0.00    -0.133 C  
HETATM    2  C   UNL     1      -7.529   9.071  66.476  1.00  0.00    -0.089 C  
ENDROOT
BRANCH   2   3
HETATM    3  C   UNL     1      -6.607  10.056  67.196  1.00  0.00    -0.070 C  
BRANCH   3   4
HETATM    4  C   UNL     1      -5.943  10.993  66.186  1.00  0.00    -0.132 C  
BRANCH   4   5
HETATM    5  C   UNL     1      -6.135  10.527  64.742  1.00  0.00    -0.057 C  
BRANCH   5   6
HETATM    6  C   UNL     1      -7.550   9.992  64.458  1.00  0.00    -0.142 C  
HETATM    7  O   UNL     1      -8.313  10.184  65.646  1.00  0.00    -0.139 OA 
HETATM    8  H   UNL     1      -9.186   9.854  65.471  1.00  0.00     0.000 HD 
BRANCH   6   9
HETATM    9  C   UNL     1      -7.561   8.536  64.042  1.00  0.00    -0.124 C  
HETATM   10  C   UNL     1      -7.196   7.482  64.794  1.00  0.00    -0.068 C  
BRANCH  10  11
HETATM   11  C   UNL     1      -7.043   6.063  64.283  1.00  0.00    -0.053 C  
HETATM   12  C   UNL     1      -5.556   5.785  63.971  1.00  0.00    -0.017 C  
HETATM   13  O   UNL     1      -5.163   6.338  62.723  1.00  0.00    -0.020 OA 
HETATM   14  C   UNL     1      -5.418   4.278  63.957  1.00  0.00    -0.013 C  
HETATM   15  H   UNL     1      -4.248   6.166  62.531  1.00  0.00     0.000 HD 
HETATM   16  C   UNL     1      -6.406   3.884  65.008  1.00  0.00    -0.028 C  
HETATM   17  O   UNL     1      -6.366   2.793  65.564  1.00  0.00    -0.023 OA 
HETATM   18  C   UNL     1      -7.457   4.953  65.277  1.00  0.00    -0.077 C  
BRANCH  18  19
HETATM   19  C   UNL     1      -8.872   4.437  64.973  1.00  0.00    -0.141 C  
BRANCH  19  20
HETATM   20  C   UNL     1      -9.215   4.393  63.506  1.00  0.00    -0.121 C  
HETATM   21  C   UNL     1      -9.499   3.315  62.758  1.00  0.00    -0.095 C  
BRANCH  21  22
HETATM   22  C   UNL     1      -9.511   1.894  63.230  1.00  0.00    -0.095 C  
BRANCH  22  23
HETATM   23  C   UNL     1     -10.284   1.715  64.537  1.00  0.00     0.360 C  
BRANCH  23  24
HETATM   24  C   UNL     1     -10.142   2.976  65.391  1.00  0.00     0.455 C  
HETATM   25  C   UNL     1      -9.716   2.675  66.805  1.00  0.00     0.412 C  
HETATM   26  O   UNL     1      -9.499   1.564  67.259  1.00  0.00    -0.053 OA 
HETATM   27  O   UNL     1      -9.594   3.802  67.546  1.00  0.00    -0.195 OA 
ENDBRANCH  23  24
ENDBRANCH  22  23
ENDBRANCH  21  22
ENDBRANCH  19  20
ENDBRANCH  18  19
ENDBRANCH  10  11
ENDBRANCH   6   9
ENDBRANCH   5   6
ENDBRANCH   4   5
ENDBRANCH   3   4
ENDBRANCH   2   3
TORSDOF 11
ENDMDL
MODEL      380
REMARK 921   NORMALIZED FREE ENERGY PREDICTED BY IDOCK:   20.18 KCAL/MOL
REMARK 922        TOTAL FREE ENERGY PREDICTED BY IDOCK:   31.35 KCAL/MOL
REMARK 923 INTER-LIGAND FREE ENERGY PREDICTED BY IDOCK:   11.90 KCAL/MOL
REMARK 924 INTRA-LIGAND FREE ENERGY PREDICTED BY IDOCK:   19.44 KCAL/MOL
REMARK 927      BINDING AFFINITY PREDICTED BY RF-SCORE:    0.00 PKD
ROOT
HETATM    1  C   UNL     1     -10.474   4.545  64.310  1.00  0.00     0.215 C  
HETATM    2  C   UNL     1      -9.718   4.997  65.545  1.00  0.00    -0.083 C  
ENDROOT
BRANCH   2   3
HETATM    3  C   UNL     1     -10.257   4.346  66.820  1.00  0.00    -0.099 C  
BRANCH   3   4
HETATM    4  C   UNL     1     -11.655   3.777  66.571  1.00  0.00     6.451 C  
BRANCH   4   5
HETATM    5  C   UNL     1     -11.637   2.570  65.632  1.00  0.00     7.424 C  
BRANCH   5   6
HETATM    6  C   UNL     1     -10.883   2.834  64.317  1.00  0.00     0.366 C  
HETATM    7  O   UNL     1     -10.693   1.571  63.685  1.00  0.00    -0.289 OA 
HETATM    8  H   UNL     1     -10.227   1.734  62.873  1.00  0.00     0.000 HD 
BRANCH   6   9
HETATM    9  C   UNL     1      -9.556   3.535  64.526  1.00  0.00    -0.167 C  
HETATM   10  C   UNL     1      -8.727   3.988  63.568  1.00  0.00    -0.107 C  
BRANCH  10  11
HETATM   11  C   UNL     1      -7.326   4.514  63.811  1.00  0.00    -0.054 C  
HETATM   12  C   UNL     1      -6.375   3.971  62.723  1.00  0.00    -0.022 C  
HETATM   13  O   UNL     1      -5.979   2.632  62.982  1.00  0.00    -0.009 OA 
HETATM   14  C   UNL     1      -5.177   4.895  62.730  1.00  0.00    -0.009 C  
HETATM   15  H   UNL     1      -5.393   2.298  62.312  1.00  0.00     0.000 HD 
HETATM   16  C   UNL     1      -5.819   6.203  63.068  1.00  0.00    -0.022 C  
HETATM   17  O   UNL     1      -5.274   7.276  62.834  1.00  0.00    -0.032 OA 
HETATM   18  C   UNL     1      -7.175   6.052  63.744  1.00  0.00    -0.060 C  
BRANCH  18  19
HETATM   19  C   UNL     1      -7.173   6.670  65.150  1.00  0.00    -0.074 C  
BRANCH  19  20
HETATM   20  C   UNL     1      -7.338   8.168  65.171  1.00  0.00    -0.078 C  
HETATM   21  C   UNL     1      -7.642   8.948  66.220  1.00  0.00    -0.095 C  
BRANCH  21  22
HETATM   22  C   UNL     1      -7.912   8.481  67.617  1.00  0.00    -0.107 C  
BRANCH  22  23
HETATM   23  C   UNL     1      -9.404   8.342  67.913  1.00  0.00    -0.150 C  
BRANCH  23  24
HETATM   24  C   UNL     1     -10.137   9.603  67.453  1.00  0.00    -0.257 C  
HETATM   25  C   UNL     1     -11.001  10.200  68.534  1.00  0.00    -0.232 C  
HETATM   26  O   UNL     1     -11.133   9.758  69.662  1.00  0.00    -0.237 OA 
HETATM   27  O   UNL     1     -11.640  11.316  68.110  1.00  0.00    -0.370 OA 
ENDBRANCH  23  24
ENDBRANCH  22  23
ENDBRANCH  21  22
ENDBRANCH  19  20
ENDBRANCH  18  19
ENDBRANCH  10  11
ENDBRANCH   6   9
ENDBRANCH   5   6
ENDBRANCH   4   5
ENDBRANCH   3   4
ENDBRANCH   2   3
TORSDOF 11
ENDMDL
MODEL      381
REMARK 921   NORMALIZED FREE ENERGY PREDICTED BY IDOCK:   23.71 KCAL/MOL
REMARK 922        TOTAL FREE ENERGY PREDICTED BY IDOCK:   37.14 KCAL/MOL
REMARK 923 INTER-LIGAND FREE ENERGY PREDICTED BY IDOCK:   30.28 KCAL/MOL
REMARK 924 INTRA-LIGAND FREE ENERGY PREDICTED BY IDOCK:    6.86 KCAL/MOL
REMARK 927      BINDING AFFINITY PREDICTED BY RF-SCORE:    0.00 PKD
ROOT
HETATM    1  C   UNL     1      -9.922  20.454  68.508  1.00  0.00    -0.155 C  
HETATM    2  C   UNL     1      -9.046  20.306  69.738  1.00  0.00     0.982 C  
ENDROOT
BRANCH   2   3
HETATM    3  C   UNL     1      -9.587  21.100  70.928  1.00  0.00     2.933 C  
BRANCH   3   4
HETATM    4  C   UNL     1     -10.740  20.341  71.588  1.00  0.00     4.897 C  
BRANCH   4   5
HETATM    5  C   UNL     1     -10.311  18.974  72.123  1.00  0.00     3.677 C  
BRANCH   5   6
HETATM    6  C   UNL     1      -8.847  18.627  71.799  1.00  0.00     9.359 C  
HETATM    7  O   UNL     1      -8.131  19.857  71.734  1.00  0.00     1.850 OA 
HETATM    8  H   UNL     1      -7.228  19.643  71.534  1.00  0.00     0.000 HD 
BRANCH   6   9
HETATM    9  C   UNL     1      -8.694  17.848  70.508  1.00  0.00     4.259 C  
HETATM   10  C   UNL     1      -7.542  17.541  69.886  1.00  0.00     1.195 C  
BRANCH  10  11
HETATM   11  C   UNL     1      -7.440  16.926  68.504  1.00  0.00    -0.217 C  
HETATM   12  C   UNL     1      -5.973  16.537  68.220  1.00  0.00    -0.120 C  
HETATM   13  O   UNL     1      -5.189  17.660  67.841  1.00  0.00    -0.128 OA 
HETATM   14  C   UNL     1      -6.030  15.521  67.100  1.00  0.00     0.300 C  
HETATM   15  H   UNL     1      -4.286  17.420  67.665  1.00  0.00     0.000 HD 
HETATM   16  C   UNL     1      -7.308  14.811  67.415  1.00  0.00    -0.185 C  
HETATM   17  O   UNL     1      -7.559  13.696  66.973  1.00  0.00    -0.015 OA 
HETATM   18  C   UNL     1      -8.246  15.622  68.298  1.00  0.00    -0.142 C  
BRANCH  18  19
HETATM   19  C   UNL     1      -9.580  15.903  67.589  1.00  0.00    -0.221 C  
BRANCH  19  20
HETATM   20  C   UNL     1      -9.788  15.114  66.322  1.00  0.00    -0.317 C  
HETATM   21  C   UNL     1     -10.420  15.503  65.204  1.00  0.00    -0.431 C  
BRANCH  21  22
HETATM   22  C   UNL     1     -11.087  16.826  64.984  1.00  0.00    -0.063 C  
BRANCH  22  23
HETATM   23  C   UNL     1     -10.423  17.957  65.767  1.00  0.00    -0.196 C  
BRANCH  23  24
HETATM   24  C   UNL     1      -9.113  18.352  65.084  1.00  0.00     2.489 C  
HETATM   25  C   UNL     1      -8.672  19.749  65.438  1.00  0.00     0.756 C  
HETATM   26  O   UNL     1      -9.264  20.514  66.179  1.00  0.00    -0.115 OA 
HETATM   27  O   UNL     1      -7.509  20.080  64.826  1.00  0.00    -0.110 OA 
ENDBRANCH  23  24
ENDBRANCH  22  23
ENDBRANCH  21  22
ENDBRANCH  19  20
ENDBRANCH  18  19
ENDBRANCH  10  11
ENDBRANCH   6   9
ENDBRANCH   5   6
ENDBRANCH   4   5
ENDBRANCH   3   4
ENDBRANCH   2   3
TORSDOF 11
ENDMDL
MODEL      382
REMARK 921   NORMALIZED FREE ENERGY PREDICTED BY IDOCK:   24.99 KCAL/MOL
REMARK 922        TOTAL FREE ENERGY PREDICTED BY IDOCK:   39.24 KCAL/MOL
REMARK 923 INTER-LIGAND FREE ENERGY PREDICTED BY IDOCK:   27.79 KCAL/MOL
REMARK 924 INTRA-LIGAND FREE ENERGY PREDICTED BY IDOCK:   11.45 KCAL/MOL
REMARK 927      BINDING AFFINITY PREDICTED BY RF-SCORE:    0.00 PKD
ROOT
HETATM    1  C   UNL     1      -9.921  20.456  68.494  1.00  0.00    -0.155 C  
HETATM    2  C   UNL     1      -9.027  20.323  69.713  1.00  0.00     1.046 C  
ENDROOT
BRANCH   2   3
HETATM    3  C   UNL     1      -9.560  21.118  70.907  1.00  0.00     2.933 C  
BRANCH   3   4
HETATM    4  C   UNL     1     -10.691  20.348  71.590  1.00  0.00     5.141 C  
BRANCH   4   5
HETATM    5  C   UNL     1     -10.235  18.992  72.130  1.00  0.00     3.864 C  
BRANCH   5   6
HETATM    6  C   UNL     1      -8.771  18.663  71.786  1.00  0.00     9.533 C  
HETATM    7  O   UNL     1      -8.076  19.903  71.690  1.00  0.00     1.818 OA 
HETATM    8  H   UNL     1      -7.173  19.700  71.478  1.00  0.00     0.000 HD 
BRANCH   6   9
HETATM    9  C   UNL     1      -8.628  17.867  70.505  1.00  0.00     4.296 C  
HETATM   10  C   UNL     1      -7.481  17.565  69.870  1.00  0.00     1.079 C  
BRANCH  10  11
HETATM   11  C   UNL     1      -7.392  16.930  68.496  1.00  0.00    -0.206 C  
HETATM   12  C   UNL     1      -5.924  16.554  68.197  1.00  0.00    -0.116 C  
HETATM   13  O   UNL     1      -5.159  17.679  67.789  1.00  0.00    -0.127 OA 
HETATM   14  C   UNL     1      -5.986  15.520  67.093  1.00  0.00     0.300 C  
HETATM   15  H   UNL     1      -4.256  17.447  67.605  1.00  0.00     0.000 HD 
HETATM   16  C   UNL     1      -7.251  14.800  67.438  1.00  0.00    -0.173 C  
HETATM   17  O   UNL     1      -7.496  13.676  67.016  1.00  0.00     0.015 OA 
HETATM   18  C   UNL     1      -8.186  15.614  68.321  1.00  0.00    -0.142 C  
BRANCH  18  19
HETATM   19  C   UNL     1      -9.533  15.870  67.628  1.00  0.00    -0.219 C  
BRANCH  19  20
HETATM   20  C   UNL     1     -10.728  15.789  68.543  1.00  0.00    -0.274 C  
HETATM   21  C   UNL     1     -11.964  15.358  68.246  1.00  0.00    -0.109 C  
BRANCH  21  22
HETATM   22  C   UNL     1     -12.433  14.879  66.907  1.00  0.00     0.504 C  
BRANCH  22  23
HETATM   23  C   UNL     1     -11.331  14.180  66.113  1.00  0.00    -0.337 C  
BRANCH  23  24
HETATM   24  C   UNL     1     -10.307  13.580  67.079  1.00  0.00    -0.252 C  
HETATM   25  C   UNL     1      -9.525  12.447  66.466  1.00  0.00    -0.242 C  
HETATM   26  O   UNL     1      -9.661  12.023  65.331  1.00  0.00    -0.238 OA 
HETATM   27  O   UNL     1      -8.622  11.930  67.334  1.00  0.00    -0.151 OA 
ENDBRANCH  23  24
ENDBRANCH  22  23
ENDBRANCH  21  22
ENDBRANCH  19  20
ENDBRANCH  18  19
ENDBRANCH  10  11
ENDBRANCH   6   9
ENDBRANCH   5   6
ENDBRANCH   4   5
ENDBRANCH   3   4
ENDBRANCH   2   3
TORSDOF 11
ENDMDL
MODEL      383
REMARK 921   NORMALIZED FREE ENERGY PREDICTED BY IDOCK:   26.61 KCAL/MOL
REMARK 922        TOTAL FREE ENERGY PREDICTED BY IDOCK:   41.90 KCAL/MOL
REMARK 923 INTER-LIGAND FREE ENERGY PREDICTED BY IDOCK:   33.60 KCAL/MOL
REMARK 924 INTRA-LIGAND FREE ENERGY PREDICTED BY IDOCK:    8.30 KCAL/MOL
REMARK 927      BINDING AFFINITY PREDICTED BY RF-SCORE:    0.00 PKD
ROOT
HETATM    1  C   UNL     1      -9.921  20.456  68.494  1.00  0.00    -0.155 C  
HETATM    2  C   UNL     1      -9.027  20.323  69.713  1.00  0.00     1.046 C  
ENDROOT
BRANCH   2   3
HETATM    3  C   UNL     1      -9.560  21.118  70.907  1.00  0.00     2.933 C  
BRANCH   3   4
HETATM    4  C   UNL     1     -10.691  20.348  71.590  1.00  0.00     5.141 C  
BRANCH   4   5
HETATM    5  C   UNL     1     -10.235  18.992  72.130  1.00  0.00     3.864 C  
BRANCH   5   6
HETATM    6  C   UNL     1      -8.771  18.663  71.786  1.00  0.00     9.533 C  
HETATM    7  O   UNL     1      -8.076  19.903  71.690  1.00  0.00     1.818 OA 
HETATM    8  H   UNL     1      -7.173  19.700  71.478  1.00  0.00     0.000 HD 
BRANCH   6   9
HETATM    9  C   UNL     1      -8.628  17.867  70.505  1.00  0.00     4.296 C  
HETATM   10  C   UNL     1      -7.481  17.565  69.870  1.00  0.00     1.079 C  
BRANCH  10  11
HETATM   11  C   UNL     1      -7.392  16.930  68.496  1.00  0.00    -0.206 C  
HETATM   12  C   UNL     1      -5.924  16.554  68.197  1.00  0.00    -0.116 C  
HETATM   13  O   UNL     1      -5.159  17.679  67.789  1.00  0.00    -0.127 OA 
HETATM   14  C   UNL     1      -5.986  15.520  67.093  1.00  0.00     0.300 C  
HETATM   15  H   UNL     1      -4.256  17.447  67.605  1.00  0.00     0.000 HD 
HETATM   16  C   UNL     1      -7.251  14.800  67.438  1.00  0.00    -0.173 C  
HETATM   17  O   UNL     1      -7.496  13.676  67.016  1.00  0.00     0.015 OA 
HETATM   18  C   UNL     1      -8.186  15.614  68.321  1.00  0.00    -0.142 C  
BRANCH  18  19
HETATM   19  C   UNL     1      -9.533  15.870  67.628  1.00  0.00    -0.219 C  
BRANCH  19  20
HETATM   20  C   UNL     1     -10.094  17.251  67.849  1.00  0.00    -0.317 C  
HETATM   21  C   UNL     1     -11.384  17.610  67.947  1.00  0.00     0.451 C  
BRANCH  21  22
HETATM   22  C   UNL     1     -12.564  16.695  67.829  1.00  0.00     2.838 C  
BRANCH  22  23
HETATM   23  C   UNL     1     -12.275  15.290  68.354  1.00  0.00     0.087 C  
BRANCH  23  24
HETATM   24  C   UNL     1     -11.173  15.357  69.413  1.00  0.00    -0.300 C  
HETATM   25  C   UNL     1     -11.199  14.179  70.353  1.00  0.00     0.123 C  
HETATM   26  O   UNL     1     -11.993  13.255  70.311  1.00  0.00    -0.333 OA 
HETATM   27  O   UNL     1     -10.216  14.254  71.282  1.00  0.00     2.168 OA 
ENDBRANCH  23  24
ENDBRANCH  22  23
ENDBRANCH  21  22
ENDBRANCH  19  20
ENDBRANCH  18  19
ENDBRANCH  10  11
ENDBRANCH   6   9
ENDBRANCH   5   6
ENDBRANCH   4   5
ENDBRANCH   3   4
ENDBRANCH   2   3
TORSDOF 11
ENDMDL
MODEL      384
REMARK 921   NORMALIZED FREE ENERGY PREDICTED BY IDOCK:   28.26 KCAL/MOL
REMARK 922        TOTAL FREE ENERGY PREDICTED BY IDOCK:   44.61 KCAL/MOL
REMARK 923 INTER-LIGAND FREE ENERGY PREDICTED BY IDOCK:   33.47 KCAL/MOL
REMARK 924 INTRA-LIGAND FREE ENERGY PREDICTED BY IDOCK:   11.14 KCAL/MOL
REMARK 927      BINDING AFFINITY PREDICTED BY RF-SCORE:    0.00 PKD
ROOT
HETATM    1  C   UNL     1      -9.768  20.694  68.169  1.00  0.00    -0.086 C  
HETATM    2  C   UNL     1      -8.954  20.500  69.435  1.00  0.00     1.167 C  
ENDROOT
BRANCH   2   3
HETATM    3  C   UNL     1      -9.514  21.306  70.608  1.00  0.00     3.432 C  
BRANCH   3   4
HETATM    4  C   UNL     1     -10.761  20.623  71.171  1.00  0.00     4.061 C  
BRANCH   4   5
HETATM    5  C   UNL     1     -10.486  19.192  71.634  1.00  0.00     3.267 C  
BRANCH   5   6
HETATM    6  C   UNL     1      -9.041  18.734  71.367  1.00  0.00     6.450 C  
HETATM    7  O   UNL     1      -8.212  19.888  71.474  1.00  0.00     1.840 OA 
HETATM    8  H   UNL     1      -7.320  19.606  71.309  1.00  0.00     0.000 HD 
BRANCH   6   9
HETATM    9  C   UNL     1      -8.868  18.072  70.015  1.00  0.00     2.048 C  
HETATM   10  C   UNL     1      -9.603  18.296  68.911  1.00  0.00    -0.268 C  
BRANCH  10  11
HETATM   11  C   UNL     1      -9.522  17.482  67.635  1.00  0.00    -0.256 C  
HETATM   12  C   UNL     1     -10.315  18.193  66.517  1.00  0.00    -0.386 C  
HETATM   13  O   UNL     1     -11.714  17.973  66.636  1.00  0.00     1.521 OA 
HETATM   14  C   UNL     1      -9.792  17.620  65.218  1.00  0.00     1.001 C  
HETATM   15  H   UNL     1     -12.202  18.411  65.947  1.00  0.00     0.000 HD 
HETATM   16  C   UNL     1      -8.354  17.387  65.560  1.00  0.00     0.956 C  
HETATM   17  O   UNL     1      -7.491  17.262  64.698  1.00  0.00     3.339 OA 
HETATM   18  C   UNL     1      -8.099  17.294  67.058  1.00  0.00    -0.237 C  
BRANCH  18  19
HETATM   19  C   UNL     1      -7.521  15.924  67.445  1.00  0.00    -0.217 C  
BRANCH  19  20
HETATM   20  C   UNL     1      -6.932  15.151  66.293  1.00  0.00     2.764 C  
HETATM   21  C   UNL     1      -6.197  14.029  66.345  1.00  0.00     3.983 C  
BRANCH  21  22
HETATM   22  C   UNL     1      -5.779  13.305  67.588  1.00  0.00    -0.090 C  
BRANCH  22  23
HETATM   23  C   UNL     1      -6.795  13.446  68.720  1.00  0.00    -0.101 C  
BRANCH  23  24
HETATM   24  C   UNL     1      -8.034  12.607  68.403  1.00  0.00    -0.134 C  
HETATM   25  C   UNL     1      -9.307  13.413  68.443  1.00  0.00    -0.165 C  
HETATM   26  O   UNL     1      -9.387  14.602  68.698  1.00  0.00    -0.199 OA 
HETATM   27  O   UNL     1     -10.393  12.655  68.157  1.00  0.00    -0.220 OA 
ENDBRANCH  23  24
ENDBRANCH  22  23
ENDBRANCH  21  22
ENDBRANCH  19  20
ENDBRANCH  18  19
ENDBRANCH  10  11
ENDBRANCH   6   9
ENDBRANCH   5   6
ENDBRANCH   4   5
ENDBRANCH   3   4
ENDBRANCH   2   3
TORSDOF 11
ENDMDL
MODEL      385
REMARK 921   NORMALIZED FREE ENERGY PREDICTED BY IDOCK:   45.81 KCAL/MOL
REMARK 922        TOTAL FREE ENERGY PREDICTED BY IDOCK:   73.45 KCAL/MOL
REMARK 923 INTER-LIGAND FREE ENERGY PREDICTED BY IDOCK:   74.58 KCAL/MOL
REMARK 924 INTRA-LIGAND FREE ENERGY PREDICTED BY IDOCK:   -1.14 KCAL/MOL
REMARK 927      BINDING AFFINITY PREDICTED BY RF-SCORE:    0.00 PKD
ROOT
HETATM    1  C   UNL     1      -7.341  12.732  71.148  1.00  0.00     5.511 C  
HETATM    2  C   UNL     1      -7.662  13.673  70.001  1.00  0.00     1.410 C  
ENDROOT
BRANCH   2   3
HETATM    3  C   UNL     1      -8.314  12.944  68.825  1.00  0.00     0.140 C  
BRANCH   3   4
HETATM    4  C   UNL     1      -7.900  13.597  67.505  1.00  0.00    -0.185 C  
BRANCH   4   5
HETATM    5  C   UNL     1      -7.755  12.582  66.370  1.00  0.00     0.695 C  
BRANCH   5   6
HETATM    6  C   UNL     1      -8.501  12.994  65.088  1.00  0.00     2.865 C  
HETATM    7  O   UNL     1      -7.567  13.689  64.267  1.00  0.00    10.381 OA 
HETATM    8  H   UNL     1      -8.027  13.943  63.476  1.00  0.00     0.000 HD 
BRANCH   6   9
HETATM    9  C   UNL     1      -9.719  13.851  65.360  1.00  0.00    -0.096 C  
HETATM   10  C   UNL     1      -9.726  15.142  65.737  1.00  0.00    -0.379 C  
BRANCH  10  11
HETATM   11  C   UNL     1     -10.955  15.910  66.181  1.00  0.00    -0.126 C  
HETATM   12  C   UNL     1     -12.003  15.908  65.046  1.00  0.00     0.447 C  
HETATM   13  O   UNL     1     -11.698  16.864  64.040  1.00  0.00    -1.158 OA 
HETATM   14  C   UNL     1     -13.324  16.231  65.709  1.00  0.00     5.533 C  
HETATM   15  H   UNL     1     -12.343  16.863  63.342  1.00  0.00     0.000 HD 
HETATM   16  C   UNL     1     -13.152  15.568  67.040  1.00  0.00     3.503 C  
HETATM   17  O   UNL     1     -14.107  15.283  67.753  1.00  0.00     7.307 OA 
HETATM   18  C   UNL     1     -11.695  15.326  67.408  1.00  0.00    -0.120 C  
BRANCH  18  19
HETATM   19  C   UNL     1     -11.309  16.073  68.694  1.00  0.00    -0.383 C  
BRANCH  19  20
HETATM   20  C   UNL     1     -11.028  17.541  68.498  1.00  0.00     0.001 C  
HETATM   21  C   UNL     1     -10.719  18.452  69.435  1.00  0.00     0.929 C  
BRANCH  21  22
HETATM   22  C   UNL     1     -10.611  18.200  70.907  1.00  0.00     2.405 C  
BRANCH  22  23
HETATM   23  C   UNL     1      -9.162  18.127  71.387  1.00  0.00     8.030 C  
BRANCH  23  24
HETATM   24  C   UNL     1      -8.789  19.435  72.086  1.00  0.00     5.372 C  
HETATM   25  C   UNL     1      -8.392  19.231  73.526  1.00  0.00     6.179 C  
HETATM   26  O   UNL     1      -8.360  18.161  74.108  1.00  0.00     8.703 OA 
HETATM   27  O   UNL     1      -8.062  20.399  74.128  1.00  0.00     7.616 OA 
ENDBRANCH  23  24
ENDBRANCH  22  23
ENDBRANCH  21  22
ENDBRANCH  19  20
ENDBRANCH  18  19
ENDBRANCH  10  11
ENDBRANCH   6   9
ENDBRANCH   5   6
ENDBRANCH   4   5
ENDBRANCH   3   4
ENDBRANCH   2   3
TORSDOF 11
ENDMDL
