MODEL        1
REMARK 921   NORMALIZED FREE ENERGY PREDICTED BY IDOCK:   -4.24 KCAL/MOL
REMARK 922        TOTAL FREE ENERGY PREDICTED BY IDOCK:   -9.45 KCAL/MOL
REMARK 923 INTER-LIGAND FREE ENERGY PREDICTED BY IDOCK:   -7.71 KCAL/MOL
REMARK 924 INTRA-LIGAND FREE ENERGY PREDICTED BY IDOCK:   -1.73 KCAL/MOL
REMARK 927      BINDING AFFINITY PREDICTED BY RF-SCORE:    0.00 PKD
ROOT
HETATM    1  C   UNL     1     -10.488  19.505  65.867  1.00  0.00    -0.585 C  
HETATM    2  C   UNL     1     -10.856  19.524  67.342  1.00  0.00    -0.536 C  
ENDROOT
BRANCH   2   3
HETATM    3  C   UNL     1     -10.095  18.452  68.113  1.00  0.00    -0.408 C  
BRANCH   3   4
HETATM    4  C   UNL     1     -10.694  17.067  67.872  1.00  0.00    -0.348 C  
BRANCH   4   5
HETATM    5  C   UNL     1      -9.596  16.077  67.510  1.00  0.00    -0.222 C  
BRANCH   5   6
HETATM    6  C   UNL     1      -9.331  16.032  66.006  1.00  0.00    -0.380 C  
BRANCH   6   7
HETATM    7  C   UNL     1     -10.555  15.447  65.309  1.00  0.00    -0.450 C  
BRANCH   7   8
HETATM    8  C   UNL     1     -10.395  13.961  65.001  1.00  0.00    -0.396 C  
BRANCH   8   9
HETATM    9  N   UNL     1     -11.751  13.198  64.982  1.00  0.00    -0.323 N  
HETATM   10  C   UNL     1     -12.907  14.172  65.212  1.00  0.00    -0.344 C  
HETATM   11  C   UNL     1     -11.934  12.484  63.642  1.00  0.00    -0.537 C  
BRANCH   9  12
HETATM   12  C   UNL     1     -11.683  12.160  66.137  1.00  0.00    -0.315 C  
BRANCH  12  13
HETATM   13  C   UNL     1     -10.411  12.284  66.970  1.00  0.00    -0.237 C  
BRANCH  13  14
HETATM   14  C   UNL     1     -10.702  12.431  68.461  1.00  0.00    -0.262 C  
BRANCH  14  15
HETATM   15  C   UNL     1     -11.783  13.494  68.649  1.00  0.00    -0.389 C  
BRANCH  15  16
HETATM   16  C   UNL     1     -12.072  13.768  70.119  1.00  0.00    -0.429 C  
BRANCH  16  17
HETATM   17  C   UNL     1     -12.744  15.131  70.279  1.00  0.00    -0.340 C  
BRANCH  17  18
HETATM   18  C   UNL     1     -13.198  15.359  71.716  1.00  0.00    -0.544 C  
HETATM   19  C   UNL     1     -13.703  14.069  72.343  1.00  0.00    -0.669 C  
ENDBRANCH  17  18
ENDBRANCH  16  17
ENDBRANCH  15  16
ENDBRANCH  14  15
ENDBRANCH  13  14
ENDBRANCH  12  13
ENDBRANCH   9  12
ENDBRANCH   8   9
ENDBRANCH   7   8
ENDBRANCH   6   7
ENDBRANCH   5   6
ENDBRANCH   4   5
ENDBRANCH   3   4
ENDBRANCH   2   3
TORSDOF 14
ENDMDL
MODEL        2
REMARK 921   NORMALIZED FREE ENERGY PREDICTED BY IDOCK:   -4.23 KCAL/MOL
REMARK 922        TOTAL FREE ENERGY PREDICTED BY IDOCK:   -9.43 KCAL/MOL
REMARK 923 INTER-LIGAND FREE ENERGY PREDICTED BY IDOCK:   -7.80 KCAL/MOL
REMARK 924 INTRA-LIGAND FREE ENERGY PREDICTED BY IDOCK:   -1.63 KCAL/MOL
REMARK 927      BINDING AFFINITY PREDICTED BY RF-SCORE:    0.00 PKD
ROOT
HETATM    1  C   UNL     1     -12.163   8.831  71.900  1.00  0.00    -0.429 C  
HETATM    2  C   UNL     1     -13.295   9.841  72.002  1.00  0.00    -0.547 C  
ENDROOT
BRANCH   2   3
HETATM    3  C   UNL     1     -12.917  11.160  71.338  1.00  0.00    -0.506 C  
BRANCH   3   4
HETATM    4  C   UNL     1     -11.668  11.005  70.471  1.00  0.00    -0.416 C  
BRANCH   4   5
HETATM    5  C   UNL     1     -12.020  11.209  69.004  1.00  0.00    -0.389 C  
BRANCH   5   6
HETATM    6  C   UNL     1     -11.161  10.348  68.078  1.00  0.00    -0.359 C  
BRANCH   6   7
HETATM    7  C   UNL     1     -10.819  11.157  66.831  1.00  0.00    -0.333 C  
BRANCH   7   8
HETATM    8  C   UNL     1     -11.840  12.257  66.553  1.00  0.00    -0.306 C  
BRANCH   8   9
HETATM    9  N   UNL     1     -11.312  13.337  65.566  1.00  0.00    -0.291 N  
HETATM   10  C   UNL     1     -10.472  12.682  64.469  1.00  0.00    -0.355 C  
HETATM   11  C   UNL     1     -12.483  14.094  64.939  1.00  0.00    -0.401 C  
BRANCH   9  12
HETATM   12  C   UNL     1     -10.436  14.306  66.408  1.00  0.00    -0.282 C  
BRANCH  12  13
HETATM   13  C   UNL     1     -11.124  14.760  67.692  1.00  0.00    -0.311 C  
BRANCH  13  14
HETATM   14  C   UNL     1     -10.197  14.699  68.904  1.00  0.00    -0.241 C  
BRANCH  14  15
HETATM   15  C   UNL     1     -10.925  15.290  70.110  1.00  0.00    -0.312 C  
BRANCH  15  16
HETATM   16  C   UNL     1     -12.310  14.687  70.299  1.00  0.00    -0.406 C  
BRANCH  16  17
HETATM   17  C   UNL     1     -13.121  15.527  71.284  1.00  0.00    -0.581 C  
BRANCH  17  18
HETATM   18  C   UNL     1     -12.261  15.996  72.452  1.00  0.00    -0.603 C  
HETATM   19  C   UNL     1     -12.599  15.232  73.722  1.00  0.00    -0.736 C  
ENDBRANCH  17  18
ENDBRANCH  16  17
ENDBRANCH  15  16
ENDBRANCH  14  15
ENDBRANCH  13  14
ENDBRANCH  12  13
ENDBRANCH   9  12
ENDBRANCH   8   9
ENDBRANCH   7   8
ENDBRANCH   6   7
ENDBRANCH   5   6
ENDBRANCH   4   5
ENDBRANCH   3   4
ENDBRANCH   2   3
TORSDOF 14
ENDMDL
MODEL        3
REMARK 921   NORMALIZED FREE ENERGY PREDICTED BY IDOCK:   -4.16 KCAL/MOL
REMARK 922        TOTAL FREE ENERGY PREDICTED BY IDOCK:   -9.29 KCAL/MOL
REMARK 923 INTER-LIGAND FREE ENERGY PREDICTED BY IDOCK:   -8.13 KCAL/MOL
REMARK 924 INTRA-LIGAND FREE ENERGY PREDICTED BY IDOCK:   -1.17 KCAL/MOL
REMARK 927      BINDING AFFINITY PREDICTED BY RF-SCORE:    0.00 PKD
ROOT
HETATM    1  C   UNL     1     -12.612  15.381  73.617  1.00  0.00    -0.723 C  
HETATM    2  C   UNL     1     -13.873  15.634  72.807  1.00  0.00    -0.628 C  
ENDROOT
BRANCH   2   3
HETATM    3  C   UNL     1     -14.085  14.542  71.765  1.00  0.00    -0.578 C  
BRANCH   3   4
HETATM    4  C   UNL     1     -13.491  13.212  72.227  1.00  0.00    -0.665 C  
BRANCH   4   5
HETATM    5  C   UNL     1     -12.649  12.599  71.118  1.00  0.00    -0.354 C  
BRANCH   5   6
HETATM    6  C   UNL     1     -12.086  13.656  70.169  1.00  0.00    -0.431 C  
BRANCH   6   7
HETATM    7  C   UNL     1     -11.698  12.982  68.856  1.00  0.00    -0.371 C  
BRANCH   7   8
HETATM    8  C   UNL     1     -12.157  13.774  67.636  1.00  0.00    -0.298 C  
BRANCH   8   9
HETATM    9  N   UNL     1     -11.420  13.355  66.331  1.00  0.00    -0.317 N  
HETATM   10  C   UNL     1     -10.453  12.207  66.617  1.00  0.00    -0.220 C  
HETATM   11  C   UNL     1     -12.435  12.926  65.270  1.00  0.00    -0.493 C  
BRANCH   9  12
HETATM   12  C   UNL     1     -10.639  14.610  65.849  1.00  0.00    -0.311 C  
BRANCH  12  13
HETATM   13  C   UNL     1      -9.303  14.785  66.563  1.00  0.00    -0.316 C  
BRANCH  13  14
HETATM   14  C   UNL     1      -8.988  16.249  66.861  1.00  0.00    -0.242 C  
BRANCH  14  15
HETATM   15  C   UNL     1     -10.032  16.788  67.838  1.00  0.00    -0.268 C  
BRANCH  15  16
HETATM   16  C   UNL     1      -9.838  18.269  68.130  1.00  0.00    -0.356 C  
BRANCH  16  17
HETATM   17  C   UNL     1     -10.768  19.106  67.252  1.00  0.00    -0.585 C  
BRANCH  17  18
HETATM   18  C   UNL     1      -9.991  19.848  66.171  1.00  0.00    -0.593 C  
HETATM   19  C   UNL     1      -8.502  19.863  66.478  1.00  0.00    -0.379 C  
ENDBRANCH  17  18
ENDBRANCH  16  17
ENDBRANCH  15  16
ENDBRANCH  14  15
ENDBRANCH  13  14
ENDBRANCH  12  13
ENDBRANCH   9  12
ENDBRANCH   8   9
ENDBRANCH   7   8
ENDBRANCH   6   7
ENDBRANCH   5   6
ENDBRANCH   4   5
ENDBRANCH   3   4
ENDBRANCH   2   3
TORSDOF 14
ENDMDL
MODEL        4
REMARK 921   NORMALIZED FREE ENERGY PREDICTED BY IDOCK:   -4.14 KCAL/MOL
REMARK 922        TOTAL FREE ENERGY PREDICTED BY IDOCK:   -9.26 KCAL/MOL
REMARK 923 INTER-LIGAND FREE ENERGY PREDICTED BY IDOCK:   -7.94 KCAL/MOL
REMARK 924 INTRA-LIGAND FREE ENERGY PREDICTED BY IDOCK:   -1.32 KCAL/MOL
REMARK 927      BINDING AFFINITY PREDICTED BY RF-SCORE:    0.00 PKD
ROOT
HETATM    1  C   UNL     1     -11.522   6.560  70.419  1.00  0.00    -0.465 C  
HETATM    2  C   UNL     1     -12.070   6.813  71.814  1.00  0.00    -0.393 C  
ENDROOT
BRANCH   2   3
HETATM    3  C   UNL     1     -11.825   8.254  72.247  1.00  0.00    -0.451 C  
BRANCH   3   4
HETATM    4  C   UNL     1     -13.121   9.064  72.234  1.00  0.00    -0.508 C  
BRANCH   4   5
HETATM    5  C   UNL     1     -12.901  10.394  71.528  1.00  0.00    -0.569 C  
BRANCH   5   6
HETATM    6  C   UNL     1     -11.669  10.372  70.624  1.00  0.00    -0.444 C  
BRANCH   6   7
HETATM    7  C   UNL     1     -11.668  11.633  69.764  1.00  0.00    -0.425 C  
BRANCH   7   8
HETATM    8  C   UNL     1     -11.602  11.320  68.272  1.00  0.00    -0.300 C  
BRANCH   8   9
HETATM    9  N   UNL     1     -11.147  12.538  67.419  1.00  0.00    -0.259 N  
HETATM   10  C   UNL     1      -9.676  12.853  67.691  1.00  0.00    -0.212 C  
HETATM   11  C   UNL     1     -11.347  12.243  65.932  1.00  0.00    -0.360 C  
BRANCH   9  12
HETATM   12  C   UNL     1     -12.042  13.733  67.853  1.00  0.00    -0.287 C  
BRANCH  12  13
HETATM   13  C   UNL     1     -11.275  15.049  67.933  1.00  0.00    -0.330 C  
BRANCH  13  14
HETATM   14  C   UNL     1     -11.736  15.924  69.096  1.00  0.00    -0.369 C  
BRANCH  14  15
HETATM   15  C   UNL     1     -10.820  15.674  70.293  1.00  0.00    -0.366 C  
BRANCH  15  16
HETATM   16  C   UNL     1     -11.521  14.903  71.404  1.00  0.00    -0.317 C  
BRANCH  16  17
HETATM   17  C   UNL     1     -11.998  15.863  72.492  1.00  0.00    -0.622 C  
BRANCH  17  18
HETATM   18  C   UNL     1     -13.383  15.479  73.001  1.00  0.00    -0.650 C  
HETATM   19  C   UNL     1     -13.970  14.338  72.186  1.00  0.00    -0.618 C  
ENDBRANCH  17  18
ENDBRANCH  16  17
ENDBRANCH  15  16
ENDBRANCH  14  15
ENDBRANCH  13  14
ENDBRANCH  12  13
ENDBRANCH   9  12
ENDBRANCH   8   9
ENDBRANCH   7   8
ENDBRANCH   6   7
ENDBRANCH   5   6
ENDBRANCH   4   5
ENDBRANCH   3   4
ENDBRANCH   2   3
TORSDOF 14
ENDMDL
MODEL        5
REMARK 921   NORMALIZED FREE ENERGY PREDICTED BY IDOCK:   -4.13 KCAL/MOL
REMARK 922        TOTAL FREE ENERGY PREDICTED BY IDOCK:   -9.25 KCAL/MOL
REMARK 923 INTER-LIGAND FREE ENERGY PREDICTED BY IDOCK:   -7.14 KCAL/MOL
REMARK 924 INTRA-LIGAND FREE ENERGY PREDICTED BY IDOCK:   -2.11 KCAL/MOL
REMARK 927      BINDING AFFINITY PREDICTED BY RF-SCORE:    0.00 PKD
ROOT
HETATM    1  C   UNL     1     -13.624  13.532  72.340  1.00  0.00    -0.709 C  
HETATM    2  C   UNL     1     -12.932  12.779  71.215  1.00  0.00    -0.310 C  
ENDROOT
BRANCH   2   3
HETATM    3  C   UNL     1     -12.939  11.277  71.474  1.00  0.00    -0.520 C  
BRANCH   3   4
HETATM    4  C   UNL     1     -11.935  10.555  70.577  1.00  0.00    -0.436 C  
BRANCH   4   5
HETATM    5  C   UNL     1     -11.334  11.528  69.573  1.00  0.00    -0.342 C  
BRANCH   5   6
HETATM    6  C   UNL     1     -11.618  11.117  68.128  1.00  0.00    -0.350 C  
BRANCH   6   7
HETATM    7  C   UNL     1     -11.669  12.372  67.261  1.00  0.00    -0.419 C  
BRANCH   7   8
HETATM    8  C   UNL     1     -11.411  12.072  65.787  1.00  0.00    -0.331 C  
BRANCH   8   9
HETATM    9  N   UNL     1     -11.686  13.294  64.865  1.00  0.00    -0.329 N  
HETATM   10  C   UNL     1     -12.074  12.820  63.464  1.00  0.00    -0.559 C  
HETATM   11  C   UNL     1     -12.807  14.154  65.451  1.00  0.00    -0.368 C  
BRANCH   9  12
HETATM   12  C   UNL     1     -10.361  14.105  64.810  1.00  0.00    -0.359 C  
BRANCH  12  13
HETATM   13  C   UNL     1     -10.522  15.535  65.317  1.00  0.00    -0.437 C  
BRANCH  13  14
HETATM   14  C   UNL     1      -9.440  15.924  66.321  1.00  0.00    -0.350 C  
BRANCH  14  15
HETATM   15  C   UNL     1      -8.688  14.663  66.746  1.00  0.00    -0.233 C  
BRANCH  15  16
HETATM   16  C   UNL     1      -8.888  14.343  68.221  1.00  0.00    -0.182 C  
BRANCH  16  17
HETATM   17  C   UNL     1      -9.388  15.579  68.966  1.00  0.00    -0.235 C  
BRANCH  17  18
HETATM   18  C   UNL     1     -10.596  15.250  69.837  1.00  0.00    -0.291 C  
HETATM   19  C   UNL     1     -11.893  15.612  69.134  1.00  0.00    -0.378 C  
ENDBRANCH  17  18
ENDBRANCH  16  17
ENDBRANCH  15  16
ENDBRANCH  14  15
ENDBRANCH  13  14
ENDBRANCH  12  13
ENDBRANCH   9  12
ENDBRANCH   8   9
ENDBRANCH   7   8
ENDBRANCH   6   7
ENDBRANCH   5   6
ENDBRANCH   4   5
ENDBRANCH   3   4
ENDBRANCH   2   3
TORSDOF 14
ENDMDL
MODEL        6
REMARK 921   NORMALIZED FREE ENERGY PREDICTED BY IDOCK:   -4.11 KCAL/MOL
REMARK 922        TOTAL FREE ENERGY PREDICTED BY IDOCK:   -9.21 KCAL/MOL
REMARK 923 INTER-LIGAND FREE ENERGY PREDICTED BY IDOCK:   -7.39 KCAL/MOL
REMARK 924 INTRA-LIGAND FREE ENERGY PREDICTED BY IDOCK:   -1.81 KCAL/MOL
REMARK 927      BINDING AFFINITY PREDICTED BY RF-SCORE:    0.00 PKD
ROOT
HETATM    1  C   UNL     1     -12.711  15.767  73.889  1.00  0.00    -0.737 C  
HETATM    2  C   UNL     1     -13.638  15.576  72.700  1.00  0.00    -0.657 C  
ENDROOT
BRANCH   2   3
HETATM    3  C   UNL     1     -13.563  14.150  72.168  1.00  0.00    -0.568 C  
BRANCH   3   4
HETATM    4  C   UNL     1     -12.391  13.979  71.202  1.00  0.00    -0.443 C  
BRANCH   4   5
HETATM    5  C   UNL     1     -12.205  15.243  70.375  1.00  0.00    -0.404 C  
BRANCH   5   6
HETATM    6  C   UNL     1     -10.736  15.506  70.045  1.00  0.00    -0.331 C  
BRANCH   6   7
HETATM    7  C   UNL     1     -10.635  16.812  69.262  1.00  0.00    -0.336 C  
BRANCH   7   8
HETATM    8  C   UNL     1      -9.363  16.891  68.422  1.00  0.00    -0.255 C  
BRANCH   8   9
HETATM    9  N   UNL     1      -9.537  17.757  67.142  1.00  0.00    -0.269 N  
HETATM   10  C   UNL     1     -10.181  19.097  67.495  1.00  0.00    -0.403 C  
HETATM   11  C   UNL     1      -8.179  17.993  66.479  1.00  0.00    -0.271 C  
BRANCH   9  12
HETATM   12  C   UNL     1     -10.463  16.948  66.191  1.00  0.00    -0.272 C  
BRANCH  12  13
HETATM   13  C   UNL     1      -9.921  15.556  65.880  1.00  0.00    -0.377 C  
BRANCH  13  14
HETATM   14  C   UNL     1     -11.028  14.564  65.529  1.00  0.00    -0.337 C  
BRANCH  14  15
HETATM   15  C   UNL     1     -11.853  14.282  66.784  1.00  0.00    -0.449 C  
BRANCH  15  16
HETATM   16  C   UNL     1     -11.735  12.834  67.237  1.00  0.00    -0.440 C  
BRANCH  16  17
HETATM   17  C   UNL     1     -10.519  12.663  68.146  1.00  0.00    -0.239 C  
BRANCH  17  18
HETATM   18  C   UNL     1     -10.664  11.439  69.043  1.00  0.00    -0.245 C  
HETATM   19  C   UNL     1     -12.124  11.050  69.207  1.00  0.00    -0.363 C  
ENDBRANCH  17  18
ENDBRANCH  16  17
ENDBRANCH  15  16
ENDBRANCH  14  15
ENDBRANCH  13  14
ENDBRANCH  12  13
ENDBRANCH   9  12
ENDBRANCH   8   9
ENDBRANCH   7   8
ENDBRANCH   6   7
ENDBRANCH   5   6
ENDBRANCH   4   5
ENDBRANCH   3   4
ENDBRANCH   2   3
TORSDOF 14
ENDMDL
MODEL        7
REMARK 921   NORMALIZED FREE ENERGY PREDICTED BY IDOCK:   -4.11 KCAL/MOL
REMARK 922        TOTAL FREE ENERGY PREDICTED BY IDOCK:   -9.20 KCAL/MOL
REMARK 923 INTER-LIGAND FREE ENERGY PREDICTED BY IDOCK:   -7.66 KCAL/MOL
REMARK 924 INTRA-LIGAND FREE ENERGY PREDICTED BY IDOCK:   -1.54 KCAL/MOL
REMARK 927      BINDING AFFINITY PREDICTED BY RF-SCORE:    0.00 PKD
ROOT
HETATM    1  C   UNL     1     -10.598  19.538  66.159  1.00  0.00    -0.585 C  
HETATM    2  C   UNL     1     -10.523  19.281  67.655  1.00  0.00    -0.557 C  
ENDROOT
BRANCH   2   3
HETATM    3  C   UNL     1      -9.116  19.529  68.185  1.00  0.00    -0.396 C  
BRANCH   3   4
HETATM    4  C   UNL     1      -8.277  18.252  68.149  1.00  0.00    -0.295 C  
BRANCH   4   5
HETATM    5  C   UNL     1      -9.106  17.067  68.621  1.00  0.00    -0.271 C  
BRANCH   5   6
HETATM    6  C   UNL     1      -8.660  15.755  67.975  1.00  0.00    -0.163 C  
BRANCH   6   7
HETATM    7  C   UNL     1      -9.236  15.682  66.564  1.00  0.00    -0.325 C  
BRANCH   7   8
HETATM    8  C   UNL     1      -9.668  14.269  66.183  1.00  0.00    -0.303 C  
BRANCH   8   9
HETATM    9  N   UNL     1     -11.129  14.207  65.652  1.00  0.00    -0.301 N  
HETATM   10  C   UNL     1     -11.445  15.456  64.830  1.00  0.00    -0.336 C  
HETATM   11  C   UNL     1     -11.322  12.957  64.791  1.00  0.00    -0.315 C  
BRANCH   9  12
HETATM   12  C   UNL     1     -12.046  14.141  66.905  1.00  0.00    -0.432 C  
BRANCH  12  13
HETATM   13  C   UNL     1     -11.696  12.983  67.834  1.00  0.00    -0.402 C  
BRANCH  13  14
HETATM   14  C   UNL     1     -11.794  13.368  69.309  1.00  0.00    -0.385 C  
BRANCH  14  15
HETATM   15  C   UNL     1     -11.975  14.881  69.411  1.00  0.00    -0.336 C  
BRANCH  15  16
HETATM   16  C   UNL     1     -12.832  15.280  70.605  1.00  0.00    -0.462 C  
BRANCH  16  17
HETATM   17  C   UNL     1     -11.979  15.996  71.650  1.00  0.00    -0.569 C  
BRANCH  17  18
HETATM   18  C   UNL     1     -11.971  15.238  72.973  1.00  0.00    -0.517 C  
HETATM   19  C   UNL     1     -12.545  16.088  74.095  1.00  0.00    -0.714 C  
ENDBRANCH  17  18
ENDBRANCH  16  17
ENDBRANCH  15  16
ENDBRANCH  14  15
ENDBRANCH  13  14
ENDBRANCH  12  13
ENDBRANCH   9  12
ENDBRANCH   8   9
ENDBRANCH   7   8
ENDBRANCH   6   7
ENDBRANCH   5   6
ENDBRANCH   4   5
ENDBRANCH   3   4
ENDBRANCH   2   3
TORSDOF 14
ENDMDL
MODEL        8
REMARK 921   NORMALIZED FREE ENERGY PREDICTED BY IDOCK:   -4.09 KCAL/MOL
REMARK 922        TOTAL FREE ENERGY PREDICTED BY IDOCK:   -9.18 KCAL/MOL
REMARK 923 INTER-LIGAND FREE ENERGY PREDICTED BY IDOCK:   -7.94 KCAL/MOL
REMARK 924 INTRA-LIGAND FREE ENERGY PREDICTED BY IDOCK:   -1.23 KCAL/MOL
REMARK 927      BINDING AFFINITY PREDICTED BY RF-SCORE:    0.00 PKD
ROOT
HETATM    1  C   UNL     1     -12.793  12.168  71.314  1.00  0.00    -0.349 C  
HETATM    2  C   UNL     1     -13.621  12.868  72.379  1.00  0.00    -0.577 C  
ENDROOT
BRANCH   2   3
HETATM    3  C   UNL     1     -13.931  14.305  71.977  1.00  0.00    -0.595 C  
BRANCH   3   4
HETATM    4  C   UNL     1     -13.287  15.301  72.941  1.00  0.00    -0.616 C  
BRANCH   4   5
HETATM    5  C   UNL     1     -12.103  15.985  72.274  1.00  0.00    -0.617 C  
BRANCH   5   6
HETATM    6  C   UNL     1     -12.128  15.833  70.753  1.00  0.00    -0.448 C  
BRANCH   6   7
HETATM    7  C   UNL     1     -10.771  15.315  70.288  1.00  0.00    -0.283 C  
BRANCH   7   8
HETATM    8  C   UNL     1     -10.877  14.444  69.040  1.00  0.00    -0.252 C  
BRANCH   8   9
HETATM    9  N   UNL     1      -9.976  14.945  67.875  1.00  0.00    -0.218 N  
HETATM   10  C   UNL     1      -9.360  16.299  68.229  1.00  0.00    -0.204 C  
HETATM   11  C   UNL     1      -8.867  13.930  67.593  1.00  0.00    -0.191 C  
BRANCH   9  12
HETATM   12  C   UNL     1     -10.903  15.083  66.635  1.00  0.00    -0.318 C  
BRANCH  12  13
HETATM   13  C   UNL     1     -12.060  14.089  66.648  1.00  0.00    -0.487 C  
BRANCH  13  14
HETATM   14  C   UNL     1     -12.698  13.918  65.272  1.00  0.00    -0.485 C  
BRANCH  14  15
HETATM   15  C   UNL     1     -12.473  12.481  64.800  1.00  0.00    -0.532 C  
BRANCH  15  16
HETATM   16  C   UNL     1     -11.923  12.420  63.382  1.00  0.00    -0.595 C  
BRANCH  16  17
HETATM   17  C   UNL     1     -10.468  11.954  63.400  1.00  0.00    -0.487 C  
BRANCH  17  18
HETATM   18  C   UNL     1     -10.061  11.464  64.785  1.00  0.00    -0.326 C  
HETATM   19  C   UNL     1      -9.697   9.989  64.760  1.00  0.00    -0.363 C  
ENDBRANCH  17  18
ENDBRANCH  16  17
ENDBRANCH  15  16
ENDBRANCH  14  15
ENDBRANCH  13  14
ENDBRANCH  12  13
ENDBRANCH   9  12
ENDBRANCH   8   9
ENDBRANCH   7   8
ENDBRANCH   6   7
ENDBRANCH   5   6
ENDBRANCH   4   5
ENDBRANCH   3   4
ENDBRANCH   2   3
TORSDOF 14
ENDMDL
MODEL        9
REMARK 921   NORMALIZED FREE ENERGY PREDICTED BY IDOCK:   -4.09 KCAL/MOL
REMARK 922        TOTAL FREE ENERGY PREDICTED BY IDOCK:   -9.17 KCAL/MOL
REMARK 923 INTER-LIGAND FREE ENERGY PREDICTED BY IDOCK:   -7.68 KCAL/MOL
REMARK 924 INTRA-LIGAND FREE ENERGY PREDICTED BY IDOCK:   -1.49 KCAL/MOL
REMARK 927      BINDING AFFINITY PREDICTED BY RF-SCORE:    0.00 PKD
ROOT
HETATM    1  C   UNL     1     -12.886  15.782  73.603  1.00  0.00    -0.716 C  
HETATM    2  C   UNL     1     -13.903  15.300  72.580  1.00  0.00    -0.626 C  
ENDROOT
BRANCH   2   3
HETATM    3  C   UNL     1     -13.682  13.831  72.236  1.00  0.00    -0.673 C  
BRANCH   3   4
HETATM    4  C   UNL     1     -12.627  13.671  71.142  1.00  0.00    -0.452 C  
BRANCH   4   5
HETATM    5  C   UNL     1     -12.372  12.195  70.872  1.00  0.00    -0.370 C  
BRANCH   5   6
HETATM    6  C   UNL     1     -13.157  11.290  71.820  1.00  0.00    -0.527 C  
BRANCH   6   7
HETATM    7  C   UNL     1     -13.092   9.857  71.299  1.00  0.00    -0.487 C  
BRANCH   7   8
HETATM    8  C   UNL     1     -12.618   8.871  72.363  1.00  0.00    -0.353 C  
BRANCH   8   9
HETATM    9  N   UNL     1     -11.367   8.059  71.921  1.00  0.00    -0.267 N  
HETATM   10  C   UNL     1     -10.805   7.271  73.103  1.00  0.00    -0.357 C  
HETATM   11  C   UNL     1     -11.736   7.101  70.787  1.00  0.00    -0.323 C  
BRANCH   9  12
HETATM   12  C   UNL     1     -10.325   9.101  71.424  1.00  0.00    -0.338 C  
BRANCH  12  13
HETATM   13  C   UNL     1      -9.885   8.857  69.984  1.00  0.00    -0.188 C  
BRANCH  13  14
HETATM   14  C   UNL     1      -9.785  10.150  69.178  1.00  0.00    -0.225 C  
BRANCH  14  15
HETATM   15  C   UNL     1     -10.982  10.235  68.232  1.00  0.00    -0.315 C  
BRANCH  15  16
HETATM   16  C   UNL     1     -10.558  10.373  66.777  1.00  0.00    -0.270 C  
BRANCH  16  17
HETATM   17  C   UNL     1     -10.944  11.752  66.244  1.00  0.00    -0.346 C  
BRANCH  17  18
HETATM   18  C   UNL     1     -11.889  12.471  67.200  1.00  0.00    -0.386 C  
HETATM   19  C   UNL     1     -11.904  13.967  66.934  1.00  0.00    -0.458 C  
ENDBRANCH  17  18
ENDBRANCH  16  17
ENDBRANCH  15  16
ENDBRANCH  14  15
ENDBRANCH  13  14
ENDBRANCH  12  13
ENDBRANCH   9  12
ENDBRANCH   8   9
ENDBRANCH   7   8
ENDBRANCH   6   7
ENDBRANCH   5   6
ENDBRANCH   4   5
ENDBRANCH   3   4
ENDBRANCH   2   3
TORSDOF 14
ENDMDL
MODEL       10
REMARK 921   NORMALIZED FREE ENERGY PREDICTED BY IDOCK:   -4.05 KCAL/MOL
REMARK 922        TOTAL FREE ENERGY PREDICTED BY IDOCK:   -9.11 KCAL/MOL
REMARK 923 INTER-LIGAND FREE ENERGY PREDICTED BY IDOCK:   -7.98 KCAL/MOL
REMARK 924 INTRA-LIGAND FREE ENERGY PREDICTED BY IDOCK:   -1.13 KCAL/MOL
REMARK 927      BINDING AFFINITY PREDICTED BY RF-SCORE:    0.00 PKD
ROOT
HETATM    1  C   UNL     1     -12.530  15.443  73.939  1.00  0.00    -0.763 C  
HETATM    2  C   UNL     1     -13.551  15.319  72.820  1.00  0.00    -0.611 C  
ENDROOT
BRANCH   2   3
HETATM    3  C   UNL     1     -13.384  14.005  72.067  1.00  0.00    -0.514 C  
BRANCH   3   4
HETATM    4  C   UNL     1     -12.367  14.140  70.934  1.00  0.00    -0.438 C  
BRANCH   4   5
HETATM    5  C   UNL     1     -12.390  15.556  70.376  1.00  0.00    -0.451 C  
BRANCH   5   6
HETATM    6  C   UNL     1     -11.821  15.627  68.959  1.00  0.00    -0.379 C  
BRANCH   6   7
HETATM    7  C   UNL     1     -11.961  14.256  68.304  1.00  0.00    -0.346 C  
BRANCH   7   8
HETATM    8  C   UNL     1     -10.840  13.970  67.309  1.00  0.00    -0.284 C  
BRANCH   8   9
HETATM    9  N   UNL     1     -11.362  13.405  65.956  1.00  0.00    -0.304 N  
HETATM   10  C   UNL     1     -12.779  13.912  65.685  1.00  0.00    -0.495 C  
HETATM   11  C   UNL     1     -10.434  13.828  64.817  1.00  0.00    -0.428 C  
BRANCH   9  12
HETATM   12  C   UNL     1     -11.362  11.858  66.101  1.00  0.00    -0.324 C  
BRANCH  12  13
HETATM   13  C   UNL     1     -10.427  11.366  67.202  1.00  0.00    -0.259 C  
BRANCH  13  14
HETATM   14  C   UNL     1     -11.114  10.397  68.162  1.00  0.00    -0.344 C  
BRANCH  14  15
HETATM   15  C   UNL     1     -10.919  10.900  69.591  1.00  0.00    -0.311 C  
BRANCH  15  16
HETATM   16  C   UNL     1     -11.923  10.288  70.559  1.00  0.00    -0.415 C  
BRANCH  16  17
HETATM   17  C   UNL     1     -11.216   9.334  71.519  1.00  0.00    -0.457 C  
BRANCH  17  18
HETATM   18  C   UNL     1     -12.210   8.412  72.216  1.00  0.00    -0.449 C  
HETATM   19  C   UNL     1     -12.371   7.105  71.456  1.00  0.00    -0.406 C  
ENDBRANCH  17  18
ENDBRANCH  16  17
ENDBRANCH  15  16
ENDBRANCH  14  15
ENDBRANCH  13  14
ENDBRANCH  12  13
ENDBRANCH   9  12
ENDBRANCH   8   9
ENDBRANCH   7   8
ENDBRANCH   6   7
ENDBRANCH   5   6
ENDBRANCH   4   5
ENDBRANCH   3   4
ENDBRANCH   2   3
TORSDOF 14
ENDMDL
MODEL       11
REMARK 921   NORMALIZED FREE ENERGY PREDICTED BY IDOCK:   -3.99 KCAL/MOL
REMARK 922        TOTAL FREE ENERGY PREDICTED BY IDOCK:   -9.00 KCAL/MOL
REMARK 923 INTER-LIGAND FREE ENERGY PREDICTED BY IDOCK:   -7.74 KCAL/MOL
REMARK 924 INTRA-LIGAND FREE ENERGY PREDICTED BY IDOCK:   -1.26 KCAL/MOL
REMARK 927      BINDING AFFINITY PREDICTED BY RF-SCORE:    0.00 PKD
ROOT
HETATM    1  C   UNL     1     -10.261  11.712  63.562  1.00  0.00    -0.474 C  
HETATM    2  C   UNL     1     -11.749  12.024  63.574  1.00  0.00    -0.566 C  
ENDROOT
BRANCH   2   3
HETATM    3  C   UNL     1     -12.010  13.438  64.080  1.00  0.00    -0.520 C  
BRANCH   3   4
HETATM    4  C   UNL     1     -12.757  13.420  65.413  1.00  0.00    -0.484 C  
BRANCH   4   5
HETATM    5  C   UNL     1     -11.841  13.894  66.533  1.00  0.00    -0.440 C  
BRANCH   5   6
HETATM    6  C   UNL     1     -11.862  12.950  67.735  1.00  0.00    -0.391 C  
BRANCH   6   7
HETATM    7  C   UNL     1     -10.899  11.797  67.471  1.00  0.00    -0.286 C  
BRANCH   7   8
HETATM    8  C   UNL     1     -11.398  10.477  68.051  1.00  0.00    -0.246 C  
BRANCH   8   9
HETATM    9  N   UNL     1     -10.370   9.811  69.011  1.00  0.00    -0.199 N  
HETATM   10  C   UNL     1     -10.374   8.295  68.819  1.00  0.00    -0.205 C  
HETATM   11  C   UNL     1      -8.969  10.364  68.746  1.00  0.00    -0.157 C  
BRANCH   9  12
HETATM   12  C   UNL     1     -10.824  10.172  70.453  1.00  0.00    -0.301 C  
BRANCH  12  13
HETATM   13  C   UNL     1     -12.152   9.526  70.835  1.00  0.00    -0.357 C  
BRANCH  13  14
HETATM   14  C   UNL     1     -13.020  10.441  71.696  1.00  0.00    -0.581 C  
BRANCH  14  15
HETATM   15  C   UNL     1     -12.781  11.889  71.270  1.00  0.00    -0.401 C  
BRANCH  15  16
HETATM   16  C   UNL     1     -13.501  12.881  72.174  1.00  0.00    -0.619 C  
BRANCH  16  17
HETATM   17  C   UNL     1     -13.381  14.294  71.607  1.00  0.00    -0.442 C  
BRANCH  17  18
HETATM   18  C   UNL     1     -12.054  14.937  71.994  1.00  0.00    -0.436 C  
HETATM   19  C   UNL     1     -12.254  16.020  73.040  1.00  0.00    -0.637 C  
ENDBRANCH  17  18
ENDBRANCH  16  17
ENDBRANCH  15  16
ENDBRANCH  14  15
ENDBRANCH  13  14
ENDBRANCH  12  13
ENDBRANCH   9  12
ENDBRANCH   8   9
ENDBRANCH   7   8
ENDBRANCH   6   7
ENDBRANCH   5   6
ENDBRANCH   4   5
ENDBRANCH   3   4
ENDBRANCH   2   3
TORSDOF 14
ENDMDL
MODEL       12
REMARK 921   NORMALIZED FREE ENERGY PREDICTED BY IDOCK:   -3.99 KCAL/MOL
REMARK 922        TOTAL FREE ENERGY PREDICTED BY IDOCK:   -8.98 KCAL/MOL
REMARK 923 INTER-LIGAND FREE ENERGY PREDICTED BY IDOCK:   -6.87 KCAL/MOL
REMARK 924 INTRA-LIGAND FREE ENERGY PREDICTED BY IDOCK:   -2.12 KCAL/MOL
REMARK 927      BINDING AFFINITY PREDICTED BY RF-SCORE:    0.00 PKD
ROOT
HETATM    1  C   UNL     1      -9.474  10.782  62.863  1.00  0.00    -0.373 C  
HETATM    2  C   UNL     1     -10.502  11.113  63.934  1.00  0.00    -0.445 C  
ENDROOT
BRANCH   2   3
HETATM    3  C   UNL     1     -11.307  12.351  63.557  1.00  0.00    -0.553 C  
BRANCH   3   4
HETATM    4  C   UNL     1     -12.408  12.628  64.581  1.00  0.00    -0.546 C  
BRANCH   4   5
HETATM    5  C   UNL     1     -12.210  14.001  65.206  1.00  0.00    -0.451 C  
BRANCH   5   6
HETATM    6  C   UNL     1     -10.843  14.597  64.870  1.00  0.00    -0.436 C  
BRANCH   6   7
HETATM    7  C   UNL     1     -10.840  16.072  65.263  1.00  0.00    -0.376 C  
BRANCH   7   8
HETATM    8  C   UNL     1      -9.674  16.427  66.181  1.00  0.00    -0.327 C  
BRANCH   8   9
HETATM    9  N   UNL     1      -9.847  17.813  66.867  1.00  0.00    -0.298 N  
HETATM   10  C   UNL     1      -8.486  18.363  67.293  1.00  0.00    -0.254 C  
HETATM   11  C   UNL     1     -10.526  18.793  65.911  1.00  0.00    -0.376 C  
BRANCH   9  12
HETATM   12  C   UNL     1     -10.743  17.572  68.114  1.00  0.00    -0.329 C  
BRANCH  12  13
HETATM   13  C   UNL     1     -10.168  16.526  69.064  1.00  0.00    -0.285 C  
BRANCH  13  14
HETATM   14  C   UNL     1     -11.254  15.697  69.746  1.00  0.00    -0.322 C  
BRANCH  14  15
HETATM   15  C   UNL     1     -11.821  14.702  68.734  1.00  0.00    -0.348 C  
BRANCH  15  16
HETATM   16  C   UNL     1     -11.287  13.293  68.950  1.00  0.00    -0.333 C  
BRANCH  16  17
HETATM   17  C   UNL     1     -10.015  13.079  68.133  1.00  0.00    -0.231 C  
BRANCH  17  18
HETATM   18  C   UNL     1      -9.973  11.681  67.527  1.00  0.00    -0.202 C  
HETATM   19  C   UNL     1     -11.282  10.944  67.759  1.00  0.00    -0.384 C  
ENDBRANCH  17  18
ENDBRANCH  16  17
ENDBRANCH  15  16
ENDBRANCH  14  15
ENDBRANCH  13  14
ENDBRANCH  12  13
ENDBRANCH   9  12
ENDBRANCH   8   9
ENDBRANCH   7   8
ENDBRANCH   6   7
ENDBRANCH   5   6
ENDBRANCH   4   5
ENDBRANCH   3   4
ENDBRANCH   2   3
TORSDOF 14
ENDMDL
MODEL       13
REMARK 921   NORMALIZED FREE ENERGY PREDICTED BY IDOCK:   -3.98 KCAL/MOL
REMARK 922        TOTAL FREE ENERGY PREDICTED BY IDOCK:   -8.98 KCAL/MOL
REMARK 923 INTER-LIGAND FREE ENERGY PREDICTED BY IDOCK:   -7.85 KCAL/MOL
REMARK 924 INTRA-LIGAND FREE ENERGY PREDICTED BY IDOCK:   -1.13 KCAL/MOL
REMARK 927      BINDING AFFINITY PREDICTED BY RF-SCORE:    0.00 PKD
ROOT
HETATM    1  C   UNL     1     -13.308  15.748  73.108  1.00  0.00    -0.685 C  
HETATM    2  C   UNL     1     -13.900  15.145  71.844  1.00  0.00    -0.607 C  
ENDROOT
BRANCH   2   3
HETATM    3  C   UNL     1     -13.010  14.036  71.295  1.00  0.00    -0.418 C  
BRANCH   3   4
HETATM    4  C   UNL     1     -13.304  12.700  71.976  1.00  0.00    -0.555 C  
BRANCH   4   5
HETATM    5  C   UNL     1     -12.684  11.560  71.183  1.00  0.00    -0.458 C  
BRANCH   5   6
HETATM    6  C   UNL     1     -11.953  12.054  69.934  1.00  0.00    -0.391 C  
BRANCH   6   7
HETATM    7  C   UNL     1     -11.122  10.908  69.366  1.00  0.00    -0.317 C  
BRANCH   7   8
HETATM    8  C   UNL     1     -11.181  10.845  67.842  1.00  0.00    -0.321 C  
BRANCH   8   9
HETATM    9  N   UNL     1      -9.877  10.281  67.209  1.00  0.00    -0.176 N  
HETATM   10  C   UNL     1      -8.732  10.341  68.219  1.00  0.00    -0.126 C  
HETATM   11  C   UNL     1     -10.094   8.836  66.757  1.00  0.00    -0.288 C  
BRANCH   9  12
HETATM   12  C   UNL     1      -9.562  11.184  65.983  1.00  0.00    -0.217 C  
BRANCH  12  13
HETATM   13  C   UNL     1     -10.190  10.669  64.692  1.00  0.00    -0.404 C  
BRANCH  13  14
HETATM   14  C   UNL     1     -10.433  11.783  63.677  1.00  0.00    -0.490 C  
BRANCH  14  15
HETATM   15  C   UNL     1     -11.939  11.972  63.505  1.00  0.00    -0.605 C  
BRANCH  15  16
HETATM   16  C   UNL     1     -12.541  12.834  64.607  1.00  0.00    -0.491 C  
BRANCH  16  17
HETATM   17  C   UNL     1     -12.104  14.288  64.437  1.00  0.00    -0.490 C  
BRANCH  17  18
HETATM   18  C   UNL     1     -11.362  14.791  65.670  1.00  0.00    -0.343 C  
HETATM   19  C   UNL     1     -12.022  14.295  66.947  1.00  0.00    -0.467 C  
ENDBRANCH  17  18
ENDBRANCH  16  17
ENDBRANCH  15  16
ENDBRANCH  14  15
ENDBRANCH  13  14
ENDBRANCH  12  13
ENDBRANCH   9  12
ENDBRANCH   8   9
ENDBRANCH   7   8
ENDBRANCH   6   7
ENDBRANCH   5   6
ENDBRANCH   4   5
ENDBRANCH   3   4
ENDBRANCH   2   3
TORSDOF 14
ENDMDL
MODEL       14
REMARK 921   NORMALIZED FREE ENERGY PREDICTED BY IDOCK:   -3.97 KCAL/MOL
REMARK 922        TOTAL FREE ENERGY PREDICTED BY IDOCK:   -8.95 KCAL/MOL
REMARK 923 INTER-LIGAND FREE ENERGY PREDICTED BY IDOCK:   -7.87 KCAL/MOL
REMARK 924 INTRA-LIGAND FREE ENERGY PREDICTED BY IDOCK:   -1.09 KCAL/MOL
REMARK 927      BINDING AFFINITY PREDICTED BY RF-SCORE:    0.00 PKD
ROOT
HETATM    1  C   UNL     1     -10.327  11.164  64.691  1.00  0.00    -0.393 C  
HETATM    2  C   UNL     1     -10.665  11.793  63.349  1.00  0.00    -0.468 C  
ENDROOT
BRANCH   2   3
HETATM    3  C   UNL     1     -11.944  12.618  63.436  1.00  0.00    -0.613 C  
BRANCH   3   4
HETATM    4  C   UNL     1     -12.529  12.587  64.847  1.00  0.00    -0.524 C  
BRANCH   4   5
HETATM    5  C   UNL     1     -12.515  13.983  65.452  1.00  0.00    -0.520 C  
BRANCH   5   6
HETATM    6  C   UNL     1     -11.785  14.990  64.563  1.00  0.00    -0.372 C  
BRANCH   6   7
HETATM    7  C   UNL     1     -10.644  15.614  65.362  1.00  0.00    -0.436 C  
BRANCH   7   8
HETATM    8  C   UNL     1     -10.783  15.371  66.862  1.00  0.00    -0.314 C  
BRANCH   8   9
HETATM    9  N   UNL     1      -9.999  16.407  67.717  1.00  0.00    -0.244 N  
HETATM   10  C   UNL     1      -8.618  15.858  68.075  1.00  0.00    -0.164 C  
HETATM   11  C   UNL     1      -9.851  17.721  66.948  1.00  0.00    -0.312 C  
BRANCH   9  12
HETATM   12  C   UNL     1     -10.838  16.633  69.006  1.00  0.00    -0.314 C  
BRANCH  12  13
HETATM   13  C   UNL     1     -11.875  15.538  69.236  1.00  0.00    -0.372 C  
BRANCH  13  14
HETATM   14  C   UNL     1     -12.497  15.607  70.629  1.00  0.00    -0.463 C  
BRANCH  14  15
HETATM   15  C   UNL     1     -12.051  14.384  71.428  1.00  0.00    -0.397 C  
BRANCH  15  16
HETATM   16  C   UNL     1     -13.076  13.976  72.477  1.00  0.00    -0.547 C  
BRANCH  16  17
HETATM   17  C   UNL     1     -13.490  12.520  72.272  1.00  0.00    -0.490 C  
BRANCH  17  18
HETATM   18  C   UNL     1     -12.597  11.829  71.247  1.00  0.00    -0.401 C  
HETATM   19  C   UNL     1     -12.738  10.317  71.328  1.00  0.00    -0.523 C  
ENDBRANCH  17  18
ENDBRANCH  16  17
ENDBRANCH  15  16
ENDBRANCH  14  15
ENDBRANCH  13  14
ENDBRANCH  12  13
ENDBRANCH   9  12
ENDBRANCH   8   9
ENDBRANCH   7   8
ENDBRANCH   6   7
ENDBRANCH   5   6
ENDBRANCH   4   5
ENDBRANCH   3   4
ENDBRANCH   2   3
TORSDOF 14
ENDMDL
MODEL       15
REMARK 921   NORMALIZED FREE ENERGY PREDICTED BY IDOCK:   -3.97 KCAL/MOL
REMARK 922        TOTAL FREE ENERGY PREDICTED BY IDOCK:   -8.95 KCAL/MOL
REMARK 923 INTER-LIGAND FREE ENERGY PREDICTED BY IDOCK:   -7.02 KCAL/MOL
REMARK 924 INTRA-LIGAND FREE ENERGY PREDICTED BY IDOCK:   -1.94 KCAL/MOL
REMARK 927      BINDING AFFINITY PREDICTED BY RF-SCORE:    0.00 PKD
ROOT
HETATM    1  C   UNL     1     -10.524   8.317  67.024  1.00  0.00    -0.384 C  
HETATM    2  C   UNL     1      -9.579   9.447  66.648  1.00  0.00    -0.250 C  
ENDROOT
BRANCH   2   3
HETATM    3  C   UNL     1      -9.802   9.893  65.208  1.00  0.00    -0.373 C  
BRANCH   3   4
HETATM    4  C   UNL     1     -10.893  10.960  65.121  1.00  0.00    -0.133 C  
BRANCH   4   5
HETATM    5  C   UNL     1     -10.791  11.707  63.800  1.00  0.00    -0.493 C  
BRANCH   5   6
HETATM    6  C   UNL     1     -11.904  12.743  63.634  1.00  0.00    -0.603 C  
BRANCH   6   7
HETATM    7  C   UNL     1     -12.359  13.200  65.017  1.00  0.00    -0.511 C  
BRANCH   7   8
HETATM    8  C   UNL     1     -11.716  14.519  65.435  1.00  0.00    -0.354 C  
BRANCH   8   9
HETATM    9  N   UNL     1     -11.040  14.446  66.834  1.00  0.00    -0.315 N  
HETATM   10  C   UNL     1      -9.617  13.903  66.704  1.00  0.00    -0.289 C  
HETATM   11  C   UNL     1     -11.009  15.833  67.477  1.00  0.00    -0.293 C  
BRANCH   9  12
HETATM   12  C   UNL     1     -11.909  13.479  67.687  1.00  0.00    -0.363 C  
BRANCH  12  13
HETATM   13  C   UNL     1     -11.073  12.499  68.505  1.00  0.00    -0.297 C  
BRANCH  13  14
HETATM   14  C   UNL     1     -11.886  11.299  68.986  1.00  0.00    -0.421 C  
BRANCH  14  15
HETATM   15  C   UNL     1     -12.174  11.467  70.478  1.00  0.00    -0.478 C  
BRANCH  15  16
HETATM   16  C   UNL     1     -12.293  10.129  71.195  1.00  0.00    -0.488 C  
BRANCH  16  17
HETATM   17  C   UNL     1     -11.342   9.110  70.571  1.00  0.00    -0.300 C  
BRANCH  17  18
HETATM   18  C   UNL     1     -10.003   9.081  71.301  1.00  0.00    -0.381 C  
HETATM   19  C   UNL     1      -8.852   9.344  70.344  1.00  0.00    -0.290 C  
ENDBRANCH  17  18
ENDBRANCH  16  17
ENDBRANCH  15  16
ENDBRANCH  14  15
ENDBRANCH  13  14
ENDBRANCH  12  13
ENDBRANCH   9  12
ENDBRANCH   8   9
ENDBRANCH   7   8
ENDBRANCH   6   7
ENDBRANCH   5   6
ENDBRANCH   4   5
ENDBRANCH   3   4
ENDBRANCH   2   3
TORSDOF 14
ENDMDL
MODEL       16
REMARK 921   NORMALIZED FREE ENERGY PREDICTED BY IDOCK:   -3.96 KCAL/MOL
REMARK 922        TOTAL FREE ENERGY PREDICTED BY IDOCK:   -8.93 KCAL/MOL
REMARK 923 INTER-LIGAND FREE ENERGY PREDICTED BY IDOCK:   -7.76 KCAL/MOL
REMARK 924 INTRA-LIGAND FREE ENERGY PREDICTED BY IDOCK:   -1.17 KCAL/MOL
REMARK 927      BINDING AFFINITY PREDICTED BY RF-SCORE:    0.00 PKD
ROOT
HETATM    1  C   UNL     1      -9.771  11.377  64.695  1.00  0.00    -0.275 C  
HETATM    2  C   UNL     1     -10.718  11.421  63.506  1.00  0.00    -0.453 C  
ENDROOT
BRANCH   2   3
HETATM    3  C   UNL     1     -12.108  11.884  63.928  1.00  0.00    -0.505 C  
BRANCH   3   4
HETATM    4  C   UNL     1     -12.099  12.438  65.352  1.00  0.00    -0.428 C  
BRANCH   4   5
HETATM    5  C   UNL     1     -12.635  13.862  65.364  1.00  0.00    -0.538 C  
BRANCH   5   6
HETATM    6  C   UNL     1     -12.078  14.699  64.212  1.00  0.00    -0.437 C  
BRANCH   6   7
HETATM    7  C   UNL     1     -11.258  15.848  64.790  1.00  0.00    -0.364 C  
BRANCH   7   8
HETATM    8  C   UNL     1     -10.122  15.360  65.684  1.00  0.00    -0.376 C  
BRANCH   8   9
HETATM    9  N   UNL     1      -9.537  16.485  66.586  1.00  0.00    -0.245 N  
HETATM   10  C   UNL     1      -8.070  16.732  66.236  1.00  0.00    -0.330 C  
HETATM   11  C   UNL     1     -10.338  17.775  66.404  1.00  0.00    -0.351 C  
BRANCH   9  12
HETATM   12  C   UNL     1      -9.663  15.978  68.050  1.00  0.00    -0.217 C  
BRANCH  12  13
HETATM   13  C   UNL     1     -10.585  14.770  68.181  1.00  0.00    -0.241 C  
BRANCH  13  14
HETATM   14  C   UNL     1     -11.954  15.140  68.748  1.00  0.00    -0.280 C  
BRANCH  14  15
HETATM   15  C   UNL     1     -12.071  14.569  70.161  1.00  0.00    -0.394 C  
BRANCH  15  16
HETATM   16  C   UNL     1     -12.878  15.474  71.082  1.00  0.00    -0.551 C  
BRANCH  16  17
HETATM   17  C   UNL     1     -11.945  16.244  72.014  1.00  0.00    -0.544 C  
BRANCH  17  18
HETATM   18  C   UNL     1     -12.515  16.327  73.426  1.00  0.00    -0.616 C  
HETATM   19  C   UNL     1     -12.343  15.010  74.164  1.00  0.00    -0.620 C  
ENDBRANCH  17  18
ENDBRANCH  16  17
ENDBRANCH  15  16
ENDBRANCH  14  15
ENDBRANCH  13  14
ENDBRANCH  12  13
ENDBRANCH   9  12
ENDBRANCH   8   9
ENDBRANCH   7   8
ENDBRANCH   6   7
ENDBRANCH   5   6
ENDBRANCH   4   5
ENDBRANCH   3   4
ENDBRANCH   2   3
TORSDOF 14
ENDMDL
MODEL       17
REMARK 921   NORMALIZED FREE ENERGY PREDICTED BY IDOCK:   -3.96 KCAL/MOL
REMARK 922        TOTAL FREE ENERGY PREDICTED BY IDOCK:   -8.93 KCAL/MOL
REMARK 923 INTER-LIGAND FREE ENERGY PREDICTED BY IDOCK:   -7.49 KCAL/MOL
REMARK 924 INTRA-LIGAND FREE ENERGY PREDICTED BY IDOCK:   -1.44 KCAL/MOL
REMARK 927      BINDING AFFINITY PREDICTED BY RF-SCORE:    0.00 PKD
ROOT
HETATM    1  C   UNL     1     -13.770   8.663  71.919  1.00  0.00    -0.462 C  
HETATM    2  C   UNL     1     -12.856   7.504  71.552  1.00  0.00    -0.397 C  
ENDROOT
BRANCH   2   3
HETATM    3  C   UNL     1     -11.617   7.994  70.814  1.00  0.00    -0.251 C  
BRANCH   3   4
HETATM    4  C   UNL     1     -11.279   9.435  71.194  1.00  0.00    -0.427 C  
BRANCH   4   5
HETATM    5  C   UNL     1     -10.779  10.197  69.975  1.00  0.00    -0.356 C  
BRANCH   5   6
HETATM    6  C   UNL     1     -11.920  10.846  69.192  1.00  0.00    -0.359 C  
BRANCH   6   7
HETATM    7  C   UNL     1     -11.355  11.445  67.907  1.00  0.00    -0.371 C  
BRANCH   7   8
HETATM    8  C   UNL     1     -11.864  12.861  67.653  1.00  0.00    -0.346 C  
BRANCH   8   9
HETATM    9  N   UNL     1     -10.759  13.812  67.109  1.00  0.00    -0.280 N  
HETATM   10  C   UNL     1      -9.455  13.041  66.903  1.00  0.00    -0.242 C  
HETATM   11  C   UNL     1     -11.207  14.436  65.787  1.00  0.00    -0.326 C  
BRANCH   9  12
HETATM   12  C   UNL     1     -10.567  14.917  68.186  1.00  0.00    -0.244 C  
BRANCH  12  13
HETATM   13  C   UNL     1     -11.187  14.547  69.530  1.00  0.00    -0.300 C  
BRANCH  13  14
HETATM   14  C   UNL     1     -11.239  15.731  70.493  1.00  0.00    -0.392 C  
BRANCH  14  15
HETATM   15  C   UNL     1     -12.653  15.837  71.064  1.00  0.00    -0.470 C  
BRANCH  15  16
HETATM   16  C   UNL     1     -12.653  15.961  72.582  1.00  0.00    -0.562 C  
BRANCH  16  17
HETATM   17  C   UNL     1     -12.999  14.618  73.221  1.00  0.00    -0.569 C  
BRANCH  17  18
HETATM   18  C   UNL     1     -13.998  13.841  72.371  1.00  0.00    -0.651 C  
HETATM   19  C   UNL     1     -13.521  12.418  72.130  1.00  0.00    -0.481 C  
ENDBRANCH  17  18
ENDBRANCH  16  17
ENDBRANCH  15  16
ENDBRANCH  14  15
ENDBRANCH  13  14
ENDBRANCH  12  13
ENDBRANCH   9  12
ENDBRANCH   8   9
ENDBRANCH   7   8
ENDBRANCH   6   7
ENDBRANCH   5   6
ENDBRANCH   4   5
ENDBRANCH   3   4
ENDBRANCH   2   3
TORSDOF 14
ENDMDL
MODEL       18
REMARK 921   NORMALIZED FREE ENERGY PREDICTED BY IDOCK:   -3.95 KCAL/MOL
REMARK 922        TOTAL FREE ENERGY PREDICTED BY IDOCK:   -8.92 KCAL/MOL
REMARK 923 INTER-LIGAND FREE ENERGY PREDICTED BY IDOCK:   -7.94 KCAL/MOL
REMARK 924 INTRA-LIGAND FREE ENERGY PREDICTED BY IDOCK:   -0.98 KCAL/MOL
REMARK 927      BINDING AFFINITY PREDICTED BY RF-SCORE:    0.00 PKD
ROOT
HETATM    1  C   UNL     1      -9.973   8.577  66.698  1.00  0.00    -0.363 C  
HETATM    2  C   UNL     1      -9.604   9.994  66.288  1.00  0.00    -0.256 C  
ENDROOT
BRANCH   2   3
HETATM    3  C   UNL     1      -9.712  10.175  64.779  1.00  0.00    -0.389 C  
BRANCH   3   4
HETATM    4  C   UNL     1     -10.043  11.623  64.417  1.00  0.00    -0.322 C  
BRANCH   4   5
HETATM    5  C   UNL     1     -11.229  11.667  63.464  1.00  0.00    -0.462 C  
BRANCH   5   6
HETATM    6  C   UNL     1     -11.961  13.008  63.513  1.00  0.00    -0.615 C  
BRANCH   6   7
HETATM    7  C   UNL     1     -12.308  13.325  64.964  1.00  0.00    -0.499 C  
BRANCH   7   8
HETATM    8  C   UNL     1     -11.558  14.546  65.489  1.00  0.00    -0.350 C  
BRANCH   8   9
HETATM    9  N   UNL     1     -11.044  14.360  66.945  1.00  0.00    -0.315 N  
HETATM   10  C   UNL     1      -9.532  14.133  66.945  1.00  0.00    -0.267 C  
HETATM   11  C   UNL     1     -11.383  15.593  67.784  1.00  0.00    -0.261 C  
BRANCH   9  12
HETATM   12  C   UNL     1     -11.775  13.110  67.509  1.00  0.00    -0.366 C  
BRANCH  12  13
HETATM   13  C   UNL     1     -11.196  12.635  68.838  1.00  0.00    -0.329 C  
BRANCH  13  14
HETATM   14  C   UNL     1     -11.995  11.485  69.446  1.00  0.00    -0.392 C  
BRANCH  14  15
HETATM   15  C   UNL     1     -12.332  11.832  70.895  1.00  0.00    -0.420 C  
BRANCH  15  16
HETATM   16  C   UNL     1     -12.552  13.326  71.093  1.00  0.00    -0.412 C  
BRANCH  16  17
HETATM   17  C   UNL     1     -13.532  13.567  72.240  1.00  0.00    -0.669 C  
BRANCH  17  18
HETATM   18  C   UNL     1     -13.744  15.057  72.483  1.00  0.00    -0.572 C  
HETATM   19  C   UNL     1     -12.766  15.588  73.518  1.00  0.00    -0.681 C  
ENDBRANCH  17  18
ENDBRANCH  16  17
ENDBRANCH  15  16
ENDBRANCH  14  15
ENDBRANCH  13  14
ENDBRANCH  12  13
ENDBRANCH   9  12
ENDBRANCH   8   9
ENDBRANCH   7   8
ENDBRANCH   6   7
ENDBRANCH   5   6
ENDBRANCH   4   5
ENDBRANCH   3   4
ENDBRANCH   2   3
TORSDOF 14
ENDMDL
MODEL       19
REMARK 921   NORMALIZED FREE ENERGY PREDICTED BY IDOCK:   -3.94 KCAL/MOL
REMARK 922        TOTAL FREE ENERGY PREDICTED BY IDOCK:   -8.90 KCAL/MOL
REMARK 923 INTER-LIGAND FREE ENERGY PREDICTED BY IDOCK:   -7.93 KCAL/MOL
REMARK 924 INTRA-LIGAND FREE ENERGY PREDICTED BY IDOCK:   -0.97 KCAL/MOL
REMARK 927      BINDING AFFINITY PREDICTED BY RF-SCORE:    0.00 PKD
ROOT
HETATM    1  C   UNL     1     -11.511   8.054  72.500  1.00  0.00    -0.471 C  
HETATM    2  C   UNL     1     -12.533   9.023  71.929  1.00  0.00    -0.454 C  
ENDROOT
BRANCH   2   3
HETATM    3  C   UNL     1     -11.873  10.033  70.998  1.00  0.00    -0.476 C  
BRANCH   3   4
HETATM    4  C   UNL     1     -12.529  11.408  71.116  1.00  0.00    -0.465 C  
BRANCH   4   5
HETATM    5  C   UNL     1     -11.973  12.347  70.055  1.00  0.00    -0.372 C  
BRANCH   5   6
HETATM    6  C   UNL     1     -11.737  11.638  68.722  1.00  0.00    -0.392 C  
BRANCH   6   7
HETATM    7  C   UNL     1     -11.750  12.676  67.604  1.00  0.00    -0.420 C  
BRANCH   7   8
HETATM    8  C   UNL     1     -11.379  12.079  66.250  1.00  0.00    -0.357 C  
BRANCH   8   9
HETATM    9  N   UNL     1     -11.640  13.055  65.067  1.00  0.00    -0.314 N  
HETATM   10  C   UNL     1     -11.811  12.271  63.765  1.00  0.00    -0.498 C  
HETATM   11  C   UNL     1     -12.894  13.887  65.339  1.00  0.00    -0.427 C  
BRANCH   9  12
HETATM   12  C   UNL     1     -10.393  13.978  64.980  1.00  0.00    -0.409 C  
BRANCH  12  13
HETATM   13  C   UNL     1     -10.753  15.460  64.965  1.00  0.00    -0.460 C  
BRANCH  13  14
HETATM   14  C   UNL     1      -9.970  16.261  66.002  1.00  0.00    -0.370 C  
BRANCH  14  15
HETATM   15  C   UNL     1     -10.769  16.295  67.304  1.00  0.00    -0.265 C  
BRANCH  15  16
HETATM   16  C   UNL     1     -10.532  17.576  68.092  1.00  0.00    -0.386 C  
BRANCH  16  17
HETATM   17  C   UNL     1     -10.604  18.787  67.164  1.00  0.00    -0.491 C  
BRANCH  17  18
HETATM   18  C   UNL     1      -9.664  19.895  67.625  1.00  0.00    -0.511 C  
HETATM   19  C   UNL     1      -8.648  19.370  68.626  1.00  0.00    -0.394 C  
ENDBRANCH  17  18
ENDBRANCH  16  17
ENDBRANCH  15  16
ENDBRANCH  14  15
ENDBRANCH  13  14
ENDBRANCH  12  13
ENDBRANCH   9  12
ENDBRANCH   8   9
ENDBRANCH   7   8
ENDBRANCH   6   7
ENDBRANCH   5   6
ENDBRANCH   4   5
ENDBRANCH   3   4
ENDBRANCH   2   3
TORSDOF 14
ENDMDL
MODEL       20
REMARK 921   NORMALIZED FREE ENERGY PREDICTED BY IDOCK:   -3.94 KCAL/MOL
REMARK 922        TOTAL FREE ENERGY PREDICTED BY IDOCK:   -8.90 KCAL/MOL
REMARK 923 INTER-LIGAND FREE ENERGY PREDICTED BY IDOCK:   -7.47 KCAL/MOL
REMARK 924 INTRA-LIGAND FREE ENERGY PREDICTED BY IDOCK:   -1.43 KCAL/MOL
REMARK 927      BINDING AFFINITY PREDICTED BY RF-SCORE:    0.00 PKD
ROOT
HETATM    1  C   UNL     1     -12.523  11.981  63.344  1.00  0.00    -0.625 C  
HETATM    2  C   UNL     1     -11.993  13.158  64.147  1.00  0.00    -0.499 C  
ENDROOT
BRANCH   2   3
HETATM    3  C   UNL     1     -10.531  12.951  64.525  1.00  0.00    -0.400 C  
BRANCH   3   4
HETATM    4  C   UNL     1     -10.294  11.544  65.071  1.00  0.00    -0.333 C  
BRANCH   4   5
HETATM    5  C   UNL     1     -10.044  11.598  66.571  1.00  0.00    -0.239 C  
BRANCH   5   6
HETATM    6  C   UNL     1     -11.330  11.421  67.378  1.00  0.00    -0.359 C  
BRANCH   6   7
HETATM    7  C   UNL     1     -11.749  12.776  67.939  1.00  0.00    -0.408 C  
BRANCH   7   8
HETATM    8  C   UNL     1     -10.633  13.448  68.735  1.00  0.00    -0.210 C  
BRANCH   8   9
HETATM    9  N   UNL     1     -10.637  14.997  68.592  1.00  0.00    -0.231 N  
HETATM   10  C   UNL     1      -9.339  15.581  69.149  1.00  0.00    -0.250 C  
HETATM   11  C   UNL     1     -10.792  15.389  67.122  1.00  0.00    -0.321 C  
BRANCH   9  12
HETATM   12  C   UNL     1     -11.854  15.507  69.414  1.00  0.00    -0.374 C  
BRANCH  12  13
HETATM   13  C   UNL     1     -11.913  14.909  70.816  1.00  0.00    -0.372 C  
BRANCH  13  14
HETATM   14  C   UNL     1     -13.345  14.754  71.324  1.00  0.00    -0.465 C  
BRANCH  14  15
HETATM   15  C   UNL     1     -13.443  13.458  72.128  1.00  0.00    -0.646 C  
BRANCH  15  16
HETATM   16  C   UNL     1     -12.880  12.265  71.369  1.00  0.00    -0.373 C  
BRANCH  16  17
HETATM   17  C   UNL     1     -13.281  10.963  72.060  1.00  0.00    -0.456 C  
BRANCH  17  18
HETATM   18  C   UNL     1     -12.838   9.747  71.253  1.00  0.00    -0.472 C  
HETATM   19  C   UNL     1     -11.358   9.825  70.913  1.00  0.00    -0.439 C  
ENDBRANCH  17  18
ENDBRANCH  16  17
ENDBRANCH  15  16
ENDBRANCH  14  15
ENDBRANCH  13  14
ENDBRANCH  12  13
ENDBRANCH   9  12
ENDBRANCH   8   9
ENDBRANCH   7   8
ENDBRANCH   6   7
ENDBRANCH   5   6
ENDBRANCH   4   5
ENDBRANCH   3   4
ENDBRANCH   2   3
TORSDOF 14
ENDMDL
MODEL       21
REMARK 921   NORMALIZED FREE ENERGY PREDICTED BY IDOCK:   -3.93 KCAL/MOL
REMARK 922        TOTAL FREE ENERGY PREDICTED BY IDOCK:   -8.88 KCAL/MOL
REMARK 923 INTER-LIGAND FREE ENERGY PREDICTED BY IDOCK:   -7.34 KCAL/MOL
REMARK 924 INTRA-LIGAND FREE ENERGY PREDICTED BY IDOCK:   -1.54 KCAL/MOL
REMARK 927      BINDING AFFINITY PREDICTED BY RF-SCORE:    0.00 PKD
ROOT
HETATM    1  C   UNL     1     -10.440  19.353  65.948  1.00  0.00    -0.561 C  
HETATM    2  C   UNL     1     -10.893  19.457  67.396  1.00  0.00    -0.555 C  
ENDROOT
BRANCH   2   3
HETATM    3  C   UNL     1     -10.303  18.332  68.238  1.00  0.00    -0.379 C  
BRANCH   3   4
HETATM    4  C   UNL     1     -11.002  17.003  67.956  1.00  0.00    -0.252 C  
BRANCH   4   5
HETATM    5  C   UNL     1      -9.976  15.888  67.820  1.00  0.00    -0.229 C  
BRANCH   5   6
HETATM    6  C   UNL     1      -9.330  15.863  66.435  1.00  0.00    -0.329 C  
BRANCH   6   7
HETATM    7  C   UNL     1     -10.396  15.507  65.402  1.00  0.00    -0.422 C  
BRANCH   7   8
HETATM    8  C   UNL     1     -10.360  14.033  65.012  1.00  0.00    -0.409 C  
BRANCH   8   9
HETATM    9  N   UNL     1     -11.743  13.335  65.159  1.00  0.00    -0.318 N  
HETATM   10  C   UNL     1     -12.770  14.314  65.728  1.00  0.00    -0.340 C  
HETATM   11  C   UNL     1     -12.217  12.818  63.800  1.00  0.00    -0.489 C  
BRANCH   9  12
HETATM   12  C   UNL     1     -11.530  12.148  66.140  1.00  0.00    -0.371 C  
BRANCH  12  13
HETATM   13  C   UNL     1     -10.208  12.234  66.895  1.00  0.00    -0.229 C  
BRANCH  13  14
HETATM   14  C   UNL     1     -10.389  12.101  68.405  1.00  0.00    -0.236 C  
BRANCH  14  15
HETATM   15  C   UNL     1     -11.766  12.645  68.785  1.00  0.00    -0.364 C  
BRANCH  15  16
HETATM   16  C   UNL     1     -12.109  12.376  70.244  1.00  0.00    -0.377 C  
BRANCH  16  17
HETATM   17  C   UNL     1     -12.277  10.876  70.479  1.00  0.00    -0.459 C  
BRANCH  17  18
HETATM   18  C   UNL     1     -12.991  10.598  71.797  1.00  0.00    -0.577 C  
HETATM   19  C   UNL     1     -13.719   9.265  71.756  1.00  0.00    -0.443 C  
ENDBRANCH  17  18
ENDBRANCH  16  17
ENDBRANCH  15  16
ENDBRANCH  14  15
ENDBRANCH  13  14
ENDBRANCH  12  13
ENDBRANCH   9  12
ENDBRANCH   8   9
ENDBRANCH   7   8
ENDBRANCH   6   7
ENDBRANCH   5   6
ENDBRANCH   4   5
ENDBRANCH   3   4
ENDBRANCH   2   3
TORSDOF 14
ENDMDL
MODEL       22
REMARK 921   NORMALIZED FREE ENERGY PREDICTED BY IDOCK:   -3.92 KCAL/MOL
REMARK 922        TOTAL FREE ENERGY PREDICTED BY IDOCK:   -8.86 KCAL/MOL
REMARK 923 INTER-LIGAND FREE ENERGY PREDICTED BY IDOCK:   -7.68 KCAL/MOL
REMARK 924 INTRA-LIGAND FREE ENERGY PREDICTED BY IDOCK:   -1.18 KCAL/MOL
REMARK 927      BINDING AFFINITY PREDICTED BY RF-SCORE:    0.00 PKD
ROOT
HETATM    1  C   UNL     1     -11.843   8.432  72.279  1.00  0.00    -0.456 C  
HETATM    2  C   UNL     1     -13.059   9.321  72.073  1.00  0.00    -0.512 C  
ENDROOT
BRANCH   2   3
HETATM    3  C   UNL     1     -12.718  10.525  71.204  1.00  0.00    -0.518 C  
BRANCH   3   4
HETATM    4  C   UNL     1     -13.197  11.826  71.848  1.00  0.00    -0.468 C  
BRANCH   4   5
HETATM    5  C   UNL     1     -12.546  13.020  71.165  1.00  0.00    -0.388 C  
BRANCH   5   6
HETATM    6  C   UNL     1     -13.055  14.351  71.718  1.00  0.00    -0.428 C  
BRANCH   6   7
HETATM    7  C   UNL     1     -12.777  15.447  70.694  1.00  0.00    -0.490 C  
BRANCH   7   8
HETATM    8  C   UNL     1     -11.303  15.842  70.648  1.00  0.00    -0.388 C  
BRANCH   8   9
HETATM    9  N   UNL     1     -10.729  15.867  69.203  1.00  0.00    -0.240 N  
HETATM   10  C   UNL     1     -10.513  17.310  68.747  1.00  0.00    -0.340 C  
HETATM   11  C   UNL     1      -9.404  15.104  69.150  1.00  0.00    -0.215 C  
BRANCH   9  12
HETATM   12  C   UNL     1     -11.785  15.170  68.302  1.00  0.00    -0.314 C  
BRANCH  12  13
HETATM   13  C   UNL     1     -11.205  14.009  67.499  1.00  0.00    -0.328 C  
BRANCH  13  14
HETATM   14  C   UNL     1     -11.909  12.687  67.792  1.00  0.00    -0.381 C  
BRANCH  14  15
HETATM   15  C   UNL     1     -11.167  11.563  67.070  1.00  0.00    -0.365 C  
BRANCH  15  16
HETATM   16  C   UNL     1     -10.321  12.082  65.915  1.00  0.00    -0.278 C  
BRANCH  16  17
HETATM   17  C   UNL     1     -10.470  11.167  64.700  1.00  0.00    -0.400 C  
BRANCH  17  18
HETATM   18  C   UNL     1     -10.942  11.943  63.476  1.00  0.00    -0.505 C  
HETATM   19  C   UNL     1     -12.454  12.101  63.476  1.00  0.00    -0.666 C  
ENDBRANCH  17  18
ENDBRANCH  16  17
ENDBRANCH  15  16
ENDBRANCH  14  15
ENDBRANCH  13  14
ENDBRANCH  12  13
ENDBRANCH   9  12
ENDBRANCH   8   9
ENDBRANCH   7   8
ENDBRANCH   6   7
ENDBRANCH   5   6
ENDBRANCH   4   5
ENDBRANCH   3   4
ENDBRANCH   2   3
TORSDOF 14
ENDMDL
MODEL       23
REMARK 921   NORMALIZED FREE ENERGY PREDICTED BY IDOCK:   -3.90 KCAL/MOL
REMARK 922        TOTAL FREE ENERGY PREDICTED BY IDOCK:   -8.83 KCAL/MOL
REMARK 923 INTER-LIGAND FREE ENERGY PREDICTED BY IDOCK:   -7.71 KCAL/MOL
REMARK 924 INTRA-LIGAND FREE ENERGY PREDICTED BY IDOCK:   -1.12 KCAL/MOL
REMARK 927      BINDING AFFINITY PREDICTED BY RF-SCORE:    0.00 PKD
ROOT
HETATM    1  C   UNL     1     -12.448  16.246  74.087  1.00  0.00    -0.651 C  
HETATM    2  C   UNL     1     -12.192  15.104  73.117  1.00  0.00    -0.521 C  
ENDROOT
BRANCH   2   3
HETATM    3  C   UNL     1     -13.486  14.641  72.460  1.00  0.00    -0.565 C  
BRANCH   3   4
HETATM    4  C   UNL     1     -13.381  13.190  71.990  1.00  0.00    -0.587 C  
BRANCH   4   5
HETATM    5  C   UNL     1     -12.354  13.074  70.874  1.00  0.00    -0.376 C  
BRANCH   5   6
HETATM    6  C   UNL     1     -12.403  14.263  69.916  1.00  0.00    -0.377 C  
BRANCH   6   7
HETATM    7  C   UNL     1     -10.992  14.816  69.745  1.00  0.00    -0.261 C  
BRANCH   7   8
HETATM    8  C   UNL     1     -10.969  16.339  69.654  1.00  0.00    -0.346 C  
BRANCH   8   9
HETATM    9  N   UNL     1      -9.938  16.867  68.616  1.00  0.00    -0.264 N  
HETATM   10  C   UNL     1      -9.663  18.352  68.855  1.00  0.00    -0.291 C  
HETATM   11  C   UNL     1      -8.634  16.075  68.720  1.00  0.00    -0.223 C  
BRANCH   9  12
HETATM   12  C   UNL     1     -10.582  16.657  67.217  1.00  0.00    -0.281 C  
BRANCH  12  13
HETATM   13  C   UNL     1      -9.632  15.998  66.221  1.00  0.00    -0.336 C  
BRANCH  13  14
HETATM   14  C   UNL     1     -10.064  14.580  65.855  1.00  0.00    -0.346 C  
BRANCH  14  15
HETATM   15  C   UNL     1     -11.568  14.446  66.093  1.00  0.00    -0.372 C  
BRANCH  15  16
HETATM   16  C   UNL     1     -12.129  13.154  65.517  1.00  0.00    -0.490 C  
BRANCH  16  17
HETATM   17  C   UNL     1     -11.951  13.130  64.000  1.00  0.00    -0.524 C  
BRANCH  17  18
HETATM   18  C   UNL     1     -11.386  11.795  63.529  1.00  0.00    -0.496 C  
HETATM   19  C   UNL     1     -10.521  11.156  64.604  1.00  0.00    -0.400 C  
ENDBRANCH  17  18
ENDBRANCH  16  17
ENDBRANCH  15  16
ENDBRANCH  14  15
ENDBRANCH  13  14
ENDBRANCH  12  13
ENDBRANCH   9  12
ENDBRANCH   8   9
ENDBRANCH   7   8
ENDBRANCH   6   7
ENDBRANCH   5   6
ENDBRANCH   4   5
ENDBRANCH   3   4
ENDBRANCH   2   3
TORSDOF 14
ENDMDL
MODEL       24
REMARK 921   NORMALIZED FREE ENERGY PREDICTED BY IDOCK:   -3.89 KCAL/MOL
REMARK 922        TOTAL FREE ENERGY PREDICTED BY IDOCK:   -8.82 KCAL/MOL
REMARK 923 INTER-LIGAND FREE ENERGY PREDICTED BY IDOCK:   -7.22 KCAL/MOL
REMARK 924 INTRA-LIGAND FREE ENERGY PREDICTED BY IDOCK:   -1.60 KCAL/MOL
REMARK 927      BINDING AFFINITY PREDICTED BY RF-SCORE:    0.00 PKD
ROOT
HETATM    1  C   UNL     1      -9.133  10.453  68.873  1.00  0.00    -0.175 C  
HETATM    2  C   UNL     1     -10.590  10.878  68.960  1.00  0.00    -0.248 C  
ENDROOT
BRANCH   2   3
HETATM    3  C   UNL     1     -11.232  10.924  67.579  1.00  0.00    -0.364 C  
BRANCH   3   4
HETATM    4  C   UNL     1     -11.655  12.346  67.212  1.00  0.00    -0.435 C  
BRANCH   4   5
HETATM    5  C   UNL     1     -10.769  12.886  66.099  1.00  0.00    -0.290 C  
BRANCH   5   6
HETATM    6  C   UNL     1      -9.628  13.750  66.636  1.00  0.00    -0.295 C  
BRANCH   6   7
HETATM    7  C   UNL     1      -9.538  15.021  65.798  1.00  0.00    -0.327 C  
BRANCH   7   8
HETATM    8  C   UNL     1     -10.558  16.073  66.224  1.00  0.00    -0.285 C  
BRANCH   8   9
HETATM    9  N   UNL     1      -9.900  17.334  66.852  1.00  0.00    -0.275 N  
HETATM   10  C   UNL     1      -8.377  17.223  66.785  1.00  0.00    -0.245 C  
HETATM   11  C   UNL     1     -10.360  18.591  66.113  1.00  0.00    -0.426 C  
BRANCH   9  12
HETATM   12  C   UNL     1     -10.372  17.381  68.333  1.00  0.00    -0.379 C  
BRANCH  12  13
HETATM   13  C   UNL     1     -11.393  16.296  68.662  1.00  0.00    -0.333 C  
BRANCH  13  14
HETATM   14  C   UNL     1     -11.216  15.738  70.072  1.00  0.00    -0.346 C  
BRANCH  14  15
HETATM   15  C   UNL     1     -11.844  14.346  70.132  1.00  0.00    -0.380 C  
BRANCH  15  16
HETATM   16  C   UNL     1     -12.757  14.177  71.339  1.00  0.00    -0.439 C  
BRANCH  16  17
HETATM   17  C   UNL     1     -13.561  15.454  71.574  1.00  0.00    -0.604 C  
BRANCH  17  18
HETATM   18  C   UNL     1     -13.504  15.884  73.036  1.00  0.00    -0.653 C  
HETATM   19  C   UNL     1     -12.430  15.117  73.791  1.00  0.00    -0.718 C  
ENDBRANCH  17  18
ENDBRANCH  16  17
ENDBRANCH  15  16
ENDBRANCH  14  15
ENDBRANCH  13  14
ENDBRANCH  12  13
ENDBRANCH   9  12
ENDBRANCH   8   9
ENDBRANCH   7   8
ENDBRANCH   6   7
ENDBRANCH   5   6
ENDBRANCH   4   5
ENDBRANCH   3   4
ENDBRANCH   2   3
TORSDOF 14
ENDMDL
MODEL       25
REMARK 921   NORMALIZED FREE ENERGY PREDICTED BY IDOCK:   -3.87 KCAL/MOL
REMARK 922        TOTAL FREE ENERGY PREDICTED BY IDOCK:   -8.78 KCAL/MOL
REMARK 923 INTER-LIGAND FREE ENERGY PREDICTED BY IDOCK:   -7.45 KCAL/MOL
REMARK 924 INTRA-LIGAND FREE ENERGY PREDICTED BY IDOCK:   -1.33 KCAL/MOL
REMARK 927      BINDING AFFINITY PREDICTED BY RF-SCORE:    0.00 PKD
ROOT
HETATM    1  C   UNL     1     -13.148  15.890  73.319  1.00  0.00    -0.694 C  
HETATM    2  C   UNL     1     -13.859  14.892  72.420  1.00  0.00    -0.587 C  
ENDROOT
BRANCH   2   3
HETATM    3  C   UNL     1     -13.088  14.672  71.124  1.00  0.00    -0.428 C  
BRANCH   3   4
HETATM    4  C   UNL     1     -12.743  13.196  70.928  1.00  0.00    -0.313 C  
BRANCH   4   5
HETATM    5  C   UNL     1     -13.317  12.367  72.067  1.00  0.00    -0.511 C  
BRANCH   5   6
HETATM    6  C   UNL     1     -13.193  10.866  71.810  1.00  0.00    -0.513 C  
BRANCH   6   7
HETATM    7  C   UNL     1     -12.137  10.638  70.732  1.00  0.00    -0.474 C  
BRANCH   7   8
HETATM    8  C   UNL     1     -11.156   9.530  71.103  1.00  0.00    -0.379 C  
BRANCH   8   9
HETATM    9  N   UNL     1     -10.245   9.106  69.915  1.00  0.00    -0.195 N  
HETATM   10  C   UNL     1      -8.818   9.604  70.142  1.00  0.00    -0.231 C  
HETATM   11  C   UNL     1     -10.246   7.584  69.769  1.00  0.00    -0.211 C  
BRANCH   9  12
HETATM   12  C   UNL     1     -10.850   9.767  68.645  1.00  0.00    -0.188 C  
BRANCH  12  13
HETATM   13  C   UNL     1      -9.792  10.397  67.745  1.00  0.00    -0.193 C  
BRANCH  13  14
HETATM   14  C   UNL     1     -10.067  11.873  67.466  1.00  0.00    -0.206 C  
BRANCH  14  15
HETATM   15  C   UNL     1     -11.578  12.081  67.366  1.00  0.00    -0.388 C  
BRANCH  15  16
HETATM   16  C   UNL     1     -11.937  13.296  66.522  1.00  0.00    -0.448 C  
BRANCH  16  17
HETATM   17  C   UNL     1     -12.363  12.859  65.122  1.00  0.00    -0.547 C  
BRANCH  17  18
HETATM   18  C   UNL     1     -11.218  12.999  64.125  1.00  0.00    -0.439 C  
HETATM   19  C   UNL     1     -10.894  11.665  63.471  1.00  0.00    -0.497 C  
ENDBRANCH  17  18
ENDBRANCH  16  17
ENDBRANCH  15  16
ENDBRANCH  14  15
ENDBRANCH  13  14
ENDBRANCH  12  13
ENDBRANCH   9  12
ENDBRANCH   8   9
ENDBRANCH   7   8
ENDBRANCH   6   7
ENDBRANCH   5   6
ENDBRANCH   4   5
ENDBRANCH   3   4
ENDBRANCH   2   3
TORSDOF 14
ENDMDL
MODEL       26
REMARK 921   NORMALIZED FREE ENERGY PREDICTED BY IDOCK:   -3.86 KCAL/MOL
REMARK 922        TOTAL FREE ENERGY PREDICTED BY IDOCK:   -8.76 KCAL/MOL
REMARK 923 INTER-LIGAND FREE ENERGY PREDICTED BY IDOCK:   -7.38 KCAL/MOL
REMARK 924 INTRA-LIGAND FREE ENERGY PREDICTED BY IDOCK:   -1.38 KCAL/MOL
REMARK 927      BINDING AFFINITY PREDICTED BY RF-SCORE:    0.00 PKD
ROOT
HETATM    1  C   UNL     1     -12.329  12.242  63.579  1.00  0.00    -0.670 C  
HETATM    2  C   UNL     1     -10.865  12.559  63.840  1.00  0.00    -0.472 C  
ENDROOT
BRANCH   2   3
HETATM    3  C   UNL     1     -10.710  13.491  65.036  1.00  0.00    -0.366 C  
BRANCH   3   4
HETATM    4  C   UNL     1     -12.070  13.952  65.559  1.00  0.00    -0.425 C  
BRANCH   4   5
HETATM    5  C   UNL     1     -12.114  13.842  67.076  1.00  0.00    -0.436 C  
BRANCH   5   6
HETATM    6  C   UNL     1     -11.221  14.879  67.757  1.00  0.00    -0.329 C  
BRANCH   6   7
HETATM    7  C   UNL     1     -11.810  15.212  69.125  1.00  0.00    -0.340 C  
BRANCH   7   8
HETATM    8  C   UNL     1     -12.285  13.970  69.872  1.00  0.00    -0.340 C  
BRANCH   8   9
HETATM    9  N   UNL     1     -12.846  14.293  71.287  1.00  0.00    -0.333 N  
HETATM   10  C   UNL     1     -11.807  15.062  72.103  1.00  0.00    -0.363 C  
HETATM   11  C   UNL     1     -14.127  15.120  71.168  1.00  0.00    -0.374 C  
BRANCH   9  12
HETATM   12  C   UNL     1     -13.151  12.924  71.957  1.00  0.00    -0.379 C  
BRANCH  12  13
HETATM   13  C   UNL     1     -12.718  11.737  71.103  1.00  0.00    -0.405 C  
BRANCH  13  14
HETATM   14  C   UNL     1     -13.023  10.397  71.769  1.00  0.00    -0.580 C  
BRANCH  14  15
HETATM   15  C   UNL     1     -12.023   9.358  71.264  1.00  0.00    -0.430 C  
BRANCH  15  16
HETATM   16  C   UNL     1     -10.864   9.994  70.508  1.00  0.00    -0.380 C  
BRANCH  16  17
HETATM   17  C   UNL     1     -10.781   9.424  69.093  1.00  0.00    -0.216 C  
BRANCH  17  18
HETATM   18  C   UNL     1     -10.613  10.531  68.059  1.00  0.00    -0.251 C  
HETATM   19  C   UNL     1     -10.283   9.957  66.690  1.00  0.00    -0.293 C  
ENDBRANCH  17  18
ENDBRANCH  16  17
ENDBRANCH  15  16
ENDBRANCH  14  15
ENDBRANCH  13  14
ENDBRANCH  12  13
ENDBRANCH   9  12
ENDBRANCH   8   9
ENDBRANCH   7   8
ENDBRANCH   6   7
ENDBRANCH   5   6
ENDBRANCH   4   5
ENDBRANCH   3   4
ENDBRANCH   2   3
TORSDOF 14
ENDMDL
MODEL       27
REMARK 921   NORMALIZED FREE ENERGY PREDICTED BY IDOCK:   -3.83 KCAL/MOL
REMARK 922        TOTAL FREE ENERGY PREDICTED BY IDOCK:   -8.70 KCAL/MOL
REMARK 923 INTER-LIGAND FREE ENERGY PREDICTED BY IDOCK:   -7.23 KCAL/MOL
REMARK 924 INTRA-LIGAND FREE ENERGY PREDICTED BY IDOCK:   -1.47 KCAL/MOL
REMARK 927      BINDING AFFINITY PREDICTED BY RF-SCORE:    0.00 PKD
ROOT
HETATM    1  C   UNL     1     -12.105  16.215  72.880  1.00  0.00    -0.643 C  
HETATM    2  C   UNL     1     -13.387  15.399  72.919  1.00  0.00    -0.636 C  
ENDROOT
BRANCH   2   3
HETATM    3  C   UNL     1     -13.899  15.112  71.512  1.00  0.00    -0.597 C  
BRANCH   3   4
HETATM    4  C   UNL     1     -12.749  14.795  70.558  1.00  0.00    -0.397 C  
BRANCH   4   5
HETATM    5  C   UNL     1     -12.349  13.332  70.686  1.00  0.00    -0.416 C  
BRANCH   5   6
HETATM    6  C   UNL     1     -11.890  12.739  69.355  1.00  0.00    -0.359 C  
BRANCH   6   7
HETATM    7  C   UNL     1     -11.597  13.879  68.384  1.00  0.00    -0.368 C  
BRANCH   7   8
HETATM    8  C   UNL     1     -10.123  13.947  67.993  1.00  0.00    -0.244 C  
BRANCH   8   9
HETATM    9  N   UNL     1      -9.717  15.327  67.403  1.00  0.00    -0.208 N  
HETATM   10  C   UNL     1     -10.781  16.375  67.732  1.00  0.00    -0.328 C  
HETATM   11  C   UNL     1      -8.366  15.765  67.970  1.00  0.00    -0.152 C  
BRANCH   9  12
HETATM   12  C   UNL     1      -9.614  15.131  65.865  1.00  0.00    -0.338 C  
BRANCH  12  13
HETATM   13  C   UNL     1     -10.856  15.612  65.122  1.00  0.00    -0.448 C  
BRANCH  13  14
HETATM   14  C   UNL     1     -11.744  14.458  64.660  1.00  0.00    -0.438 C  
BRANCH  14  15
HETATM   15  C   UNL     1     -10.857  13.258  64.329  1.00  0.00    -0.414 C  
BRANCH  15  16
HETATM   16  C   UNL     1     -11.381  11.968  64.946  1.00  0.00    -0.366 C  
BRANCH  16  17
HETATM   17  C   UNL     1     -10.305  10.885  64.895  1.00  0.00    -0.371 C  
BRANCH  17  18
HETATM   18  C   UNL     1      -9.460  10.884  66.165  1.00  0.00    -0.230 C  
HETATM   19  C   UNL     1     -10.182  10.181  67.303  1.00  0.00    -0.273 C  
ENDBRANCH  17  18
ENDBRANCH  16  17
ENDBRANCH  15  16
ENDBRANCH  14  15
ENDBRANCH  13  14
ENDBRANCH  12  13
ENDBRANCH   9  12
ENDBRANCH   8   9
ENDBRANCH   7   8
ENDBRANCH   6   7
ENDBRANCH   5   6
ENDBRANCH   4   5
ENDBRANCH   3   4
ENDBRANCH   2   3
TORSDOF 14
ENDMDL
MODEL       28
REMARK 921   NORMALIZED FREE ENERGY PREDICTED BY IDOCK:   -3.82 KCAL/MOL
REMARK 922        TOTAL FREE ENERGY PREDICTED BY IDOCK:   -8.69 KCAL/MOL
REMARK 923 INTER-LIGAND FREE ENERGY PREDICTED BY IDOCK:   -6.80 KCAL/MOL
REMARK 924 INTRA-LIGAND FREE ENERGY PREDICTED BY IDOCK:   -1.89 KCAL/MOL
REMARK 927      BINDING AFFINITY PREDICTED BY RF-SCORE:    0.00 PKD
ROOT
HETATM    1  C   UNL     1     -11.866  14.780  71.639  1.00  0.00    -0.382 C  
HETATM    2  C   UNL     1     -12.178  15.547  70.364  1.00  0.00    -0.443 C  
ENDROOT
BRANCH   2   3
HETATM    3  C   UNL     1     -10.928  16.215  69.804  1.00  0.00    -0.349 C  
BRANCH   3   4
HETATM    4  C   UNL     1     -10.967  16.274  68.278  1.00  0.00    -0.348 C  
BRANCH   4   5
HETATM    5  C   UNL     1      -9.555  16.384  67.721  1.00  0.00    -0.231 C  
BRANCH   5   6
HETATM    6  C   UNL     1      -9.505  16.118  66.216  1.00  0.00    -0.347 C  
BRANCH   6   7
HETATM    7  C   UNL     1     -10.765  15.361  65.808  1.00  0.00    -0.360 C  
BRANCH   7   8
HETATM    8  C   UNL     1     -10.466  14.197  64.867  1.00  0.00    -0.438 C  
BRANCH   8   9
HETATM    9  N   UNL     1     -11.637  13.178  64.775  1.00  0.00    -0.320 N  
HETATM   10  C   UNL     1     -12.783  13.607  65.691  1.00  0.00    -0.454 C  
HETATM   11  C   UNL     1     -12.136  13.079  63.333  1.00  0.00    -0.515 C  
BRANCH   9  12
HETATM   12  C   UNL     1     -11.061  11.810  65.238  1.00  0.00    -0.276 C  
BRANCH  12  13
HETATM   13  C   UNL     1      -9.759  11.950  66.019  1.00  0.00    -0.257 C  
BRANCH  13  14
HETATM   14  C   UNL     1      -9.854  11.356  67.423  1.00  0.00    -0.199 C  
BRANCH  14  15
HETATM   15  C   UNL     1     -10.282  12.456  68.394  1.00  0.00    -0.227 C  
BRANCH  15  16
HETATM   16  C   UNL     1     -11.714  12.273  68.877  1.00  0.00    -0.380 C  
BRANCH  16  17
HETATM   17  C   UNL     1     -11.963  10.813  69.249  1.00  0.00    -0.334 C  
BRANCH  17  18
HETATM   18  C   UNL     1     -11.469  10.509  70.659  1.00  0.00    -0.418 C  
HETATM   19  C   UNL     1     -12.627  10.444  71.643  1.00  0.00    -0.521 C  
ENDBRANCH  17  18
ENDBRANCH  16  17
ENDBRANCH  15  16
ENDBRANCH  14  15
ENDBRANCH  13  14
ENDBRANCH  12  13
ENDBRANCH   9  12
ENDBRANCH   8   9
ENDBRANCH   7   8
ENDBRANCH   6   7
ENDBRANCH   5   6
ENDBRANCH   4   5
ENDBRANCH   3   4
ENDBRANCH   2   3
TORSDOF 14
ENDMDL
MODEL       29
REMARK 921   NORMALIZED FREE ENERGY PREDICTED BY IDOCK:   -3.82 KCAL/MOL
REMARK 922        TOTAL FREE ENERGY PREDICTED BY IDOCK:   -8.68 KCAL/MOL
REMARK 923 INTER-LIGAND FREE ENERGY PREDICTED BY IDOCK:   -7.57 KCAL/MOL
REMARK 924 INTRA-LIGAND FREE ENERGY PREDICTED BY IDOCK:   -1.11 KCAL/MOL
REMARK 927      BINDING AFFINITY PREDICTED BY RF-SCORE:    0.00 PKD
ROOT
HETATM    1  C   UNL     1     -12.164  16.010  72.810  1.00  0.00    -0.617 C  
HETATM    2  C   UNL     1     -13.629  15.607  72.746  1.00  0.00    -0.678 C  
ENDROOT
BRANCH   2   3
HETATM    3  C   UNL     1     -13.912  14.759  71.512  1.00  0.00    -0.548 C  
BRANCH   3   4
HETATM    4  C   UNL     1     -12.684  14.672  70.606  1.00  0.00    -0.417 C  
BRANCH   4   5
HETATM    5  C   UNL     1     -12.269  13.220  70.423  1.00  0.00    -0.404 C  
BRANCH   5   6
HETATM    6  C   UNL     1     -11.590  12.977  69.075  1.00  0.00    -0.367 C  
BRANCH   6   7
HETATM    7  C   UNL     1     -12.030  14.066  68.101  1.00  0.00    -0.382 C  
BRANCH   7   8
HETATM    8  C   UNL     1     -10.905  14.497  67.163  1.00  0.00    -0.296 C  
BRANCH   8   9
HETATM    9  N   UNL     1     -11.288  14.367  65.661  1.00  0.00    -0.323 N  
HETATM   10  C   UNL     1     -12.755  13.960  65.524  1.00  0.00    -0.499 C  
HETATM   11  C   UNL     1     -11.049  15.695  64.941  1.00  0.00    -0.402 C  
BRANCH   9  12
HETATM   12  C   UNL     1     -10.366  13.264  65.070  1.00  0.00    -0.340 C  
BRANCH  12  13
HETATM   13  C   UNL     1     -11.011  11.882  65.087  1.00  0.00    -0.365 C  
BRANCH  13  14
HETATM   14  C   UNL     1     -10.369  10.951  66.113  1.00  0.00    -0.305 C  
BRANCH  14  15
HETATM   15  C   UNL     1      -9.796   9.736  65.384  1.00  0.00    -0.365 C  
BRANCH  15  16
HETATM   16  C   UNL     1      -9.598   8.547  66.314  1.00  0.00    -0.306 C  
BRANCH  16  17
HETATM   17  C   UNL     1     -10.292   8.802  67.651  1.00  0.00    -0.317 C  
BRANCH  17  18
HETATM   18  C   UNL     1     -10.620   7.494  68.363  1.00  0.00    -0.177 C  
HETATM   19  C   UNL     1     -11.016   6.414  67.370  1.00  0.00    -0.463 C  
ENDBRANCH  17  18
ENDBRANCH  16  17
ENDBRANCH  15  16
ENDBRANCH  14  15
ENDBRANCH  13  14
ENDBRANCH  12  13
ENDBRANCH   9  12
ENDBRANCH   8   9
ENDBRANCH   7   8
ENDBRANCH   6   7
ENDBRANCH   5   6
ENDBRANCH   4   5
ENDBRANCH   3   4
ENDBRANCH   2   3
TORSDOF 14
ENDMDL
MODEL       30
REMARK 921   NORMALIZED FREE ENERGY PREDICTED BY IDOCK:   -3.82 KCAL/MOL
REMARK 922        TOTAL FREE ENERGY PREDICTED BY IDOCK:   -8.68 KCAL/MOL
REMARK 923 INTER-LIGAND FREE ENERGY PREDICTED BY IDOCK:   -7.60 KCAL/MOL
REMARK 924 INTRA-LIGAND FREE ENERGY PREDICTED BY IDOCK:   -1.08 KCAL/MOL
REMARK 927      BINDING AFFINITY PREDICTED BY RF-SCORE:    0.00 PKD
ROOT
HETATM    1  C   UNL     1     -12.159  12.891  65.514  1.00  0.00    -0.507 C  
HETATM    2  C   UNL     1     -11.710  12.383  66.875  1.00  0.00    -0.432 C  
ENDROOT
BRANCH   2   3
HETATM    3  C   UNL     1     -10.632  11.315  66.734  1.00  0.00    -0.305 C  
BRANCH   3   4
HETATM    4  C   UNL     1     -10.886  10.143  67.680  1.00  0.00    -0.346 C  
BRANCH   4   5
HETATM    5  C   UNL     1     -10.475   8.836  67.019  1.00  0.00    -0.338 C  
BRANCH   5   6
HETATM    6  C   UNL     1     -10.556   7.651  67.980  1.00  0.00    -0.213 C  
BRANCH   6   7
HETATM    7  C   UNL     1     -10.433   8.169  69.410  1.00  0.00    -0.223 C  
BRANCH   7   8
HETATM    8  C   UNL     1     -11.219   7.321  70.406  1.00  0.00    -0.276 C  
BRANCH   8   9
HETATM    9  N   UNL     1     -11.827   8.160  71.566  1.00  0.00    -0.283 N  
HETATM   10  C   UNL     1     -13.342   7.960  71.624  1.00  0.00    -0.337 C  
HETATM   11  C   UNL     1     -11.199   7.749  72.898  1.00  0.00    -0.376 C  
BRANCH   9  12
HETATM   12  C   UNL     1     -11.492   9.645  71.252  1.00  0.00    -0.392 C  
BRANCH  12  13
HETATM   13  C   UNL     1     -12.732  10.534  71.203  1.00  0.00    -0.518 C  
BRANCH  13  14
HETATM   14  C   UNL     1     -12.480  11.846  70.464  1.00  0.00    -0.301 C  
BRANCH  14  15
HETATM   15  C   UNL     1     -12.959  13.003  71.339  1.00  0.00    -0.373 C  
BRANCH  15  16
HETATM   16  C   UNL     1     -12.370  14.338  70.903  1.00  0.00    -0.429 C  
BRANCH  16  17
HETATM   17  C   UNL     1     -13.061  15.485  71.637  1.00  0.00    -0.561 C  
BRANCH  17  18
HETATM   18  C   UNL     1     -12.115  16.166  72.619  1.00  0.00    -0.652 C  
HETATM   19  C   UNL     1     -12.647  16.085  74.040  1.00  0.00    -0.733 C  
ENDBRANCH  17  18
ENDBRANCH  16  17
ENDBRANCH  15  16
ENDBRANCH  14  15
ENDBRANCH  13  14
ENDBRANCH  12  13
ENDBRANCH   9  12
ENDBRANCH   8   9
ENDBRANCH   7   8
ENDBRANCH   6   7
ENDBRANCH   5   6
ENDBRANCH   4   5
ENDBRANCH   3   4
ENDBRANCH   2   3
TORSDOF 14
ENDMDL
MODEL       31
REMARK 921   NORMALIZED FREE ENERGY PREDICTED BY IDOCK:   -3.81 KCAL/MOL
REMARK 922        TOTAL FREE ENERGY PREDICTED BY IDOCK:   -8.67 KCAL/MOL
REMARK 923 INTER-LIGAND FREE ENERGY PREDICTED BY IDOCK:   -7.24 KCAL/MOL
REMARK 924 INTRA-LIGAND FREE ENERGY PREDICTED BY IDOCK:   -1.43 KCAL/MOL
REMARK 927      BINDING AFFINITY PREDICTED BY RF-SCORE:    0.00 PKD
ROOT
HETATM    1  C   UNL     1     -10.144  19.476  68.569  1.00  0.00    -0.543 C  
HETATM    2  C   UNL     1     -10.809  19.516  67.203  1.00  0.00    -0.555 C  
ENDROOT
BRANCH   2   3
HETATM    3  C   UNL     1      -9.804  19.867  66.113  1.00  0.00    -0.562 C  
BRANCH   3   4
HETATM    4  C   UNL     1      -8.390  19.987  66.680  1.00  0.00    -0.363 C  
BRANCH   4   5
HETATM    5  C   UNL     1      -7.473  18.966  66.023  1.00  0.00    -0.273 C  
BRANCH   5   6
HETATM    6  C   UNL     1      -7.283  17.719  66.887  1.00  0.00    -0.228 C  
BRANCH   6   7
HETATM    7  C   UNL     1      -8.009  16.550  66.229  1.00  0.00    -0.307 C  
BRANCH   7   8
HETATM    8  C   UNL     1      -8.828  15.737  67.227  1.00  0.00    -0.195 C  
BRANCH   8   9
HETATM    9  N   UNL     1     -10.289  15.493  66.752  1.00  0.00    -0.281 N  
HETATM   10  C   UNL     1     -11.271  15.820  67.877  1.00  0.00    -0.313 C  
HETATM   11  C   UNL     1     -10.597  16.358  65.529  1.00  0.00    -0.330 C  
BRANCH   9  12
HETATM   12  C   UNL     1     -10.380  13.986  66.379  1.00  0.00    -0.289 C  
BRANCH  12  13
HETATM   13  C   UNL     1     -11.722  13.364  66.754  1.00  0.00    -0.429 C  
BRANCH  13  14
HETATM   14  C   UNL     1     -12.637  13.179  65.545  1.00  0.00    -0.468 C  
BRANCH  14  15
HETATM   15  C   UNL     1     -11.799  13.296  64.272  1.00  0.00    -0.469 C  
BRANCH  15  16
HETATM   16  C   UNL     1     -11.795  12.005  63.465  1.00  0.00    -0.587 C  
BRANCH  16  17
HETATM   17  C   UNL     1     -10.391  11.404  63.441  1.00  0.00    -0.458 C  
BRANCH  17  18
HETATM   18  C   UNL     1     -10.137  10.538  64.670  1.00  0.00    -0.408 C  
HETATM   19  C   UNL     1      -8.772  10.829  65.272  1.00  0.00    -0.183 C  
ENDBRANCH  17  18
ENDBRANCH  16  17
ENDBRANCH  15  16
ENDBRANCH  14  15
ENDBRANCH  13  14
ENDBRANCH  12  13
ENDBRANCH   9  12
ENDBRANCH   8   9
ENDBRANCH   7   8
ENDBRANCH   6   7
ENDBRANCH   5   6
ENDBRANCH   4   5
ENDBRANCH   3   4
ENDBRANCH   2   3
TORSDOF 14
ENDMDL
MODEL       32
REMARK 921   NORMALIZED FREE ENERGY PREDICTED BY IDOCK:   -3.81 KCAL/MOL
REMARK 922        TOTAL FREE ENERGY PREDICTED BY IDOCK:   -8.67 KCAL/MOL
REMARK 923 INTER-LIGAND FREE ENERGY PREDICTED BY IDOCK:   -6.61 KCAL/MOL
REMARK 924 INTRA-LIGAND FREE ENERGY PREDICTED BY IDOCK:   -2.06 KCAL/MOL
REMARK 927      BINDING AFFINITY PREDICTED BY RF-SCORE:    0.00 PKD
ROOT
HETATM    1  C   UNL     1     -12.638  11.865  63.778  1.00  0.00    -0.509 C  
HETATM    2  C   UNL     1     -12.087  13.236  63.422  1.00  0.00    -0.508 C  
ENDROOT
BRANCH   2   3
HETATM    3  C   UNL     1     -12.256  14.213  64.579  1.00  0.00    -0.468 C  
BRANCH   3   4
HETATM    4  C   UNL     1     -11.744  15.605  64.208  1.00  0.00    -0.171 C  
BRANCH   4   5
HETATM    5  C   UNL     1     -10.891  16.167  65.336  1.00  0.00    -0.319 C  
BRANCH   5   6
HETATM    6  C   UNL     1      -9.804  15.189  65.782  1.00  0.00    -0.384 C  
BRANCH   6   7
HETATM    7  C   UNL     1      -8.643  15.982  66.374  1.00  0.00    -0.369 C  
BRANCH   7   8
HETATM    8  C   UNL     1      -8.936  17.478  66.448  1.00  0.00    -0.238 C  
BRANCH   8   9
HETATM    9  N   UNL     1      -8.883  18.034  67.899  1.00  0.00    -0.263 N  
HETATM   10  C   UNL     1      -7.977  17.160  68.766  1.00  0.00    -0.255 C  
HETATM   11  C   UNL     1      -8.363  19.472  67.893  1.00  0.00    -0.315 C  
BRANCH   9  12
HETATM   12  C   UNL     1     -10.342  17.994  68.435  1.00  0.00    -0.368 C  
BRANCH  12  13
HETATM   13  C   UNL     1     -10.585  16.841  69.404  1.00  0.00    -0.318 C  
BRANCH  13  14
HETATM   14  C   UNL     1     -11.581  15.820  68.858  1.00  0.00    -0.400 C  
BRANCH  14  15
HETATM   15  C   UNL     1     -12.096  14.968  70.017  1.00  0.00    -0.382 C  
BRANCH  15  16
HETATM   16  C   UNL     1     -12.152  13.488  69.664  1.00  0.00    -0.365 C  
BRANCH  16  17
HETATM   17  C   UNL     1     -11.036  13.138  68.683  1.00  0.00    -0.296 C  
BRANCH  17  18
HETATM   18  C   UNL     1     -11.551  12.261  67.547  1.00  0.00    -0.422 C  
HETATM   19  C   UNL     1     -10.402  11.651  66.761  1.00  0.00    -0.257 C  
ENDBRANCH  17  18
ENDBRANCH  16  17
ENDBRANCH  15  16
ENDBRANCH  14  15
ENDBRANCH  13  14
ENDBRANCH  12  13
ENDBRANCH   9  12
ENDBRANCH   8   9
ENDBRANCH   7   8
ENDBRANCH   6   7
ENDBRANCH   5   6
ENDBRANCH   4   5
ENDBRANCH   3   4
ENDBRANCH   2   3
TORSDOF 14
ENDMDL
MODEL       33
REMARK 921   NORMALIZED FREE ENERGY PREDICTED BY IDOCK:   -3.81 KCAL/MOL
REMARK 922        TOTAL FREE ENERGY PREDICTED BY IDOCK:   -8.66 KCAL/MOL
REMARK 923 INTER-LIGAND FREE ENERGY PREDICTED BY IDOCK:   -7.60 KCAL/MOL
REMARK 924 INTRA-LIGAND FREE ENERGY PREDICTED BY IDOCK:   -1.05 KCAL/MOL
REMARK 927      BINDING AFFINITY PREDICTED BY RF-SCORE:    0.00 PKD
ROOT
HETATM    1  C   UNL     1     -10.348  10.933  64.898  1.00  0.00    -0.371 C  
HETATM    2  C   UNL     1     -10.570  11.487  63.500  1.00  0.00    -0.487 C  
ENDROOT
BRANCH   2   3
HETATM    3  C   UNL     1     -11.622  12.589  63.507  1.00  0.00    -0.584 C  
BRANCH   3   4
HETATM    4  C   UNL     1     -12.534  12.477  64.728  1.00  0.00    -0.532 C  
BRANCH   4   5
HETATM    5  C   UNL     1     -12.697  13.839  65.387  1.00  0.00    -0.513 C  
BRANCH   5   6
HETATM    6  C   UNL     1     -11.690  14.861  64.859  1.00  0.00    -0.371 C  
BRANCH   6   7
HETATM    7  C   UNL     1     -10.792  15.306  66.010  1.00  0.00    -0.331 C  
BRANCH   7   8
HETATM    8  C   UNL     1     -11.338  14.885  67.371  1.00  0.00    -0.347 C  
BRANCH   8   9
HETATM    9  N   UNL     1     -10.539  15.495  68.558  1.00  0.00    -0.239 N  
HETATM   10  C   UNL     1      -9.114  14.940  68.574  1.00  0.00    -0.191 C  
HETATM   11  C   UNL     1     -10.500  17.019  68.438  1.00  0.00    -0.370 C  
BRANCH   9  12
HETATM   12  C   UNL     1     -11.293  15.078  69.851  1.00  0.00    -0.278 C  
BRANCH  12  13
HETATM   13  C   UNL     1     -12.223  13.888  69.637  1.00  0.00    -0.374 C  
BRANCH  13  14
HETATM   14  C   UNL     1     -12.434  13.074  70.911  1.00  0.00    -0.396 C  
BRANCH  14  15
HETATM   15  C   UNL     1     -12.164  11.602  70.605  1.00  0.00    -0.461 C  
BRANCH  15  16
HETATM   16  C   UNL     1     -13.066  10.672  71.405  1.00  0.00    -0.499 C  
BRANCH  16  17
HETATM   17  C   UNL     1     -12.274   9.463  71.897  1.00  0.00    -0.440 C  
BRANCH  17  18
HETATM   18  C   UNL     1     -10.876   9.431  71.290  1.00  0.00    -0.431 C  
HETATM   19  C   UNL     1      -9.933   8.586  72.130  1.00  0.00    -0.387 C  
ENDBRANCH  17  18
ENDBRANCH  16  17
ENDBRANCH  15  16
ENDBRANCH  14  15
ENDBRANCH  13  14
ENDBRANCH  12  13
ENDBRANCH   9  12
ENDBRANCH   8   9
ENDBRANCH   7   8
ENDBRANCH   6   7
ENDBRANCH   5   6
ENDBRANCH   4   5
ENDBRANCH   3   4
ENDBRANCH   2   3
TORSDOF 14
ENDMDL
MODEL       34
REMARK 921   NORMALIZED FREE ENERGY PREDICTED BY IDOCK:   -3.79 KCAL/MOL
REMARK 922        TOTAL FREE ENERGY PREDICTED BY IDOCK:   -8.62 KCAL/MOL
REMARK 923 INTER-LIGAND FREE ENERGY PREDICTED BY IDOCK:   -7.73 KCAL/MOL
REMARK 924 INTRA-LIGAND FREE ENERGY PREDICTED BY IDOCK:   -0.90 KCAL/MOL
REMARK 927      BINDING AFFINITY PREDICTED BY RF-SCORE:    0.00 PKD
ROOT
HETATM    1  C   UNL     1     -12.773  14.025  65.403  1.00  0.00    -0.499 C  
HETATM    2  C   UNL     1     -12.315  12.606  65.106  1.00  0.00    -0.547 C  
ENDROOT
BRANCH   2   3
HETATM    3  C   UNL     1     -11.980  12.435  63.629  1.00  0.00    -0.626 C  
BRANCH   3   4
HETATM    4  C   UNL     1     -10.617  11.769  63.444  1.00  0.00    -0.479 C  
BRANCH   4   5
HETATM    5  C   UNL     1     -10.061  11.329  64.790  1.00  0.00    -0.338 C  
BRANCH   5   6
HETATM    6  C   UNL     1      -9.297  10.008  64.697  1.00  0.00    -0.338 C  
BRANCH   6   7
HETATM    7  C   UNL     1      -9.570   9.192  65.957  1.00  0.00    -0.342 C  
BRANCH   7   8
HETATM    8  C   UNL     1     -10.194  10.030  67.069  1.00  0.00    -0.237 C  
BRANCH   8   9
HETATM    9  N   UNL     1      -9.334  10.052  68.364  1.00  0.00    -0.136 N  
HETATM   10  C   UNL     1      -8.473   8.791  68.448  1.00  0.00    -0.130 C  
HETATM   11  C   UNL     1      -8.439  11.292  68.380  1.00  0.00    -0.153 C  
BRANCH   9  12
HETATM   12  C   UNL     1     -10.336  10.099  69.552  1.00  0.00    -0.240 C  
BRANCH  12  13
HETATM   13  C   UNL     1     -11.328  11.253  69.444  1.00  0.00    -0.360 C  
BRANCH  13  14
HETATM   14  C   UNL     1     -12.261  11.335  70.650  1.00  0.00    -0.489 C  
BRANCH  14  15
HETATM   15  C   UNL     1     -12.460  12.804  71.018  1.00  0.00    -0.369 C  
BRANCH  15  16
HETATM   16  C   UNL     1     -13.461  12.983  72.152  1.00  0.00    -0.638 C  
BRANCH  16  17
HETATM   17  C   UNL     1     -13.618  14.465  72.487  1.00  0.00    -0.598 C  
BRANCH  17  18
HETATM   18  C   UNL     1     -12.270  15.113  72.781  1.00  0.00    -0.485 C  
HETATM   19  C   UNL     1     -12.242  15.712  74.178  1.00  0.00    -0.724 C  
ENDBRANCH  17  18
ENDBRANCH  16  17
ENDBRANCH  15  16
ENDBRANCH  14  15
ENDBRANCH  13  14
ENDBRANCH  12  13
ENDBRANCH   9  12
ENDBRANCH   8   9
ENDBRANCH   7   8
ENDBRANCH   6   7
ENDBRANCH   5   6
ENDBRANCH   4   5
ENDBRANCH   3   4
ENDBRANCH   2   3
TORSDOF 14
ENDMDL
MODEL       35
REMARK 921   NORMALIZED FREE ENERGY PREDICTED BY IDOCK:   -3.77 KCAL/MOL
REMARK 922        TOTAL FREE ENERGY PREDICTED BY IDOCK:   -8.59 KCAL/MOL
REMARK 923 INTER-LIGAND FREE ENERGY PREDICTED BY IDOCK:   -7.31 KCAL/MOL
REMARK 924 INTRA-LIGAND FREE ENERGY PREDICTED BY IDOCK:   -1.29 KCAL/MOL
REMARK 927      BINDING AFFINITY PREDICTED BY RF-SCORE:    0.00 PKD
ROOT
HETATM    1  C   UNL     1     -12.488  12.069  63.673  1.00  0.00    -0.637 C  
HETATM    2  C   UNL     1     -12.517  12.503  65.130  1.00  0.00    -0.451 C  
ENDROOT
BRANCH   2   3
HETATM    3  C   UNL     1     -12.445  14.020  65.253  1.00  0.00    -0.495 C  
BRANCH   3   4
HETATM    4  C   UNL     1     -11.110  14.555  64.735  1.00  0.00    -0.400 C  
BRANCH   4   5
HETATM    5  C   UNL     1     -11.125  16.077  64.720  1.00  0.00    -0.378 C  
BRANCH   5   6
HETATM    6  C   UNL     1     -10.337  16.674  65.886  1.00  0.00    -0.355 C  
BRANCH   6   7
HETATM    7  C   UNL     1      -9.005  15.941  66.005  1.00  0.00    -0.337 C  
BRANCH   7   8
HETATM    8  C   UNL     1      -8.276  16.264  67.306  1.00  0.00    -0.172 C  
BRANCH   8   9
HETATM    9  N   UNL     1      -8.270  15.074  68.308  1.00  0.00    -0.140 N  
HETATM   10  C   UNL     1      -8.339  13.748  67.551  1.00  0.00    -0.192 C  
HETATM   11  C   UNL     1      -7.006  15.116  69.167  1.00  0.00    -0.147 C  
BRANCH   9  12
HETATM   12  C   UNL     1      -9.531  15.250  69.201  1.00  0.00    -0.236 C  
BRANCH  12  13
HETATM   13  C   UNL     1     -10.640  14.261  68.859  1.00  0.00    -0.252 C  
BRANCH  13  14
HETATM   14  C   UNL     1     -12.033  14.857  69.050  1.00  0.00    -0.307 C  
BRANCH  14  15
HETATM   15  C   UNL     1     -12.617  14.332  70.361  1.00  0.00    -0.405 C  
BRANCH  15  16
HETATM   16  C   UNL     1     -13.747  15.210  70.881  1.00  0.00    -0.352 C  
BRANCH  16  17
HETATM   17  C   UNL     1     -13.953  14.975  72.376  1.00  0.00    -0.593 C  
BRANCH  17  18
HETATM   18  C   UNL     1     -13.205  16.011  73.208  1.00  0.00    -0.651 C  
HETATM   19  C   UNL     1     -12.359  15.346  74.280  1.00  0.00    -0.807 C  
ENDBRANCH  17  18
ENDBRANCH  16  17
ENDBRANCH  15  16
ENDBRANCH  14  15
ENDBRANCH  13  14
ENDBRANCH  12  13
ENDBRANCH   9  12
ENDBRANCH   8   9
ENDBRANCH   7   8
ENDBRANCH   6   7
ENDBRANCH   5   6
ENDBRANCH   4   5
ENDBRANCH   3   4
ENDBRANCH   2   3
TORSDOF 14
ENDMDL
MODEL       36
REMARK 921   NORMALIZED FREE ENERGY PREDICTED BY IDOCK:   -3.76 KCAL/MOL
REMARK 922        TOTAL FREE ENERGY PREDICTED BY IDOCK:   -8.57 KCAL/MOL
REMARK 923 INTER-LIGAND FREE ENERGY PREDICTED BY IDOCK:   -7.63 KCAL/MOL
REMARK 924 INTRA-LIGAND FREE ENERGY PREDICTED BY IDOCK:   -0.94 KCAL/MOL
REMARK 927      BINDING AFFINITY PREDICTED BY RF-SCORE:    0.00 PKD
ROOT
HETATM    1  C   UNL     1      -9.574   8.831  65.967  1.00  0.00    -0.297 C  
HETATM    2  C   UNL     1      -9.889  10.202  65.390  1.00  0.00    -0.375 C  
ENDROOT
BRANCH   2   3
HETATM    3  C   UNL     1      -9.667  10.227  63.883  1.00  0.00    -0.325 C  
BRANCH   3   4
HETATM    4  C   UNL     1     -10.237  11.501  63.260  1.00  0.00    -0.432 C  
BRANCH   4   5
HETATM    5  C   UNL     1     -11.490  11.934  64.007  1.00  0.00    -0.480 C  
BRANCH   5   6
HETATM    6  C   UNL     1     -12.068  13.238  63.457  1.00  0.00    -0.550 C  
BRANCH   6   7
HETATM    7  C   UNL     1     -12.301  14.200  64.618  1.00  0.00    -0.432 C  
BRANCH   7   8
HETATM    8  C   UNL     1     -12.136  13.525  65.976  1.00  0.00    -0.445 C  
BRANCH   8   9
HETATM    9  N   UNL     1     -11.088  14.235  66.880  1.00  0.00    -0.304 N  
HETATM   10  C   UNL     1      -9.842  13.361  67.029  1.00  0.00    -0.250 C  
HETATM   11  C   UNL     1     -10.704  15.587  66.279  1.00  0.00    -0.307 C  
BRANCH   9  12
HETATM   12  C   UNL     1     -11.771  14.438  68.262  1.00  0.00    -0.341 C  
BRANCH  12  13
HETATM   13  C   UNL     1     -10.794  14.884  69.345  1.00  0.00    -0.274 C  
BRANCH  13  14
HETATM   14  C   UNL     1     -11.497  15.539  70.532  1.00  0.00    -0.368 C  
BRANCH  14  15
HETATM   15  C   UNL     1     -12.837  14.839  70.756  1.00  0.00    -0.418 C  
BRANCH  15  16
HETATM   16  C   UNL     1     -12.960  14.267  72.162  1.00  0.00    -0.456 C  
BRANCH  16  17
HETATM   17  C   UNL     1     -13.607  12.884  72.113  1.00  0.00    -0.589 C  
BRANCH  17  18
HETATM   18  C   UNL     1     -12.773  11.911  71.287  1.00  0.00    -0.401 C  
HETATM   19  C   UNL     1     -13.034  10.473  71.705  1.00  0.00    -0.581 C  
ENDBRANCH  17  18
ENDBRANCH  16  17
ENDBRANCH  15  16
ENDBRANCH  14  15
ENDBRANCH  13  14
ENDBRANCH  12  13
ENDBRANCH   9  12
ENDBRANCH   8   9
ENDBRANCH   7   8
ENDBRANCH   6   7
ENDBRANCH   5   6
ENDBRANCH   4   5
ENDBRANCH   3   4
ENDBRANCH   2   3
TORSDOF 14
ENDMDL
MODEL       37
REMARK 921   NORMALIZED FREE ENERGY PREDICTED BY IDOCK:   -3.76 KCAL/MOL
REMARK 922        TOTAL FREE ENERGY PREDICTED BY IDOCK:   -8.56 KCAL/MOL
REMARK 923 INTER-LIGAND FREE ENERGY PREDICTED BY IDOCK:   -7.54 KCAL/MOL
REMARK 924 INTRA-LIGAND FREE ENERGY PREDICTED BY IDOCK:   -1.03 KCAL/MOL
REMARK 927      BINDING AFFINITY PREDICTED BY RF-SCORE:    0.00 PKD
ROOT
HETATM    1  C   UNL     1     -14.370  14.491  72.005  1.00  0.00    -0.639 C  
HETATM    2  C   UNL     1     -13.162  13.663  71.598  1.00  0.00    -0.447 C  
ENDROOT
BRANCH   2   3
HETATM    3  C   UNL     1     -13.299  12.221  72.073  1.00  0.00    -0.491 C  
BRANCH   3   4
HETATM    4  C   UNL     1     -12.571  11.258  71.136  1.00  0.00    -0.501 C  
BRANCH   4   5
HETATM    5  C   UNL     1     -11.877  12.031  70.025  1.00  0.00    -0.392 C  
BRANCH   5   6
HETATM    6  C   UNL     1     -12.070  11.377  68.657  1.00  0.00    -0.214 C  
BRANCH   6   7
HETATM    7  C   UNL     1     -11.694  12.383  67.574  1.00  0.00    -0.425 C  
BRANCH   7   8
HETATM    8  C   UNL     1     -11.064  11.718  66.354  1.00  0.00    -0.307 C  
BRANCH   8   9
HETATM    9  N   UNL     1     -11.298  12.517  65.040  1.00  0.00    -0.303 N  
HETATM   10  C   UNL     1     -11.031  11.628  63.826  1.00  0.00    -0.422 C  
HETATM   11  C   UNL     1     -12.734  13.041  64.992  1.00  0.00    -0.410 C  
BRANCH   9  12
HETATM   12  C   UNL     1     -10.295  13.705  65.069  1.00  0.00    -0.374 C  
BRANCH  12  13
HETATM   13  C   UNL     1     -10.987  15.061  65.166  1.00  0.00    -0.417 C  
BRANCH  13  14
HETATM   14  C   UNL     1     -10.343  15.971  66.209  1.00  0.00    -0.330 C  
BRANCH  14  15
HETATM   15  C   UNL     1     -11.277  16.074  67.414  1.00  0.00    -0.085 C  
BRANCH  15  16
HETATM   16  C   UNL     1     -10.666  16.886  68.548  1.00  0.00    -0.359 C  
BRANCH  16  17
HETATM   17  C   UNL     1      -9.879  18.069  67.987  1.00  0.00    -0.324 C  
BRANCH  17  18
HETATM   18  C   UNL     1     -10.812  19.160  67.473  1.00  0.00    -0.512 C  
HETATM   19  C   UNL     1     -10.049  20.195  66.662  1.00  0.00    -0.584 C  
ENDBRANCH  17  18
ENDBRANCH  16  17
ENDBRANCH  15  16
ENDBRANCH  14  15
ENDBRANCH  13  14
ENDBRANCH  12  13
ENDBRANCH   9  12
ENDBRANCH   8   9
ENDBRANCH   7   8
ENDBRANCH   6   7
ENDBRANCH   5   6
ENDBRANCH   4   5
ENDBRANCH   3   4
ENDBRANCH   2   3
TORSDOF 14
ENDMDL
MODEL       38
REMARK 921   NORMALIZED FREE ENERGY PREDICTED BY IDOCK:   -3.75 KCAL/MOL
REMARK 922        TOTAL FREE ENERGY PREDICTED BY IDOCK:   -8.56 KCAL/MOL
REMARK 923 INTER-LIGAND FREE ENERGY PREDICTED BY IDOCK:   -7.60 KCAL/MOL
REMARK 924 INTRA-LIGAND FREE ENERGY PREDICTED BY IDOCK:   -0.96 KCAL/MOL
REMARK 927      BINDING AFFINITY PREDICTED BY RF-SCORE:    0.00 PKD
ROOT
HETATM    1  C   UNL     1     -10.228  10.641  65.523  1.00  0.00    -0.329 C  
HETATM    2  C   UNL     1      -9.891  10.628  64.041  1.00  0.00    -0.399 C  
ENDROOT
BRANCH   2   3
HETATM    3  C   UNL     1     -10.440  11.865  63.342  1.00  0.00    -0.487 C  
BRANCH   3   4
HETATM    4  C   UNL     1     -11.875  12.157  63.777  1.00  0.00    -0.592 C  
BRANCH   4   5
HETATM    5  C   UNL     1     -12.052  13.645  64.038  1.00  0.00    -0.474 C  
BRANCH   5   6
HETATM    6  C   UNL     1     -12.894  13.917  65.285  1.00  0.00    -0.437 C  
BRANCH   6   7
HETATM    7  C   UNL     1     -11.969  13.991  66.496  1.00  0.00    -0.470 C  
BRANCH   7   8
HETATM    8  C   UNL     1     -11.141  15.272  66.520  1.00  0.00    -0.271 C  
BRANCH   8   9
HETATM    9  N   UNL     1     -10.777  15.729  67.961  1.00  0.00    -0.286 N  
HETATM   10  C   UNL     1     -11.892  15.347  68.934  1.00  0.00    -0.329 C  
HETATM   11  C   UNL     1      -9.462  15.084  68.401  1.00  0.00    -0.201 C  
BRANCH   9  12
HETATM   12  C   UNL     1     -10.621  17.275  67.902  1.00  0.00    -0.384 C  
BRANCH  12  13
HETATM   13  C   UNL     1     -10.270  17.781  66.506  1.00  0.00    -0.358 C  
BRANCH  13  14
HETATM   14  C   UNL     1     -10.616  19.256  66.316  1.00  0.00    -0.545 C  
BRANCH  14  15
HETATM   15  C   UNL     1      -9.599  20.102  67.081  1.00  0.00    -0.554 C  
BRANCH  15  16
HETATM   16  C   UNL     1      -8.199  19.991  66.493  1.00  0.00    -0.347 C  
BRANCH  16  17
HETATM   17  C   UNL     1      -7.178  20.617  67.441  1.00  0.00    -0.391 C  
BRANCH  17  18
HETATM   18  C   UNL     1      -7.018  19.787  68.710  1.00  0.00    -0.366 C  
HETATM   19  C   UNL     1      -5.981  20.398  69.638  1.00  0.00    -0.384 C  
ENDBRANCH  17  18
ENDBRANCH  16  17
ENDBRANCH  15  16
ENDBRANCH  14  15
ENDBRANCH  13  14
ENDBRANCH  12  13
ENDBRANCH   9  12
ENDBRANCH   8   9
ENDBRANCH   7   8
ENDBRANCH   6   7
ENDBRANCH   5   6
ENDBRANCH   4   5
ENDBRANCH   3   4
ENDBRANCH   2   3
TORSDOF 14
ENDMDL
MODEL       39
REMARK 921   NORMALIZED FREE ENERGY PREDICTED BY IDOCK:   -3.75 KCAL/MOL
REMARK 922        TOTAL FREE ENERGY PREDICTED BY IDOCK:   -8.55 KCAL/MOL
REMARK 923 INTER-LIGAND FREE ENERGY PREDICTED BY IDOCK:   -7.54 KCAL/MOL
REMARK 924 INTRA-LIGAND FREE ENERGY PREDICTED BY IDOCK:   -1.01 KCAL/MOL
REMARK 927      BINDING AFFINITY PREDICTED BY RF-SCORE:    0.00 PKD
ROOT
HETATM    1  C   UNL     1     -14.408   7.441  71.552  1.00  0.00    -0.594 C  
HETATM    2  C   UNL     1     -13.799   8.815  71.780  1.00  0.00    -0.469 C  
ENDROOT
BRANCH   2   3
HETATM    3  C   UNL     1     -12.418   8.704  72.416  1.00  0.00    -0.428 C  
BRANCH   3   4
HETATM    4  C   UNL     1     -11.374   9.478  71.612  1.00  0.00    -0.411 C  
BRANCH   4   5
HETATM    5  C   UNL     1     -12.021  10.123  70.395  1.00  0.00    -0.353 C  
BRANCH   5   6
HETATM    6  C   UNL     1     -12.217  11.628  70.573  1.00  0.00    -0.451 C  
BRANCH   6   7
HETATM    7  C   UNL     1     -11.645  12.346  69.355  1.00  0.00    -0.371 C  
BRANCH   7   8
HETATM    8  C   UNL     1     -11.881  13.853  69.402  1.00  0.00    -0.334 C  
BRANCH   8   9
HETATM    9  N   UNL     1     -11.205  14.608  68.221  1.00  0.00    -0.272 N  
HETATM   10  C   UNL     1     -11.307  16.118  68.434  1.00  0.00    -0.345 C  
HETATM   11  C   UNL     1      -9.736  14.198  68.107  1.00  0.00    -0.225 C  
BRANCH   9  12
HETATM   12  C   UNL     1     -11.979  14.191  66.938  1.00  0.00    -0.449 C  
BRANCH  12  13
HETATM   13  C   UNL     1     -11.295  14.660  65.658  1.00  0.00    -0.338 C  
BRANCH  13  14
HETATM   14  C   UNL     1     -12.109  14.331  64.408  1.00  0.00    -0.490 C  
BRANCH  14  15
HETATM   15  C   UNL     1     -12.039  12.825  64.158  1.00  0.00    -0.513 C  
BRANCH  15  16
HETATM   16  C   UNL     1     -10.650  12.378  63.723  1.00  0.00    -0.486 C  
BRANCH  16  17
HETATM   17  C   UNL     1     -10.325  11.010  64.322  1.00  0.00    -0.430 C  
BRANCH  17  18
HETATM   18  C   UNL     1      -9.954  11.125  65.796  1.00  0.00    -0.292 C  
HETATM   19  C   UNL     1     -10.266   9.838  66.542  1.00  0.00    -0.289 C  
ENDBRANCH  17  18
ENDBRANCH  16  17
ENDBRANCH  15  16
ENDBRANCH  14  15
ENDBRANCH  13  14
ENDBRANCH  12  13
ENDBRANCH   9  12
ENDBRANCH   8   9
ENDBRANCH   7   8
ENDBRANCH   6   7
ENDBRANCH   5   6
ENDBRANCH   4   5
ENDBRANCH   3   4
ENDBRANCH   2   3
TORSDOF 14
ENDMDL
MODEL       40
REMARK 921   NORMALIZED FREE ENERGY PREDICTED BY IDOCK:   -3.75 KCAL/MOL
REMARK 922        TOTAL FREE ENERGY PREDICTED BY IDOCK:   -8.55 KCAL/MOL
REMARK 923 INTER-LIGAND FREE ENERGY PREDICTED BY IDOCK:   -7.25 KCAL/MOL
REMARK 924 INTRA-LIGAND FREE ENERGY PREDICTED BY IDOCK:   -1.31 KCAL/MOL
REMARK 927      BINDING AFFINITY PREDICTED BY RF-SCORE:    0.00 PKD
ROOT
HETATM    1  C   UNL     1     -10.125   7.476  73.571  1.00  0.00    -0.378 C  
HETATM    2  C   UNL     1     -10.425   5.991  73.707  1.00  0.00    -0.288 C  
ENDROOT
BRANCH   2   3
HETATM    3  C   UNL     1     -11.021   5.431  72.422  1.00  0.00    -0.298 C  
BRANCH   3   4
HETATM    4  C   UNL     1     -12.031   6.401  71.810  1.00  0.00    -0.370 C  
BRANCH   4   5
HETATM    5  C   UNL     1     -11.749   6.585  70.326  1.00  0.00    -0.430 C  
BRANCH   5   6
HETATM    6  C   UNL     1     -10.309   6.225  69.962  1.00  0.00    -0.252 C  
BRANCH   6   7
HETATM    7  C   UNL     1      -9.682   7.399  69.217  1.00  0.00    -0.165 C  
BRANCH   7   8
HETATM    8  C   UNL     1      -9.932   8.732  69.916  1.00  0.00    -0.187 C  
BRANCH   8   9
HETATM    9  N   UNL     1     -10.350   9.861  68.931  1.00  0.00    -0.196 N  
HETATM   10  C   UNL     1      -9.234  10.899  68.814  1.00  0.00    -0.183 C  
HETATM   11  C   UNL     1     -10.656   9.272  67.554  1.00  0.00    -0.262 C  
BRANCH   9  12
HETATM   12  C   UNL     1     -11.629  10.511  69.531  1.00  0.00    -0.260 C  
BRANCH  12  13
HETATM   13  C   UNL     1     -11.845  10.148  70.997  1.00  0.00    -0.475 C  
BRANCH  13  14
HETATM   14  C   UNL     1     -13.010  10.912  71.622  1.00  0.00    -0.569 C  
BRANCH  14  15
HETATM   15  C   UNL     1     -12.877  12.392  71.263  1.00  0.00    -0.337 C  
BRANCH  15  16
HETATM   16  C   UNL     1     -13.651  13.288  72.219  1.00  0.00    -0.703 C  
BRANCH  16  17
HETATM   17  C   UNL     1     -13.618  14.735  71.730  1.00  0.00    -0.485 C  
BRANCH  17  18
HETATM   18  C   UNL     1     -13.623  15.715  72.897  1.00  0.00    -0.658 C  
HETATM   19  C   UNL     1     -12.545  15.368  73.910  1.00  0.00    -0.750 C  
ENDBRANCH  17  18
ENDBRANCH  16  17
ENDBRANCH  15  16
ENDBRANCH  14  15
ENDBRANCH  13  14
ENDBRANCH  12  13
ENDBRANCH   9  12
ENDBRANCH   8   9
ENDBRANCH   7   8
ENDBRANCH   6   7
ENDBRANCH   5   6
ENDBRANCH   4   5
ENDBRANCH   3   4
ENDBRANCH   2   3
TORSDOF 14
ENDMDL
MODEL       41
REMARK 921   NORMALIZED FREE ENERGY PREDICTED BY IDOCK:   -3.74 KCAL/MOL
REMARK 922        TOTAL FREE ENERGY PREDICTED BY IDOCK:   -8.54 KCAL/MOL
REMARK 923 INTER-LIGAND FREE ENERGY PREDICTED BY IDOCK:   -7.23 KCAL/MOL
REMARK 924 INTRA-LIGAND FREE ENERGY PREDICTED BY IDOCK:   -1.32 KCAL/MOL
REMARK 927      BINDING AFFINITY PREDICTED BY RF-SCORE:    0.00 PKD
ROOT
HETATM    1  C   UNL     1     -10.266  10.654  64.720  1.00  0.00    -0.401 C  
HETATM    2  C   UNL     1     -10.465  11.323  63.369  1.00  0.00    -0.424 C  
ENDROOT
BRANCH   2   3
HETATM    3  C   UNL     1     -11.340  12.564  63.494  1.00  0.00    -0.556 C  
BRANCH   3   4
HETATM    4  C   UNL     1     -12.462  12.351  64.510  1.00  0.00    -0.519 C  
BRANCH   4   5
HETATM    5  C   UNL     1     -12.513  13.516  65.487  1.00  0.00    -0.538 C  
BRANCH   5   6
HETATM    6  C   UNL     1     -12.023  13.124  66.881  1.00  0.00    -0.421 C  
BRANCH   6   7
HETATM    7  C   UNL     1     -10.547  13.488  67.003  1.00  0.00    -0.269 C  
BRANCH   7   8
HETATM    8  C   UNL     1     -10.322  14.733  67.856  1.00  0.00    -0.240 C  
BRANCH   8   9
HETATM    9  N   UNL     1      -9.140  15.608  67.349  1.00  0.00    -0.191 N  
HETATM   10  C   UNL     1      -7.866  14.768  67.253  1.00  0.00    -0.194 C  
HETATM   11  C   UNL     1      -9.474  16.201  65.980  1.00  0.00    -0.339 C  
BRANCH   9  12
HETATM   12  C   UNL     1      -8.958  16.743  68.395  1.00  0.00    -0.233 C  
BRANCH  12  13
HETATM   13  C   UNL     1     -10.246  17.518  68.656  1.00  0.00    -0.373 C  
BRANCH  13  14
HETATM   14  C   UNL     1     -10.031  19.030  68.640  1.00  0.00    -0.482 C  
BRANCH  14  15
HETATM   15  C   UNL     1     -10.748  19.616  67.424  1.00  0.00    -0.563 C  
BRANCH  15  16
HETATM   16  C   UNL     1      -9.797  19.870  66.263  1.00  0.00    -0.570 C  
BRANCH  16  17
HETATM   17  C   UNL     1      -8.372  20.062  66.780  1.00  0.00    -0.372 C  
BRANCH  17  18
HETATM   18  C   UNL     1      -7.344  19.576  65.764  1.00  0.00    -0.297 C  
HETATM   19  C   UNL     1      -6.518  18.431  66.326  1.00  0.00    -0.245 C  
ENDBRANCH  17  18
ENDBRANCH  16  17
ENDBRANCH  15  16
ENDBRANCH  14  15
ENDBRANCH  13  14
ENDBRANCH  12  13
ENDBRANCH   9  12
ENDBRANCH   8   9
ENDBRANCH   7   8
ENDBRANCH   6   7
ENDBRANCH   5   6
ENDBRANCH   4   5
ENDBRANCH   3   4
ENDBRANCH   2   3
TORSDOF 14
ENDMDL
MODEL       42
REMARK 921   NORMALIZED FREE ENERGY PREDICTED BY IDOCK:   -3.74 KCAL/MOL
REMARK 922        TOTAL FREE ENERGY PREDICTED BY IDOCK:   -8.54 KCAL/MOL
REMARK 923 INTER-LIGAND FREE ENERGY PREDICTED BY IDOCK:   -6.65 KCAL/MOL
REMARK 924 INTRA-LIGAND FREE ENERGY PREDICTED BY IDOCK:   -1.89 KCAL/MOL
REMARK 927      BINDING AFFINITY PREDICTED BY RF-SCORE:    0.00 PKD
ROOT
HETATM    1  C   UNL     1     -12.880  13.966  65.372  1.00  0.00    -0.466 C  
HETATM    2  C   UNL     1     -12.517  12.598  64.817  1.00  0.00    -0.555 C  
ENDROOT
BRANCH   2   3
HETATM    3  C   UNL     1     -11.816  12.721  63.470  1.00  0.00    -0.618 C  
BRANCH   3   4
HETATM    4  C   UNL     1     -10.469  11.998  63.477  1.00  0.00    -0.505 C  
BRANCH   4   5
HETATM    5  C   UNL     1     -10.491  10.859  64.486  1.00  0.00    -0.393 C  
BRANCH   5   6
HETATM    6  C   UNL     1      -9.086  10.442  64.918  1.00  0.00    -0.242 C  
BRANCH   6   7
HETATM    7  C   UNL     1      -9.105  10.122  66.410  1.00  0.00    -0.176 C  
BRANCH   7   8
HETATM    8  C   UNL     1     -10.496  10.274  67.020  1.00  0.00    -0.244 C  
BRANCH   8   9
HETATM    9  N   UNL     1     -10.480  11.035  68.377  1.00  0.00    -0.171 N  
HETATM   10  C   UNL     1     -11.870  11.591  68.685  1.00  0.00    -0.318 C  
HETATM   11  C   UNL     1     -10.037  10.097  69.501  1.00  0.00    -0.235 C  
BRANCH   9  12
HETATM   12  C   UNL     1      -9.459  12.196  68.214  1.00  0.00    -0.204 C  
BRANCH  12  13
HETATM   13  C   UNL     1     -10.116  13.505  67.789  1.00  0.00    -0.236 C  
BRANCH  13  14
HETATM   14  C   UNL     1      -9.465  14.108  66.546  1.00  0.00    -0.303 C  
BRANCH  14  15
HETATM   15  C   UNL     1      -9.625  15.627  66.595  1.00  0.00    -0.267 C  
BRANCH  15  16
HETATM   16  C   UNL     1     -10.716  16.060  67.565  1.00  0.00    -0.314 C  
BRANCH  16  17
HETATM   17  C   UNL     1     -10.349  17.396  68.208  1.00  0.00    -0.374 C  
BRANCH  17  18
HETATM   18  C   UNL     1     -10.602  18.558  67.255  1.00  0.00    -0.453 C  
HETATM   19  C   UNL     1     -10.173  19.879  67.873  1.00  0.00    -0.571 C  
ENDBRANCH  17  18
ENDBRANCH  16  17
ENDBRANCH  15  16
ENDBRANCH  14  15
ENDBRANCH  13  14
ENDBRANCH  12  13
ENDBRANCH   9  12
ENDBRANCH   8   9
ENDBRANCH   7   8
ENDBRANCH   6   7
ENDBRANCH   5   6
ENDBRANCH   4   5
ENDBRANCH   3   4
ENDBRANCH   2   3
TORSDOF 14
ENDMDL
MODEL       43
REMARK 921   NORMALIZED FREE ENERGY PREDICTED BY IDOCK:   -3.74 KCAL/MOL
REMARK 922        TOTAL FREE ENERGY PREDICTED BY IDOCK:   -8.54 KCAL/MOL
REMARK 923 INTER-LIGAND FREE ENERGY PREDICTED BY IDOCK:   -7.29 KCAL/MOL
REMARK 924 INTRA-LIGAND FREE ENERGY PREDICTED BY IDOCK:   -1.25 KCAL/MOL
REMARK 927      BINDING AFFINITY PREDICTED BY RF-SCORE:    0.00 PKD
ROOT
HETATM    1  C   UNL     1     -11.584  15.326  67.421  1.00  0.00    -0.196 C  
HETATM    2  C   UNL     1     -11.429  14.455  66.185  1.00  0.00    -0.357 C  
ENDROOT
BRANCH   2   3
HETATM    3  C   UNL     1     -12.764  13.849  65.768  1.00  0.00    -0.503 C  
BRANCH   3   4
HETATM    4  C   UNL     1     -12.566  12.676  64.809  1.00  0.00    -0.530 C  
BRANCH   4   5
HETATM    5  C   UNL     1     -11.668  13.091  63.652  1.00  0.00    -0.550 C  
BRANCH   5   6
HETATM    6  C   UNL     1     -10.551  12.080  63.395  1.00  0.00    -0.478 C  
BRANCH   6   7
HETATM    7  C   UNL     1     -10.522  11.077  64.545  1.00  0.00    -0.411 C  
BRANCH   7   8
HETATM    8  C   UNL     1      -9.262  11.203  65.396  1.00  0.00    -0.205 C  
BRANCH   8   9
HETATM    9  N   UNL     1      -9.361  10.429  66.742  1.00  0.00    -0.155 N  
HETATM   10  C   UNL     1     -10.148   9.133  66.548  1.00  0.00    -0.287 C  
HETATM   11  C   UNL     1      -7.962  10.112  67.271  1.00  0.00    -0.110 C  
BRANCH   9  12
HETATM   12  C   UNL     1     -10.108  11.368  67.730  1.00  0.00    -0.181 C  
BRANCH  12  13
HETATM   13  C   UNL     1     -11.362  10.730  68.320  1.00  0.00    -0.376 C  
BRANCH  13  14
HETATM   14  C   UNL     1     -11.288  10.594  69.839  1.00  0.00    -0.386 C  
BRANCH  14  15
HETATM   15  C   UNL     1     -12.208  11.637  70.471  1.00  0.00    -0.451 C  
BRANCH  15  16
HETATM   16  C   UNL     1     -12.966  11.085  71.670  1.00  0.00    -0.561 C  
BRANCH  16  17
HETATM   17  C   UNL     1     -12.738   9.580  71.791  1.00  0.00    -0.492 C  
BRANCH  17  18
HETATM   18  C   UNL     1     -14.025   8.851  72.162  1.00  0.00    -0.520 C  
HETATM   19  C   UNL     1     -14.055   7.453  71.567  1.00  0.00    -0.541 C  
ENDBRANCH  17  18
ENDBRANCH  16  17
ENDBRANCH  15  16
ENDBRANCH  14  15
ENDBRANCH  13  14
ENDBRANCH  12  13
ENDBRANCH   9  12
ENDBRANCH   8   9
ENDBRANCH   7   8
ENDBRANCH   6   7
ENDBRANCH   5   6
ENDBRANCH   4   5
ENDBRANCH   3   4
ENDBRANCH   2   3
TORSDOF 14
ENDMDL
MODEL       44
REMARK 921   NORMALIZED FREE ENERGY PREDICTED BY IDOCK:   -3.74 KCAL/MOL
REMARK 922        TOTAL FREE ENERGY PREDICTED BY IDOCK:   -8.54 KCAL/MOL
REMARK 923 INTER-LIGAND FREE ENERGY PREDICTED BY IDOCK:   -7.52 KCAL/MOL
REMARK 924 INTRA-LIGAND FREE ENERGY PREDICTED BY IDOCK:   -1.02 KCAL/MOL
REMARK 927      BINDING AFFINITY PREDICTED BY RF-SCORE:    0.00 PKD
ROOT
HETATM    1  C   UNL     1     -11.796   8.109  71.469  1.00  0.00    -0.332 C  
HETATM    2  C   UNL     1     -11.800   9.627  71.375  1.00  0.00    -0.484 C  
ENDROOT
BRANCH   2   3
HETATM    3  C   UNL     1     -13.128  10.203  71.848  1.00  0.00    -0.571 C  
BRANCH   3   4
HETATM    4  C   UNL     1     -13.152  11.725  71.713  1.00  0.00    -0.480 C  
BRANCH   4   5
HETATM    5  C   UNL     1     -12.268  12.162  70.553  1.00  0.00    -0.392 C  
BRANCH   5   6
HETATM    6  C   UNL     1     -12.185  13.684  70.431  1.00  0.00    -0.434 C  
BRANCH   6   7
HETATM    7  C   UNL     1     -12.034  14.050  68.957  1.00  0.00    -0.392 C  
BRANCH   7   8
HETATM    8  C   UNL     1     -11.771  12.832  68.078  1.00  0.00    -0.356 C  
BRANCH   8   9
HETATM    9  N   UNL     1     -11.162  13.204  66.696  1.00  0.00    -0.296 N  
HETATM   10  C   UNL     1      -9.649  12.990  66.711  1.00  0.00    -0.248 C  
HETATM   11  C   UNL     1     -11.795  12.351  65.595  1.00  0.00    -0.409 C  
BRANCH   9  12
HETATM   12  C   UNL     1     -11.491  14.706  66.465  1.00  0.00    -0.351 C  
BRANCH  12  13
HETATM   13  C   UNL     1     -10.347  15.468  65.804  1.00  0.00    -0.384 C  
BRANCH  13  14
HETATM   14  C   UNL     1     -10.383  16.962  66.116  1.00  0.00    -0.327 C  
BRANCH  14  15
HETATM   15  C   UNL     1     -10.544  17.146  67.624  1.00  0.00    -0.343 C  
BRANCH  15  16
HETATM   16  C   UNL     1     -10.416  18.603  68.044  1.00  0.00    -0.395 C  
BRANCH  16  17
HETATM   17  C   UNL     1     -10.313  19.500  66.811  1.00  0.00    -0.570 C  
BRANCH  17  18
HETATM   18  C   UNL     1      -9.090  20.408  66.887  1.00  0.00    -0.412 C  
HETATM   19  C   UNL     1      -7.902  19.788  66.169  1.00  0.00    -0.344 C  
ENDBRANCH  17  18
ENDBRANCH  16  17
ENDBRANCH  15  16
ENDBRANCH  14  15
ENDBRANCH  13  14
ENDBRANCH  12  13
ENDBRANCH   9  12
ENDBRANCH   8   9
ENDBRANCH   7   8
ENDBRANCH   6   7
ENDBRANCH   5   6
ENDBRANCH   4   5
ENDBRANCH   3   4
ENDBRANCH   2   3
TORSDOF 14
ENDMDL
MODEL       45
REMARK 921   NORMALIZED FREE ENERGY PREDICTED BY IDOCK:   -3.72 KCAL/MOL
REMARK 922        TOTAL FREE ENERGY PREDICTED BY IDOCK:   -8.50 KCAL/MOL
REMARK 923 INTER-LIGAND FREE ENERGY PREDICTED BY IDOCK:   -7.03 KCAL/MOL
REMARK 924 INTRA-LIGAND FREE ENERGY PREDICTED BY IDOCK:   -1.47 KCAL/MOL
REMARK 927      BINDING AFFINITY PREDICTED BY RF-SCORE:    0.00 PKD
ROOT
HETATM    1  C   UNL     1     -14.410   8.470  72.113  1.00  0.00    -0.529 C  
HETATM    2  C   UNL     1     -13.965   7.187  71.430  1.00  0.00    -0.384 C  
ENDROOT
BRANCH   2   3
HETATM    3  C   UNL     1     -12.449   7.139  71.286  1.00  0.00    -0.425 C  
BRANCH   3   4
HETATM    4  C   UNL     1     -11.799   8.404  71.846  1.00  0.00    -0.398 C  
BRANCH   4   5
HETATM    5  C   UNL     1     -10.578   8.777  71.017  1.00  0.00    -0.293 C  
BRANCH   5   6
HETATM    6  C   UNL     1     -10.599   8.130  69.633  1.00  0.00    -0.223 C  
BRANCH   6   7
HETATM    7  C   UNL     1      -9.841   9.027  68.659  1.00  0.00    -0.177 C  
BRANCH   7   8
HETATM    8  C   UNL     1      -9.621  10.432  69.213  1.00  0.00    -0.209 C  
BRANCH   8   9
HETATM    9  N   UNL     1      -9.620  11.525  68.106  1.00  0.00    -0.181 N  
HETATM   10  C   UNL     1      -8.406  12.439  68.269  1.00  0.00    -0.169 C  
HETATM   11  C   UNL     1      -9.595  10.872  66.723  1.00  0.00    -0.183 C  
BRANCH   9  12
HETATM   12  C   UNL     1     -10.933  12.335  68.293  1.00  0.00    -0.232 C  
BRANCH  12  13
HETATM   13  C   UNL     1     -11.839  11.753  69.374  1.00  0.00    -0.398 C  
BRANCH  13  14
HETATM   14  C   UNL     1     -12.151  12.760  70.478  1.00  0.00    -0.369 C  
BRANCH  14  15
HETATM   15  C   UNL     1     -12.929  12.050  71.585  1.00  0.00    -0.439 C  
BRANCH  15  16
HETATM   16  C   UNL     1     -13.759  13.018  72.417  1.00  0.00    -0.593 C  
BRANCH  16  17
HETATM   17  C   UNL     1     -13.890  14.357  71.694  1.00  0.00    -0.492 C  
BRANCH  17  18
HETATM   18  C   UNL     1     -13.737  15.526  72.660  1.00  0.00    -0.667 C  
HETATM   19  C   UNL     1     -12.732  15.206  73.754  1.00  0.00    -0.667 C  
ENDBRANCH  17  18
ENDBRANCH  16  17
ENDBRANCH  15  16
ENDBRANCH  14  15
ENDBRANCH  13  14
ENDBRANCH  12  13
ENDBRANCH   9  12
ENDBRANCH   8   9
ENDBRANCH   7   8
ENDBRANCH   6   7
ENDBRANCH   5   6
ENDBRANCH   4   5
ENDBRANCH   3   4
ENDBRANCH   2   3
TORSDOF 14
ENDMDL
MODEL       46
REMARK 921   NORMALIZED FREE ENERGY PREDICTED BY IDOCK:   -3.72 KCAL/MOL
REMARK 922        TOTAL FREE ENERGY PREDICTED BY IDOCK:   -8.50 KCAL/MOL
REMARK 923 INTER-LIGAND FREE ENERGY PREDICTED BY IDOCK:   -6.69 KCAL/MOL
REMARK 924 INTRA-LIGAND FREE ENERGY PREDICTED BY IDOCK:   -1.81 KCAL/MOL
REMARK 927      BINDING AFFINITY PREDICTED BY RF-SCORE:    0.00 PKD
ROOT
HETATM    1  C   UNL     1     -12.236   6.965  70.989  1.00  0.00    -0.427 C  
HETATM    2  C   UNL     1     -12.122   7.989  72.107  1.00  0.00    -0.391 C  
ENDROOT
BRANCH   2   3
HETATM    3  C   UNL     1     -11.602   9.321  71.581  1.00  0.00    -0.463 C  
BRANCH   3   4
HETATM    4  C   UNL     1     -12.726  10.350  71.470  1.00  0.00    -0.564 C  
BRANCH   4   5
HETATM    5  C   UNL     1     -12.224  11.602  70.767  1.00  0.00    -0.443 C  
BRANCH   5   6
HETATM    6  C   UNL     1     -12.012  11.380  69.270  1.00  0.00    -0.400 C  
BRANCH   6   7
HETATM    7  C   UNL     1     -11.162  12.521  68.719  1.00  0.00    -0.318 C  
BRANCH   7   8
HETATM    8  C   UNL     1     -11.999  13.577  68.003  1.00  0.00    -0.337 C  
BRANCH   8   9
HETATM    9  N   UNL     1     -11.489  13.879  66.565  1.00  0.00    -0.334 N  
HETATM   10  C   UNL     1     -12.656  13.862  65.578  1.00  0.00    -0.526 C  
HETATM   11  C   UNL     1     -10.798  15.243  66.527  1.00  0.00    -0.311 C  
BRANCH   9  12
HETATM   12  C   UNL     1     -10.474  12.754  66.217  1.00  0.00    -0.257 C  
BRANCH  12  13
HETATM   13  C   UNL     1     -10.993  11.799  65.147  1.00  0.00    -0.351 C  
BRANCH  13  14
HETATM   14  C   UNL     1     -10.122  10.553  65.005  1.00  0.00    -0.390 C  
BRANCH  14  15
HETATM   15  C   UNL     1      -9.729  10.066  66.399  1.00  0.00    -0.266 C  
BRANCH  15  16
HETATM   16  C   UNL     1     -10.377   8.733  66.748  1.00  0.00    -0.328 C  
BRANCH  16  17
HETATM   17  C   UNL     1     -10.165   8.414  68.227  1.00  0.00    -0.244 C  
BRANCH  17  18
HETATM   18  C   UNL     1      -8.713   8.635  68.639  1.00  0.00    -0.138 C  
HETATM   19  C   UNL     1      -8.595   9.775  69.637  1.00  0.00    -0.201 C  
ENDBRANCH  17  18
ENDBRANCH  16  17
ENDBRANCH  15  16
ENDBRANCH  14  15
ENDBRANCH  13  14
ENDBRANCH  12  13
ENDBRANCH   9  12
ENDBRANCH   8   9
ENDBRANCH   7   8
ENDBRANCH   6   7
ENDBRANCH   5   6
ENDBRANCH   4   5
ENDBRANCH   3   4
ENDBRANCH   2   3
TORSDOF 14
ENDMDL
MODEL       47
REMARK 921   NORMALIZED FREE ENERGY PREDICTED BY IDOCK:   -3.71 KCAL/MOL
REMARK 922        TOTAL FREE ENERGY PREDICTED BY IDOCK:   -8.48 KCAL/MOL
REMARK 923 INTER-LIGAND FREE ENERGY PREDICTED BY IDOCK:   -6.97 KCAL/MOL
REMARK 924 INTRA-LIGAND FREE ENERGY PREDICTED BY IDOCK:   -1.51 KCAL/MOL
REMARK 927      BINDING AFFINITY PREDICTED BY RF-SCORE:    0.00 PKD
ROOT
HETATM    1  C   UNL     1     -11.100  15.033  67.360  1.00  0.00    -0.324 C  
HETATM    2  C   UNL     1     -10.990  14.506  65.938  1.00  0.00    -0.320 C  
ENDROOT
BRANCH   2   3
HETATM    3  C   UNL     1     -12.365  14.194  65.360  1.00  0.00    -0.475 C  
BRANCH   3   4
HETATM    4  C   UNL     1     -12.496  12.713  65.008  1.00  0.00    -0.556 C  
BRANCH   4   5
HETATM    5  C   UNL     1     -12.103  12.481  63.557  1.00  0.00    -0.653 C  
BRANCH   5   6
HETATM    6  C   UNL     1     -10.675  11.955  63.421  1.00  0.00    -0.476 C  
BRANCH   6   7
HETATM    7  C   UNL     1     -10.454  10.859  64.459  1.00  0.00    -0.393 C  
BRANCH   7   8
HETATM    8  C   UNL     1      -9.187  11.082  65.280  1.00  0.00    -0.207 C  
BRANCH   8   9
HETATM    9  N   UNL     1      -9.179  10.275  66.610  1.00  0.00    -0.153 N  
HETATM   10  C   UNL     1      -9.943   8.962  66.434  1.00  0.00    -0.284 C  
HETATM   11  C   UNL     1      -7.741   9.984  67.040  1.00  0.00    -0.095 C  
BRANCH   9  12
HETATM   12  C   UNL     1      -9.884  11.170  67.668  1.00  0.00    -0.174 C  
BRANCH  12  13
HETATM   13  C   UNL     1     -11.255  10.638  68.073  1.00  0.00    -0.373 C  
BRANCH  13  14
HETATM   14  C   UNL     1     -12.027  11.623  68.949  1.00  0.00    -0.355 C  
BRANCH  14  15
HETATM   15  C   UNL     1     -12.120  11.053  70.364  1.00  0.00    -0.463 C  
BRANCH  15  16
HETATM   16  C   UNL     1     -12.655  12.072  71.361  1.00  0.00    -0.330 C  
BRANCH  16  17
HETATM   17  C   UNL     1     -12.211  13.479  70.966  1.00  0.00    -0.348 C  
BRANCH  17  18
HETATM   18  C   UNL     1     -13.332  14.492  71.173  1.00  0.00    -0.415 C  
HETATM   19  C   UNL     1     -14.111  14.195  72.444  1.00  0.00    -0.570 C  
ENDBRANCH  17  18
ENDBRANCH  16  17
ENDBRANCH  15  16
ENDBRANCH  14  15
ENDBRANCH  13  14
ENDBRANCH  12  13
ENDBRANCH   9  12
ENDBRANCH   8   9
ENDBRANCH   7   8
ENDBRANCH   6   7
ENDBRANCH   5   6
ENDBRANCH   4   5
ENDBRANCH   3   4
ENDBRANCH   2   3
TORSDOF 14
ENDMDL
MODEL       48
REMARK 921   NORMALIZED FREE ENERGY PREDICTED BY IDOCK:   -3.71 KCAL/MOL
REMARK 922        TOTAL FREE ENERGY PREDICTED BY IDOCK:   -8.48 KCAL/MOL
REMARK 923 INTER-LIGAND FREE ENERGY PREDICTED BY IDOCK:   -6.93 KCAL/MOL
REMARK 924 INTRA-LIGAND FREE ENERGY PREDICTED BY IDOCK:   -1.55 KCAL/MOL
REMARK 927      BINDING AFFINITY PREDICTED BY RF-SCORE:    0.00 PKD
ROOT
HETATM    1  C   UNL     1     -12.215  16.120  72.862  1.00  0.00    -0.640 C  
HETATM    2  C   UNL     1     -12.674  14.774  73.400  1.00  0.00    -0.588 C  
ENDROOT
BRANCH   2   3
HETATM    3  C   UNL     1     -13.621  14.087  72.425  1.00  0.00    -0.658 C  
BRANCH   3   4
HETATM    4  C   UNL     1     -12.864  13.151  71.483  1.00  0.00    -0.401 C  
BRANCH   4   5
HETATM    5  C   UNL     1     -13.135  11.701  71.855  1.00  0.00    -0.490 C  
BRANCH   5   6
HETATM    6  C   UNL     1     -12.794  10.739  70.718  1.00  0.00    -0.408 C  
BRANCH   6   7
HETATM    7  C   UNL     1     -11.509  11.209  70.044  1.00  0.00    -0.376 C  
BRANCH   7   8
HETATM    8  C   UNL     1     -10.485  10.087  69.895  1.00  0.00    -0.274 C  
BRANCH   8   9
HETATM    9  N   UNL     1      -9.750  10.118  68.524  1.00  0.00    -0.150 N  
HETATM   10  C   UNL     1      -8.791  11.307  68.467  1.00  0.00    -0.159 C  
HETATM   11  C   UNL     1      -8.976   8.816  68.313  1.00  0.00    -0.141 C  
BRANCH   9  12
HETATM   12  C   UNL     1     -10.855  10.266  67.441  1.00  0.00    -0.277 C  
BRANCH  12  13
HETATM   13  C   UNL     1     -10.310  10.756  66.103  1.00  0.00    -0.300 C  
BRANCH  13  14
HETATM   14  C   UNL     1     -11.221  11.790  65.445  1.00  0.00    -0.310 C  
BRANCH  14  15
HETATM   15  C   UNL     1     -10.784  13.185  65.891  1.00  0.00    -0.287 C  
BRANCH  15  16
HETATM   16  C   UNL     1     -11.954  14.024  66.385  1.00  0.00    -0.462 C  
BRANCH  16  17
HETATM   17  C   UNL     1     -12.033  13.975  67.910  1.00  0.00    -0.387 C  
BRANCH  17  18
HETATM   18  C   UNL     1     -11.745  15.340  68.524  1.00  0.00    -0.352 C  
HETATM   19  C   UNL     1     -10.580  15.269  69.497  1.00  0.00    -0.272 C  
ENDBRANCH  17  18
ENDBRANCH  16  17
ENDBRANCH  15  16
ENDBRANCH  14  15
ENDBRANCH  13  14
ENDBRANCH  12  13
ENDBRANCH   9  12
ENDBRANCH   8   9
ENDBRANCH   7   8
ENDBRANCH   6   7
ENDBRANCH   5   6
ENDBRANCH   4   5
ENDBRANCH   3   4
ENDBRANCH   2   3
TORSDOF 14
ENDMDL
MODEL       49
REMARK 921   NORMALIZED FREE ENERGY PREDICTED BY IDOCK:   -3.69 KCAL/MOL
REMARK 922        TOTAL FREE ENERGY PREDICTED BY IDOCK:   -8.44 KCAL/MOL
REMARK 923 INTER-LIGAND FREE ENERGY PREDICTED BY IDOCK:   -6.41 KCAL/MOL
REMARK 924 INTRA-LIGAND FREE ENERGY PREDICTED BY IDOCK:   -2.03 KCAL/MOL
REMARK 927      BINDING AFFINITY PREDICTED BY RF-SCORE:    0.00 PKD
ROOT
HETATM    1  C   UNL     1      -7.976  10.390  69.303  1.00  0.00    -0.157 C  
HETATM    2  C   UNL     1      -8.709   9.111  69.674  1.00  0.00    -0.145 C  
ENDROOT
BRANCH   2   3
HETATM    3  C   UNL     1      -9.744   9.368  70.763  1.00  0.00    -0.332 C  
BRANCH   3   4
HETATM    4  C   UNL     1     -11.135   9.579  70.167  1.00  0.00    -0.294 C  
BRANCH   4   5
HETATM    5  C   UNL     1     -11.453  11.065  70.090  1.00  0.00    -0.383 C  
BRANCH   5   6
HETATM    6  C   UNL     1     -11.640  11.542  68.649  1.00  0.00    -0.375 C  
BRANCH   6   7
HETATM    7  C   UNL     1     -10.886  12.855  68.465  1.00  0.00    -0.283 C  
BRANCH   7   8
HETATM    8  C   UNL     1     -11.644  13.843  67.583  1.00  0.00    -0.348 C  
BRANCH   8   9
HETATM    9  N   UNL     1     -10.709  14.642  66.630  1.00  0.00    -0.299 N  
HETATM   10  C   UNL     1     -10.608  16.097  67.089  1.00  0.00    -0.294 C  
HETATM   11  C   UNL     1      -9.317  14.009  66.605  1.00  0.00    -0.277 C  
BRANCH   9  12
HETATM   12  C   UNL     1     -11.357  14.567  65.219  1.00  0.00    -0.353 C  
BRANCH  12  13
HETATM   13  C   UNL     1     -12.670  13.790  65.212  1.00  0.00    -0.481 C  
BRANCH  13  14
HETATM   14  C   UNL     1     -12.576  12.492  64.412  1.00  0.00    -0.497 C  
BRANCH  14  15
HETATM   15  C   UNL     1     -11.265  12.493  63.627  1.00  0.00    -0.545 C  
BRANCH  15  16
HETATM   16  C   UNL     1     -10.427  11.253  63.905  1.00  0.00    -0.452 C  
BRANCH  16  17
HETATM   17  C   UNL     1     -10.619  10.800  65.351  1.00  0.00    -0.224 C  
BRANCH  17  18
HETATM   18  C   UNL     1      -9.688   9.644  65.698  1.00  0.00    -0.363 C  
HETATM   19  C   UNL     1     -10.375   8.641  66.611  1.00  0.00    -0.303 C  
ENDBRANCH  17  18
ENDBRANCH  16  17
ENDBRANCH  15  16
ENDBRANCH  14  15
ENDBRANCH  13  14
ENDBRANCH  12  13
ENDBRANCH   9  12
ENDBRANCH   8   9
ENDBRANCH   7   8
ENDBRANCH   6   7
ENDBRANCH   5   6
ENDBRANCH   4   5
ENDBRANCH   3   4
ENDBRANCH   2   3
TORSDOF 14
ENDMDL
MODEL       50
REMARK 921   NORMALIZED FREE ENERGY PREDICTED BY IDOCK:   -3.68 KCAL/MOL
REMARK 922        TOTAL FREE ENERGY PREDICTED BY IDOCK:   -8.43 KCAL/MOL
REMARK 923 INTER-LIGAND FREE ENERGY PREDICTED BY IDOCK:   -7.23 KCAL/MOL
REMARK 924 INTRA-LIGAND FREE ENERGY PREDICTED BY IDOCK:   -1.20 KCAL/MOL
REMARK 927      BINDING AFFINITY PREDICTED BY RF-SCORE:    0.00 PKD
ROOT
HETATM    1  C   UNL     1     -11.733  12.089  63.368  1.00  0.00    -0.519 C  
HETATM    2  C   UNL     1     -12.570  12.512  64.565  1.00  0.00    -0.503 C  
ENDROOT
BRANCH   2   3
HETATM    3  C   UNL     1     -11.767  12.418  65.857  1.00  0.00    -0.476 C  
BRANCH   3   4
HETATM    4  C   UNL     1     -11.618  13.788  66.517  1.00  0.00    -0.386 C  
BRANCH   4   5
HETATM    5  C   UNL     1     -10.174  14.260  66.424  1.00  0.00    -0.295 C  
BRANCH   5   6
HETATM    6  C   UNL     1      -9.985  15.334  65.353  1.00  0.00    -0.364 C  
BRANCH   6   7
HETATM    7  C   UNL     1      -9.315  16.549  65.987  1.00  0.00    -0.302 C  
BRANCH   7   8
HETATM    8  C   UNL     1     -10.322  17.506  66.618  1.00  0.00    -0.319 C  
BRANCH   8   9
HETATM    9  N   UNL     1      -9.645  18.649  67.426  1.00  0.00    -0.292 N  
HETATM   10  C   UNL     1      -8.135  18.640  67.190  1.00  0.00    -0.247 C  
HETATM   11  C   UNL     1     -10.227  20.002  67.012  1.00  0.00    -0.451 C  
BRANCH   9  12
HETATM   12  C   UNL     1      -9.957  18.368  68.923  1.00  0.00    -0.345 C  
BRANCH  12  13
HETATM   13  C   UNL     1      -9.786  16.899  69.298  1.00  0.00    -0.110 C  
BRANCH  13  14
HETATM   14  C   UNL     1     -10.957  16.366  70.119  1.00  0.00    -0.291 C  
BRANCH  14  15
HETATM   15  C   UNL     1     -11.160  14.889  69.784  1.00  0.00    -0.300 C  
BRANCH  15  16
HETATM   16  C   UNL     1     -12.572  14.415  70.101  1.00  0.00    -0.340 C  
BRANCH  16  17
HETATM   17  C   UNL     1     -12.594  13.678  71.438  1.00  0.00    -0.415 C  
BRANCH  17  18
HETATM   18  C   UNL     1     -13.758  14.140  72.307  1.00  0.00    -0.623 C  
HETATM   19  C   UNL     1     -13.572  15.582  72.750  1.00  0.00    -0.653 C  
ENDBRANCH  17  18
ENDBRANCH  16  17
ENDBRANCH  15  16
ENDBRANCH  14  15
ENDBRANCH  13  14
ENDBRANCH  12  13
ENDBRANCH   9  12
ENDBRANCH   8   9
ENDBRANCH   7   8
ENDBRANCH   6   7
ENDBRANCH   5   6
ENDBRANCH   4   5
ENDBRANCH   3   4
ENDBRANCH   2   3
TORSDOF 14
ENDMDL
MODEL       51
REMARK 921   NORMALIZED FREE ENERGY PREDICTED BY IDOCK:   -3.68 KCAL/MOL
REMARK 922        TOTAL FREE ENERGY PREDICTED BY IDOCK:   -8.42 KCAL/MOL
REMARK 923 INTER-LIGAND FREE ENERGY PREDICTED BY IDOCK:   -6.34 KCAL/MOL
REMARK 924 INTRA-LIGAND FREE ENERGY PREDICTED BY IDOCK:   -2.08 KCAL/MOL
REMARK 927      BINDING AFFINITY PREDICTED BY RF-SCORE:    0.00 PKD
ROOT
HETATM    1  C   UNL     1      -8.461   8.968  70.523  1.00  0.00    -0.226 C  
HETATM    2  C   UNL     1      -9.163   9.437  69.258  1.00  0.00    -0.159 C  
ENDROOT
BRANCH   2   3
HETATM    3  C   UNL     1     -10.137   8.381  68.748  1.00  0.00    -0.209 C  
BRANCH   3   4
HETATM    4  C   UNL     1     -10.608   8.702  67.330  1.00  0.00    -0.308 C  
BRANCH   4   5
HETATM    5  C   UNL     1      -9.438   9.181  66.484  1.00  0.00    -0.266 C  
BRANCH   5   6
HETATM    6  C   UNL     1      -9.896   9.864  65.196  1.00  0.00    -0.348 C  
BRANCH   6   7
HETATM    7  C   UNL     1      -9.610  11.358  65.303  1.00  0.00    -0.256 C  
BRANCH   7   8
HETATM    8  C   UNL     1     -10.813  12.211  64.911  1.00  0.00    -0.308 C  
BRANCH   8   9
HETATM    9  N   UNL     1     -11.019  13.433  65.851  1.00  0.00    -0.274 N  
HETATM   10  C   UNL     1     -10.087  14.575  65.444  1.00  0.00    -0.364 C  
HETATM   11  C   UNL     1     -12.473  13.905  65.791  1.00  0.00    -0.495 C  
BRANCH   9  12
HETATM   12  C   UNL     1     -10.674  12.943  67.286  1.00  0.00    -0.245 C  
BRANCH  12  13
HETATM   13  C   UNL     1     -11.863  12.301  67.993  1.00  0.00    -0.368 C  
BRANCH  13  14
HETATM   14  C   UNL     1     -11.601  12.067  69.479  1.00  0.00    -0.389 C  
BRANCH  14  15
HETATM   15  C   UNL     1     -12.529  10.959  69.974  1.00  0.00    -0.332 C  
BRANCH  15  16
HETATM   16  C   UNL     1     -12.069  10.372  71.302  1.00  0.00    -0.461 C  
BRANCH  16  17
HETATM   17  C   UNL     1     -13.134   9.429  71.858  1.00  0.00    -0.505 C  
BRANCH  17  18
HETATM   18  C   UNL     1     -12.646   7.984  71.863  1.00  0.00    -0.359 C  
HETATM   19  C   UNL     1     -11.347   7.847  72.641  1.00  0.00    -0.468 C  
ENDBRANCH  17  18
ENDBRANCH  16  17
ENDBRANCH  15  16
ENDBRANCH  14  15
ENDBRANCH  13  14
ENDBRANCH  12  13
ENDBRANCH   9  12
ENDBRANCH   8   9
ENDBRANCH   7   8
ENDBRANCH   6   7
ENDBRANCH   5   6
ENDBRANCH   4   5
ENDBRANCH   3   4
ENDBRANCH   2   3
TORSDOF 14
ENDMDL
MODEL       52
REMARK 921   NORMALIZED FREE ENERGY PREDICTED BY IDOCK:   -3.67 KCAL/MOL
REMARK 922        TOTAL FREE ENERGY PREDICTED BY IDOCK:   -8.42 KCAL/MOL
REMARK 923 INTER-LIGAND FREE ENERGY PREDICTED BY IDOCK:   -7.23 KCAL/MOL
REMARK 924 INTRA-LIGAND FREE ENERGY PREDICTED BY IDOCK:   -1.19 KCAL/MOL
REMARK 927      BINDING AFFINITY PREDICTED BY RF-SCORE:    0.00 PKD
ROOT
HETATM    1  C   UNL     1      -9.849   5.816  66.489  1.00  0.00    -0.193 C  
HETATM    2  C   UNL     1     -10.954   6.660  67.103  1.00  0.00    -0.478 C  
ENDROOT
BRANCH   2   3
HETATM    3  C   UNL     1     -10.509   8.108  67.273  1.00  0.00    -0.379 C  
BRANCH   3   4
HETATM    4  C   UNL     1      -9.342   8.441  66.345  1.00  0.00    -0.274 C  
BRANCH   4   5
HETATM    5  C   UNL     1      -9.693   9.636  65.470  1.00  0.00    -0.372 C  
BRANCH   5   6
HETATM    6  C   UNL     1     -10.584  10.643  66.197  1.00  0.00    -0.211 C  
BRANCH   6   7
HETATM    7  C   UNL     1     -10.800  11.851  65.291  1.00  0.00    -0.347 C  
BRANCH   7   8
HETATM    8  C   UNL     1     -10.214  13.132  65.877  1.00  0.00    -0.291 C  
BRANCH   8   9
HETATM    9  N   UNL     1     -11.248  14.292  65.950  1.00  0.00    -0.313 N  
HETATM   10  C   UNL     1     -10.762  15.483  65.124  1.00  0.00    -0.440 C  
HETATM   11  C   UNL     1     -12.606  13.820  65.429  1.00  0.00    -0.497 C  
BRANCH   9  12
HETATM   12  C   UNL     1     -11.356  14.686  67.450  1.00  0.00    -0.356 C  
BRANCH  12  13
HETATM   13  C   UNL     1     -11.956  13.578  68.310  1.00  0.00    -0.377 C  
BRANCH  13  14
HETATM   14  C   UNL     1     -12.103  13.990  69.773  1.00  0.00    -0.405 C  
BRANCH  14  15
HETATM   15  C   UNL     1     -12.183  12.730  70.633  1.00  0.00    -0.374 C  
BRANCH  15  16
HETATM   16  C   UNL     1     -11.645  11.504  69.910  1.00  0.00    -0.387 C  
BRANCH  16  17
HETATM   17  C   UNL     1     -12.136  10.229  70.594  1.00  0.00    -0.433 C  
BRANCH  17  18
HETATM   18  C   UNL     1     -13.100  10.548  71.732  1.00  0.00    -0.570 C  
HETATM   19  C   UNL     1     -13.721   9.280  72.294  1.00  0.00    -0.527 C  
ENDBRANCH  17  18
ENDBRANCH  16  17
ENDBRANCH  15  16
ENDBRANCH  14  15
ENDBRANCH  13  14
ENDBRANCH  12  13
ENDBRANCH   9  12
ENDBRANCH   8   9
ENDBRANCH   7   8
ENDBRANCH   6   7
ENDBRANCH   5   6
ENDBRANCH   4   5
ENDBRANCH   3   4
ENDBRANCH   2   3
TORSDOF 14
ENDMDL
MODEL       53
REMARK 921   NORMALIZED FREE ENERGY PREDICTED BY IDOCK:   -3.67 KCAL/MOL
REMARK 922        TOTAL FREE ENERGY PREDICTED BY IDOCK:   -8.41 KCAL/MOL
REMARK 923 INTER-LIGAND FREE ENERGY PREDICTED BY IDOCK:   -6.86 KCAL/MOL
REMARK 924 INTRA-LIGAND FREE ENERGY PREDICTED BY IDOCK:   -1.54 KCAL/MOL
REMARK 927      BINDING AFFINITY PREDICTED BY RF-SCORE:    0.00 PKD
ROOT
HETATM    1  C   UNL     1     -11.850  11.989  63.924  1.00  0.00    -0.543 C  
HETATM    2  C   UNL     1     -12.670  12.862  64.861  1.00  0.00    -0.474 C  
ENDROOT
BRANCH   2   3
HETATM    3  C   UNL     1     -12.023  12.948  66.238  1.00  0.00    -0.472 C  
BRANCH   3   4
HETATM    4  C   UNL     1     -10.503  12.822  66.145  1.00  0.00    -0.284 C  
BRANCH   4   5
HETATM    5  C   UNL     1      -9.969  12.036  67.334  1.00  0.00    -0.200 C  
BRANCH   5   6
HETATM    6  C   UNL     1      -9.165  12.914  68.293  1.00  0.00    -0.187 C  
BRANCH   6   7
HETATM    7  C   UNL     1      -8.454  13.998  67.488  1.00  0.00    -0.201 C  
BRANCH   7   8
HETATM    8  C   UNL     1      -8.200  15.260  68.308  1.00  0.00    -0.142 C  
BRANCH   8   9
HETATM    9  N   UNL     1      -8.634  16.558  67.569  1.00  0.00    -0.176 N  
HETATM   10  C   UNL     1      -7.533  17.613  67.665  1.00  0.00    -0.198 C  
HETATM   11  C   UNL     1      -8.933  16.252  66.100  1.00  0.00    -0.339 C  
BRANCH   9  12
HETATM   12  C   UNL     1      -9.922  17.056  68.285  1.00  0.00    -0.285 C  
BRANCH  12  13
HETATM   13  C   UNL     1     -11.157  16.241  67.914  1.00  0.00    -0.270 C  
BRANCH  13  14
HETATM   14  C   UNL     1     -11.764  15.522  69.117  1.00  0.00    -0.380 C  
BRANCH  14  15
HETATM   15  C   UNL     1     -11.217  16.156  70.396  1.00  0.00    -0.394 C  
BRANCH  15  16
HETATM   16  C   UNL     1     -11.372  15.241  71.603  1.00  0.00    -0.440 C  
BRANCH  16  17
HETATM   17  C   UNL     1     -11.856  16.040  72.812  1.00  0.00    -0.584 C  
BRANCH  17  18
HETATM   18  C   UNL     1     -13.210  15.539  73.301  1.00  0.00    -0.635 C  
HETATM   19  C   UNL     1     -14.182  15.368  72.144  1.00  0.00    -0.660 C  
ENDBRANCH  17  18
ENDBRANCH  16  17
ENDBRANCH  15  16
ENDBRANCH  14  15
ENDBRANCH  13  14
ENDBRANCH  12  13
ENDBRANCH   9  12
ENDBRANCH   8   9
ENDBRANCH   7   8
ENDBRANCH   6   7
ENDBRANCH   5   6
ENDBRANCH   4   5
ENDBRANCH   3   4
ENDBRANCH   2   3
TORSDOF 14
ENDMDL
MODEL       54
REMARK 921   NORMALIZED FREE ENERGY PREDICTED BY IDOCK:   -3.67 KCAL/MOL
REMARK 922        TOTAL FREE ENERGY PREDICTED BY IDOCK:   -8.40 KCAL/MOL
REMARK 923 INTER-LIGAND FREE ENERGY PREDICTED BY IDOCK:   -7.35 KCAL/MOL
REMARK 924 INTRA-LIGAND FREE ENERGY PREDICTED BY IDOCK:   -1.05 KCAL/MOL
REMARK 927      BINDING AFFINITY PREDICTED BY RF-SCORE:    0.00 PKD
ROOT
HETATM    1  C   UNL     1      -9.903  20.460  67.381  1.00  0.00    -0.587 C  
HETATM    2  C   UNL     1     -10.562  19.093  67.469  1.00  0.00    -0.567 C  
ENDROOT
BRANCH   2   3
HETATM    3  C   UNL     1     -10.017  18.150  66.403  1.00  0.00    -0.376 C  
BRANCH   3   4
HETATM    4  C   UNL     1      -9.493  16.856  67.024  1.00  0.00    -0.251 C  
BRANCH   4   5
HETATM    5  C   UNL     1     -10.651  15.928  67.359  1.00  0.00    -0.315 C  
BRANCH   5   6
HETATM    6  C   UNL     1     -10.582  15.412  68.796  1.00  0.00    -0.235 C  
BRANCH   6   7
HETATM    7  C   UNL     1     -11.995  15.369  69.371  1.00  0.00    -0.351 C  
BRANCH   7   8
HETATM    8  C   UNL     1     -12.045  15.825  70.826  1.00  0.00    -0.408 C  
BRANCH   8   9
HETATM    9  N   UNL     1     -12.860  14.859  71.734  1.00  0.00    -0.312 N  
HETATM   10  C   UNL     1     -12.337  14.917  73.169  1.00  0.00    -0.365 C  
HETATM   11  C   UNL     1     -14.342  15.237  71.707  1.00  0.00    -0.574 C  
BRANCH   9  12
HETATM   12  C   UNL     1     -12.660  13.435  71.145  1.00  0.00    -0.345 C  
BRANCH  12  13
HETATM   13  C   UNL     1     -13.231  12.339  72.040  1.00  0.00    -0.508 C  
BRANCH  13  14
HETATM   14  C   UNL     1     -12.933  10.938  71.510  1.00  0.00    -0.556 C  
BRANCH  14  15
HETATM   15  C   UNL     1     -12.640  11.031  70.013  1.00  0.00    -0.240 C  
BRANCH  15  16
HETATM   16  C   UNL     1     -11.185  10.718  69.691  1.00  0.00    -0.355 C  
BRANCH  16  17
HETATM   17  C   UNL     1     -11.028  10.417  68.201  1.00  0.00    -0.334 C  
BRANCH  17  18
HETATM   18  C   UNL     1     -10.446  11.611  67.453  1.00  0.00    -0.239 C  
HETATM   19  C   UNL     1     -11.526  12.355  66.684  1.00  0.00    -0.429 C  
ENDBRANCH  17  18
ENDBRANCH  16  17
ENDBRANCH  15  16
ENDBRANCH  14  15
ENDBRANCH  13  14
ENDBRANCH  12  13
ENDBRANCH   9  12
ENDBRANCH   8   9
ENDBRANCH   7   8
ENDBRANCH   6   7
ENDBRANCH   5   6
ENDBRANCH   4   5
ENDBRANCH   3   4
ENDBRANCH   2   3
TORSDOF 14
ENDMDL
MODEL       55
REMARK 921   NORMALIZED FREE ENERGY PREDICTED BY IDOCK:   -3.66 KCAL/MOL
REMARK 922        TOTAL FREE ENERGY PREDICTED BY IDOCK:   -8.39 KCAL/MOL
REMARK 923 INTER-LIGAND FREE ENERGY PREDICTED BY IDOCK:   -5.92 KCAL/MOL
REMARK 924 INTRA-LIGAND FREE ENERGY PREDICTED BY IDOCK:   -2.47 KCAL/MOL
REMARK 927      BINDING AFFINITY PREDICTED BY RF-SCORE:    0.00 PKD
ROOT
HETATM    1  C   UNL     1     -12.052  12.192  63.590  1.00  0.00    -0.648 C  
HETATM    2  C   UNL     1     -12.471  12.597  64.994  1.00  0.00    -0.556 C  
ENDROOT
BRANCH   2   3
HETATM    3  C   UNL     1     -12.499  14.114  65.143  1.00  0.00    -0.453 C  
BRANCH   3   4
HETATM    4  C   UNL     1     -11.651  14.569  66.330  1.00  0.00    -0.370 C  
BRANCH   4   5
HETATM    5  C   UNL     1     -12.099  13.859  67.599  1.00  0.00    -0.342 C  
BRANCH   5   6
HETATM    6  C   UNL     1     -11.664  14.602  68.862  1.00  0.00    -0.343 C  
BRANCH   6   7
HETATM    7  C   UNL     1     -11.520  16.085  68.535  1.00  0.00    -0.357 C  
BRANCH   7   8
HETATM    8  C   UNL     1     -10.123  16.616  68.843  1.00  0.00    -0.274 C  
BRANCH   8   9
HETATM    9  N   UNL     1      -9.596  17.595  67.755  1.00  0.00    -0.262 N  
HETATM   10  C   UNL     1     -10.764  18.183  66.963  1.00  0.00    -0.253 C  
HETATM   11  C   UNL     1      -8.793  18.722  68.407  1.00  0.00    -0.342 C  
BRANCH   9  12
HETATM   12  C   UNL     1      -8.680  16.756  66.821  1.00  0.00    -0.230 C  
BRANCH  12  13
HETATM   13  C   UNL     1      -7.834  15.739  67.580  1.00  0.00    -0.182 C  
BRANCH  13  14
HETATM   14  C   UNL     1      -8.073  14.308  67.102  1.00  0.00    -0.154 C  
BRANCH  14  15
HETATM   15  C   UNL     1      -8.088  13.380  68.316  1.00  0.00    -0.152 C  
BRANCH  15  16
HETATM   16  C   UNL     1      -8.961  12.154  68.092  1.00  0.00    -0.195 C  
BRANCH  16  17
HETATM   17  C   UNL     1      -9.036  11.823  66.603  1.00  0.00    -0.195 C  
BRANCH  17  18
HETATM   18  C   UNL     1      -9.891  10.587  66.351  1.00  0.00    -0.260 C  
HETATM   19  C   UNL     1     -10.826  10.321  67.519  1.00  0.00    -0.355 C  
ENDBRANCH  17  18
ENDBRANCH  16  17
ENDBRANCH  15  16
ENDBRANCH  14  15
ENDBRANCH  13  14
ENDBRANCH  12  13
ENDBRANCH   9  12
ENDBRANCH   8   9
ENDBRANCH   7   8
ENDBRANCH   6   7
ENDBRANCH   5   6
ENDBRANCH   4   5
ENDBRANCH   3   4
ENDBRANCH   2   3
TORSDOF 14
ENDMDL
MODEL       56
REMARK 921   NORMALIZED FREE ENERGY PREDICTED BY IDOCK:   -3.66 KCAL/MOL
REMARK 922        TOTAL FREE ENERGY PREDICTED BY IDOCK:   -8.38 KCAL/MOL
REMARK 923 INTER-LIGAND FREE ENERGY PREDICTED BY IDOCK:   -7.19 KCAL/MOL
REMARK 924 INTRA-LIGAND FREE ENERGY PREDICTED BY IDOCK:   -1.19 KCAL/MOL
REMARK 927      BINDING AFFINITY PREDICTED BY RF-SCORE:    0.00 PKD
ROOT
HETATM    1  C   UNL     1      -8.018   7.227  66.741  1.00  0.00    -0.118 C  
HETATM    2  C   UNL     1      -9.185   7.460  67.687  1.00  0.00    -0.132 C  
ENDROOT
BRANCH   2   3
HETATM    3  C   UNL     1     -10.335   8.164  66.977  1.00  0.00    -0.403 C  
BRANCH   3   4
HETATM    4  C   UNL     1     -10.624   9.526  67.608  1.00  0.00    -0.329 C  
BRANCH   4   5
HETATM    5  C   UNL     1      -9.969  10.631  66.793  1.00  0.00    -0.254 C  
BRANCH   5   6
HETATM    6  C   UNL     1      -9.994  10.337  65.294  1.00  0.00    -0.387 C  
BRANCH   6   7
HETATM    7  C   UNL     1     -10.556  11.553  64.564  1.00  0.00    -0.387 C  
BRANCH   7   8
HETATM    8  C   UNL     1     -10.283  12.857  65.307  1.00  0.00    -0.278 C  
BRANCH   8   9
HETATM    9  N   UNL     1     -11.438  13.889  65.163  1.00  0.00    -0.311 N  
HETATM   10  C   UNL     1     -10.876  15.310  65.145  1.00  0.00    -0.426 C  
HETATM   11  C   UNL     1     -12.221  13.625  63.875  1.00  0.00    -0.374 C  
BRANCH   9  12
HETATM   12  C   UNL     1     -12.358  13.689  66.400  1.00  0.00    -0.389 C  
BRANCH  12  13
HETATM   13  C   UNL     1     -11.749  14.242  67.685  1.00  0.00    -0.421 C  
BRANCH  13  14
HETATM   14  C   UNL     1     -11.674  13.193  68.792  1.00  0.00    -0.363 C  
BRANCH  14  15
HETATM   15  C   UNL     1     -12.225  13.800  70.082  1.00  0.00    -0.425 C  
BRANCH  15  16
HETATM   16  C   UNL     1     -12.657  12.736  71.081  1.00  0.00    -0.365 C  
BRANCH  16  17
HETATM   17  C   UNL     1     -13.437  13.374  72.229  1.00  0.00    -0.683 C  
BRANCH  17  18
HETATM   18  C   UNL     1     -13.483  14.892  72.090  1.00  0.00    -0.494 C  
HETATM   19  C   UNL     1     -13.074  15.573  73.386  1.00  0.00    -0.651 C  
ENDBRANCH  17  18
ENDBRANCH  16  17
ENDBRANCH  15  16
ENDBRANCH  14  15
ENDBRANCH  13  14
ENDBRANCH  12  13
ENDBRANCH   9  12
ENDBRANCH   8   9
ENDBRANCH   7   8
ENDBRANCH   6   7
ENDBRANCH   5   6
ENDBRANCH   4   5
ENDBRANCH   3   4
ENDBRANCH   2   3
TORSDOF 14
ENDMDL
MODEL       57
REMARK 921   NORMALIZED FREE ENERGY PREDICTED BY IDOCK:   -3.65 KCAL/MOL
REMARK 922        TOTAL FREE ENERGY PREDICTED BY IDOCK:   -8.38 KCAL/MOL
REMARK 923 INTER-LIGAND FREE ENERGY PREDICTED BY IDOCK:   -7.09 KCAL/MOL
REMARK 924 INTRA-LIGAND FREE ENERGY PREDICTED BY IDOCK:   -1.28 KCAL/MOL
REMARK 927      BINDING AFFINITY PREDICTED BY RF-SCORE:    0.00 PKD
ROOT
HETATM    1  C   UNL     1     -12.125  16.169  72.737  1.00  0.00    -0.653 C  
HETATM    2  C   UNL     1     -13.540  15.648  72.548  1.00  0.00    -0.642 C  
ENDROOT
BRANCH   2   3
HETATM    3  C   UNL     1     -13.743  15.105  71.139  1.00  0.00    -0.510 C  
BRANCH   3   4
HETATM    4  C   UNL     1     -12.414  14.996  70.391  1.00  0.00    -0.407 C  
BRANCH   4   5
HETATM    5  C   UNL     1     -12.052  13.534  70.176  1.00  0.00    -0.425 C  
BRANCH   5   6
HETATM    6  C   UNL     1     -11.403  13.294  68.813  1.00  0.00    -0.331 C  
BRANCH   6   7
HETATM    7  C   UNL     1     -11.933  14.330  67.827  1.00  0.00    -0.384 C  
BRANCH   7   8
HETATM    8  C   UNL     1     -10.899  14.711  66.771  1.00  0.00    -0.312 C  
BRANCH   8   9
HETATM    9  N   UNL     1     -11.435  14.562  65.318  1.00  0.00    -0.344 N  
HETATM   10  C   UNL     1     -12.846  13.975  65.335  1.00  0.00    -0.410 C  
HETATM   11  C   UNL     1     -11.447  15.923  64.620  1.00  0.00    -0.263 C  
BRANCH   9  12
HETATM   12  C   UNL     1     -10.459  13.595  64.591  1.00  0.00    -0.423 C  
BRANCH  12  13
HETATM   13  C   UNL     1     -11.181  12.509  63.801  1.00  0.00    -0.524 C  
BRANCH  13  14
HETATM   14  C   UNL     1     -10.741  11.104  64.203  1.00  0.00    -0.415 C  
BRANCH  14  15
HETATM   15  C   UNL     1     -10.493  11.079  65.711  1.00  0.00    -0.290 C  
BRANCH  15  16
HETATM   16  C   UNL     1      -9.944   9.740  66.183  1.00  0.00    -0.338 C  
BRANCH  16  17
HETATM   17  C   UNL     1      -8.701   9.954  67.046  1.00  0.00    -0.137 C  
BRANCH  17  18
HETATM   18  C   UNL     1      -8.538  11.420  67.428  1.00  0.00    -0.142 C  
HETATM   19  C   UNL     1      -7.084  11.854  67.328  1.00  0.00    -0.143 C  
ENDBRANCH  17  18
ENDBRANCH  16  17
ENDBRANCH  15  16
ENDBRANCH  14  15
ENDBRANCH  13  14
ENDBRANCH  12  13
ENDBRANCH   9  12
ENDBRANCH   8   9
ENDBRANCH   7   8
ENDBRANCH   6   7
ENDBRANCH   5   6
ENDBRANCH   4   5
ENDBRANCH   3   4
ENDBRANCH   2   3
TORSDOF 14
ENDMDL
MODEL       58
REMARK 921   NORMALIZED FREE ENERGY PREDICTED BY IDOCK:   -3.64 KCAL/MOL
REMARK 922        TOTAL FREE ENERGY PREDICTED BY IDOCK:   -8.36 KCAL/MOL
REMARK 923 INTER-LIGAND FREE ENERGY PREDICTED BY IDOCK:   -6.68 KCAL/MOL
REMARK 924 INTRA-LIGAND FREE ENERGY PREDICTED BY IDOCK:   -1.68 KCAL/MOL
REMARK 927      BINDING AFFINITY PREDICTED BY RF-SCORE:    0.00 PKD
ROOT
HETATM    1  C   UNL     1     -11.857   8.486  72.322  1.00  0.00    -0.453 C  
HETATM    2  C   UNL     1     -13.100   9.269  71.929  1.00  0.00    -0.490 C  
ENDROOT
BRANCH   2   3
HETATM    3  C   UNL     1     -12.742  10.470  71.062  1.00  0.00    -0.504 C  
BRANCH   3   4
HETATM    4  C   UNL     1     -13.159  11.780  71.729  1.00  0.00    -0.480 C  
BRANCH   4   5
HETATM    5  C   UNL     1     -12.559  12.963  70.983  1.00  0.00    -0.376 C  
BRANCH   5   6
HETATM    6  C   UNL     1     -12.711  14.272  71.758  1.00  0.00    -0.428 C  
BRANCH   6   7
HETATM    7  C   UNL     1     -12.651  15.435  70.773  1.00  0.00    -0.497 C  
BRANCH   7   8
HETATM    8  C   UNL     1     -11.298  16.141  70.786  1.00  0.00    -0.368 C  
BRANCH   8   9
HETATM    9  N   UNL     1     -10.587  16.111  69.403  1.00  0.00    -0.276 N  
HETATM   10  C   UNL     1     -10.271  17.534  68.942  1.00  0.00    -0.353 C  
HETATM   11  C   UNL     1      -9.295  15.297  69.493  1.00  0.00    -0.195 C  
BRANCH   9  12
HETATM   12  C   UNL     1     -11.579  15.433  68.417  1.00  0.00    -0.354 C  
BRANCH  12  13
HETATM   13  C   UNL     1     -10.921  14.352  67.565  1.00  0.00    -0.299 C  
BRANCH  13  14
HETATM   14  C   UNL     1     -11.917  13.294  67.095  1.00  0.00    -0.400 C  
BRANCH  14  15
HETATM   15  C   UNL     1     -11.235  11.926  67.134  1.00  0.00    -0.377 C  
BRANCH  15  16
HETATM   16  C   UNL     1     -10.409  11.731  68.398  1.00  0.00    -0.223 C  
BRANCH  16  17
HETATM   17  C   UNL     1      -9.472  10.535  68.235  1.00  0.00    -0.158 C  
BRANCH  17  18
HETATM   18  C   UNL     1      -9.877   9.386  69.152  1.00  0.00    -0.174 C  
HETATM   19  C   UNL     1      -8.945   9.285  70.349  1.00  0.00    -0.278 C  
ENDBRANCH  17  18
ENDBRANCH  16  17
ENDBRANCH  15  16
ENDBRANCH  14  15
ENDBRANCH  13  14
ENDBRANCH  12  13
ENDBRANCH   9  12
ENDBRANCH   8   9
ENDBRANCH   7   8
ENDBRANCH   6   7
ENDBRANCH   5   6
ENDBRANCH   4   5
ENDBRANCH   3   4
ENDBRANCH   2   3
TORSDOF 14
ENDMDL
MODEL       59
REMARK 921   NORMALIZED FREE ENERGY PREDICTED BY IDOCK:   -3.64 KCAL/MOL
REMARK 922        TOTAL FREE ENERGY PREDICTED BY IDOCK:   -8.36 KCAL/MOL
REMARK 923 INTER-LIGAND FREE ENERGY PREDICTED BY IDOCK:   -7.29 KCAL/MOL
REMARK 924 INTRA-LIGAND FREE ENERGY PREDICTED BY IDOCK:   -1.06 KCAL/MOL
REMARK 927      BINDING AFFINITY PREDICTED BY RF-SCORE:    0.00 PKD
ROOT
HETATM    1  C   UNL     1     -11.013   5.979  69.716  1.00  0.00    -0.471 C  
HETATM    2  C   UNL     1     -10.965   7.464  70.036  1.00  0.00    -0.264 C  
ENDROOT
BRANCH   2   3
HETATM    3  C   UNL     1     -10.092   8.213  69.037  1.00  0.00    -0.211 C  
BRANCH   3   4
HETATM    4  C   UNL     1     -10.343   7.729  67.609  1.00  0.00    -0.305 C  
BRANCH   4   5
HETATM    5  C   UNL     1     -10.259   8.896  66.637  1.00  0.00    -0.338 C  
BRANCH   5   6
HETATM    6  C   UNL     1     -10.284  10.247  67.351  1.00  0.00    -0.265 C  
BRANCH   6   7
HETATM    7  C   UNL     1     -10.628  11.333  66.337  1.00  0.00    -0.316 C  
BRANCH   7   8
HETATM    8  C   UNL     1     -11.556  12.398  66.915  1.00  0.00    -0.370 C  
BRANCH   8   9
HETATM    9  N   UNL     1     -11.487  13.745  66.140  1.00  0.00    -0.328 N  
HETATM   10  C   UNL     1     -10.293  13.744  65.186  1.00  0.00    -0.372 C  
HETATM   11  C   UNL     1     -12.780  13.966  65.353  1.00  0.00    -0.490 C  
BRANCH   9  12
HETATM   12  C   UNL     1     -11.317  14.857  67.214  1.00  0.00    -0.349 C  
BRANCH  12  13
HETATM   13  C   UNL     1     -11.758  14.409  68.604  1.00  0.00    -0.367 C  
BRANCH  13  14
HETATM   14  C   UNL     1     -10.752  14.795  69.687  1.00  0.00    -0.207 C  
BRANCH  14  15
HETATM   15  C   UNL     1     -11.230  16.077  70.367  1.00  0.00    -0.401 C  
BRANCH  15  16
HETATM   16  C   UNL     1     -11.648  15.841  71.812  1.00  0.00    -0.541 C  
BRANCH  16  17
HETATM   17  C   UNL     1     -13.129  15.470  71.879  1.00  0.00    -0.539 C  
BRANCH  17  18
HETATM   18  C   UNL     1     -13.346  14.205  72.702  1.00  0.00    -0.638 C  
HETATM   19  C   UNL     1     -13.237  12.961  71.835  1.00  0.00    -0.521 C  
ENDBRANCH  17  18
ENDBRANCH  16  17
ENDBRANCH  15  16
ENDBRANCH  14  15
ENDBRANCH  13  14
ENDBRANCH  12  13
ENDBRANCH   9  12
ENDBRANCH   8   9
ENDBRANCH   7   8
ENDBRANCH   6   7
ENDBRANCH   5   6
ENDBRANCH   4   5
ENDBRANCH   3   4
ENDBRANCH   2   3
TORSDOF 14
ENDMDL
MODEL       60
REMARK 921   NORMALIZED FREE ENERGY PREDICTED BY IDOCK:   -3.63 KCAL/MOL
REMARK 922        TOTAL FREE ENERGY PREDICTED BY IDOCK:   -8.33 KCAL/MOL
REMARK 923 INTER-LIGAND FREE ENERGY PREDICTED BY IDOCK:   -6.70 KCAL/MOL
REMARK 924 INTRA-LIGAND FREE ENERGY PREDICTED BY IDOCK:   -1.64 KCAL/MOL
REMARK 927      BINDING AFFINITY PREDICTED BY RF-SCORE:    0.00 PKD
ROOT
HETATM    1  C   UNL     1     -11.272   7.762  71.046  1.00  0.00    -0.282 C  
HETATM    2  C   UNL     1     -11.121   9.262  71.239  1.00  0.00    -0.427 C  
ENDROOT
BRANCH   2   3
HETATM    3  C   UNL     1     -12.421   9.885  71.735  1.00  0.00    -0.487 C  
BRANCH   3   4
HETATM    4  C   UNL     1     -12.735  11.181  70.988  1.00  0.00    -0.476 C  
BRANCH   4   5
HETATM    5  C   UNL     1     -13.227  12.242  71.962  1.00  0.00    -0.508 C  
BRANCH   5   6
HETATM    6  C   UNL     1     -12.888  13.657  71.495  1.00  0.00    -0.445 C  
BRANCH   6   7
HETATM    7  C   UNL     1     -12.192  13.574  70.140  1.00  0.00    -0.400 C  
BRANCH   7   8
HETATM    8  C   UNL     1     -12.012  14.944  69.493  1.00  0.00    -0.310 C  
BRANCH   8   9
HETATM    9  N   UNL     1     -11.155  14.892  68.196  1.00  0.00    -0.272 N  
HETATM   10  C   UNL     1     -11.937  14.207  67.075  1.00  0.00    -0.439 C  
HETATM   11  C   UNL     1     -10.766  16.307  67.766  1.00  0.00    -0.325 C  
BRANCH   9  12
HETATM   12  C   UNL     1      -9.884  14.070  68.546  1.00  0.00    -0.225 C  
BRANCH  12  13
HETATM   13  C   UNL     1      -9.682  12.871  67.624  1.00  0.00    -0.212 C  
BRANCH  13  14
HETATM   14  C   UNL     1      -9.681  11.546  68.382  1.00  0.00    -0.202 C  
BRANCH  14  15
HETATM   15  C   UNL     1     -10.782  10.652  67.811  1.00  0.00    -0.302 C  
BRANCH  15  16
HETATM   16  C   UNL     1     -10.490  10.222  66.380  1.00  0.00    -0.233 C  
BRANCH  16  17
HETATM   17  C   UNL     1      -9.938   8.797  66.360  1.00  0.00    -0.346 C  
BRANCH  17  18
HETATM   18  C   UNL     1     -10.427   7.997  67.562  1.00  0.00    -0.331 C  
HETATM   19  C   UNL     1     -11.028   6.670  67.129  1.00  0.00    -0.478 C  
ENDBRANCH  17  18
ENDBRANCH  16  17
ENDBRANCH  15  16
ENDBRANCH  14  15
ENDBRANCH  13  14
ENDBRANCH  12  13
ENDBRANCH   9  12
ENDBRANCH   8   9
ENDBRANCH   7   8
ENDBRANCH   6   7
ENDBRANCH   5   6
ENDBRANCH   4   5
ENDBRANCH   3   4
ENDBRANCH   2   3
TORSDOF 14
ENDMDL
MODEL       61
REMARK 921   NORMALIZED FREE ENERGY PREDICTED BY IDOCK:   -3.62 KCAL/MOL
REMARK 922        TOTAL FREE ENERGY PREDICTED BY IDOCK:   -8.33 KCAL/MOL
REMARK 923 INTER-LIGAND FREE ENERGY PREDICTED BY IDOCK:   -6.62 KCAL/MOL
REMARK 924 INTRA-LIGAND FREE ENERGY PREDICTED BY IDOCK:   -1.71 KCAL/MOL
REMARK 927      BINDING AFFINITY PREDICTED BY RF-SCORE:    0.00 PKD
ROOT
HETATM    1  C   UNL     1     -14.403   8.109  71.809  1.00  0.00    -0.582 C  
HETATM    2  C   UNL     1     -13.655   9.275  72.436  1.00  0.00    -0.527 C  
ENDROOT
BRANCH   2   3
HETATM    3  C   UNL     1     -13.374  10.364  71.407  1.00  0.00    -0.373 C  
BRANCH   3   4
HETATM    4  C   UNL     1     -11.881  10.460  71.097  1.00  0.00    -0.432 C  
BRANCH   4   5
HETATM    5  C   UNL     1     -11.666  10.613  69.598  1.00  0.00    -0.368 C  
BRANCH   5   6
HETATM    6  C   UNL     1     -10.678   9.584  69.048  1.00  0.00    -0.224 C  
BRANCH   6   7
HETATM    7  C   UNL     1      -9.803  10.257  67.995  1.00  0.00    -0.171 C  
BRANCH   7   8
HETATM    8  C   UNL     1     -10.515  10.405  66.653  1.00  0.00    -0.215 C  
BRANCH   8   9
HETATM    9  N   UNL     1      -9.722  11.280  65.641  1.00  0.00    -0.220 N  
HETATM   10  C   UNL     1      -8.220  11.150  65.895  1.00  0.00    -0.048 C  
HETATM   11  C   UNL     1     -10.045  10.852  64.209  1.00  0.00    -0.351 C  
BRANCH   9  12
HETATM   12  C   UNL     1     -10.182  12.746  65.878  1.00  0.00    -0.287 C  
BRANCH  12  13
HETATM   13  C   UNL     1     -11.698  12.880  65.985  1.00  0.00    -0.456 C  
BRANCH  13  14
HETATM   14  C   UNL     1     -12.137  13.510  67.306  1.00  0.00    -0.367 C  
BRANCH  14  15
HETATM   15  C   UNL     1     -10.911  14.105  67.997  1.00  0.00    -0.269 C  
BRANCH  15  16
HETATM   16  C   UNL     1     -11.279  14.873  69.260  1.00  0.00    -0.300 C  
BRANCH  16  17
HETATM   17  C   UNL     1     -12.377  14.136  70.024  1.00  0.00    -0.403 C  
BRANCH  17  18
HETATM   18  C   UNL     1     -12.274  14.390  71.524  1.00  0.00    -0.406 C  
HETATM   19  C   UNL     1     -13.492  13.851  72.256  1.00  0.00    -0.623 C  
ENDBRANCH  17  18
ENDBRANCH  16  17
ENDBRANCH  15  16
ENDBRANCH  14  15
ENDBRANCH  13  14
ENDBRANCH  12  13
ENDBRANCH   9  12
ENDBRANCH   8   9
ENDBRANCH   7   8
ENDBRANCH   6   7
ENDBRANCH   5   6
ENDBRANCH   4   5
ENDBRANCH   3   4
ENDBRANCH   2   3
TORSDOF 14
ENDMDL
MODEL       62
REMARK 921   NORMALIZED FREE ENERGY PREDICTED BY IDOCK:   -3.60 KCAL/MOL
REMARK 922        TOTAL FREE ENERGY PREDICTED BY IDOCK:   -8.29 KCAL/MOL
REMARK 923 INTER-LIGAND FREE ENERGY PREDICTED BY IDOCK:   -6.65 KCAL/MOL
REMARK 924 INTRA-LIGAND FREE ENERGY PREDICTED BY IDOCK:   -1.64 KCAL/MOL
REMARK 927      BINDING AFFINITY PREDICTED BY RF-SCORE:    0.00 PKD
ROOT
HETATM    1  C   UNL     1     -10.005  11.123  68.469  1.00  0.00    -0.204 C  
HETATM    2  C   UNL     1     -11.168  10.805  69.396  1.00  0.00    -0.337 C  
ENDROOT
BRANCH   2   3
HETATM    3  C   UNL     1     -12.281  11.838  69.255  1.00  0.00    -0.202 C  
BRANCH   3   4
HETATM    4  C   UNL     1     -12.118  12.970  70.268  1.00  0.00    -0.388 C  
BRANCH   4   5
HETATM    5  C   UNL     1     -11.862  14.286  69.547  1.00  0.00    -0.378 C  
BRANCH   5   6
HETATM    6  C   UNL     1     -10.666  15.040  70.128  1.00  0.00    -0.183 C  
BRANCH   6   7
HETATM    7  C   UNL     1     -10.772  16.509  69.731  1.00  0.00    -0.298 C  
BRANCH   7   8
HETATM    8  C   UNL     1     -11.173  16.691  68.270  1.00  0.00    -0.220 C  
BRANCH   8   9
HETATM    9  N   UNL     1     -10.203  17.621  67.488  1.00  0.00    -0.334 N  
HETATM   10  C   UNL     1     -10.841  18.995  67.282  1.00  0.00    -0.408 C  
HETATM   11  C   UNL     1      -8.887  17.770  68.252  1.00  0.00    -0.277 C  
BRANCH   9  12
HETATM   12  C   UNL     1      -9.951  16.934  66.116  1.00  0.00    -0.315 C  
BRANCH  12  13
HETATM   13  C   UNL     1     -10.052  15.413  66.189  1.00  0.00    -0.325 C  
BRANCH  13  14
HETATM   14  C   UNL     1     -11.089  14.850  65.220  1.00  0.00    -0.382 C  
BRANCH  14  15
HETATM   15  C   UNL     1     -11.944  13.821  65.958  1.00  0.00    -0.443 C  
BRANCH  15  16
HETATM   16  C   UNL     1     -12.242  12.599  65.100  1.00  0.00    -0.539 C  
BRANCH  16  17
HETATM   17  C   UNL     1     -11.593  12.748  63.726  1.00  0.00    -0.548 C  
BRANCH  17  18
HETATM   18  C   UNL     1     -10.341  11.887  63.607  1.00  0.00    -0.477 C  
HETATM   19  C   UNL     1     -10.327  10.792  64.661  1.00  0.00    -0.394 C  
ENDBRANCH  17  18
ENDBRANCH  16  17
ENDBRANCH  15  16
ENDBRANCH  14  15
ENDBRANCH  13  14
ENDBRANCH  12  13
ENDBRANCH   9  12
ENDBRANCH   8   9
ENDBRANCH   7   8
ENDBRANCH   6   7
ENDBRANCH   5   6
ENDBRANCH   4   5
ENDBRANCH   3   4
ENDBRANCH   2   3
TORSDOF 14
ENDMDL
MODEL       63
REMARK 921   NORMALIZED FREE ENERGY PREDICTED BY IDOCK:   -3.59 KCAL/MOL
REMARK 922        TOTAL FREE ENERGY PREDICTED BY IDOCK:   -8.26 KCAL/MOL
REMARK 923 INTER-LIGAND FREE ENERGY PREDICTED BY IDOCK:   -6.39 KCAL/MOL
REMARK 924 INTRA-LIGAND FREE ENERGY PREDICTED BY IDOCK:   -1.87 KCAL/MOL
REMARK 927      BINDING AFFINITY PREDICTED BY RF-SCORE:    0.00 PKD
ROOT
HETATM    1  C   UNL     1      -8.413   9.336  62.895  1.00  0.00    -0.212 C  
HETATM    2  C   UNL     1      -8.690  10.515  63.813  1.00  0.00    -0.185 C  
ENDROOT
BRANCH   2   3
HETATM    3  C   UNL     1      -9.539  11.569  63.113  1.00  0.00    -0.381 C  
BRANCH   3   4
HETATM    4  C   UNL     1     -10.990  11.519  63.591  1.00  0.00    -0.482 C  
BRANCH   4   5
HETATM    5  C   UNL     1     -11.480  12.920  63.927  1.00  0.00    -0.504 C  
BRANCH   5   6
HETATM    6  C   UNL     1     -12.619  12.905  64.947  1.00  0.00    -0.525 C  
BRANCH   6   7
HETATM    7  C   UNL     1     -12.569  14.196  65.758  1.00  0.00    -0.475 C  
BRANCH   7   8
HETATM    8  C   UNL     1     -12.236  13.949  67.226  1.00  0.00    -0.289 C  
BRANCH   8   9
HETATM    9  N   UNL     1     -11.042  14.810  67.728  1.00  0.00    -0.288 N  
HETATM   10  C   UNL     1     -10.504  15.680  66.591  1.00  0.00    -0.301 C  
HETATM   11  C   UNL     1     -11.485  15.696  68.893  1.00  0.00    -0.361 C  
BRANCH   9  12
HETATM   12  C   UNL     1      -9.951  13.808  68.202  1.00  0.00    -0.242 C  
BRANCH  12  13
HETATM   13  C   UNL     1      -9.420  12.934  67.070  1.00  0.00    -0.235 C  
BRANCH  13  14
HETATM   14  C   UNL     1      -9.320  11.463  67.467  1.00  0.00    -0.166 C  
BRANCH  14  15
HETATM   15  C   UNL     1     -10.652  10.780  67.160  1.00  0.00    -0.306 C  
BRANCH  15  16
HETATM   16  C   UNL     1     -11.078   9.826  68.267  1.00  0.00    -0.158 C  
BRANCH  16  17
HETATM   17  C   UNL     1     -10.901  10.489  69.632  1.00  0.00    -0.320 C  
BRANCH  17  18
HETATM   18  C   UNL     1     -12.155  11.252  70.044  1.00  0.00    -0.425 C  
HETATM   19  C   UNL     1     -12.818  10.606  71.250  1.00  0.00    -0.535 C  
ENDBRANCH  17  18
ENDBRANCH  16  17
ENDBRANCH  15  16
ENDBRANCH  14  15
ENDBRANCH  13  14
ENDBRANCH  12  13
ENDBRANCH   9  12
ENDBRANCH   8   9
ENDBRANCH   7   8
ENDBRANCH   6   7
ENDBRANCH   5   6
ENDBRANCH   4   5
ENDBRANCH   3   4
ENDBRANCH   2   3
TORSDOF 14
ENDMDL
MODEL       64
REMARK 921   NORMALIZED FREE ENERGY PREDICTED BY IDOCK:   -3.59 KCAL/MOL
REMARK 922        TOTAL FREE ENERGY PREDICTED BY IDOCK:   -8.26 KCAL/MOL
REMARK 923 INTER-LIGAND FREE ENERGY PREDICTED BY IDOCK:   -7.57 KCAL/MOL
REMARK 924 INTRA-LIGAND FREE ENERGY PREDICTED BY IDOCK:   -0.68 KCAL/MOL
REMARK 927      BINDING AFFINITY PREDICTED BY RF-SCORE:    0.00 PKD
ROOT
HETATM    1  C   UNL     1     -12.314   7.086  71.673  1.00  0.00    -0.407 C  
HETATM    2  C   UNL     1     -11.380   7.086  70.474  1.00  0.00    -0.355 C  
ENDROOT
BRANCH   2   3
HETATM    3  C   UNL     1     -10.946   8.502  70.116  1.00  0.00    -0.221 C  
BRANCH   3   4
HETATM    4  C   UNL     1     -11.115   9.450  71.303  1.00  0.00    -0.446 C  
BRANCH   4   5
HETATM    5  C   UNL     1     -11.948  10.656  70.896  1.00  0.00    -0.469 C  
BRANCH   5   6
HETATM    6  C   UNL     1     -13.181  10.833  71.782  1.00  0.00    -0.523 C  
BRANCH   6   7
HETATM    7  C   UNL     1     -13.306  12.305  72.163  1.00  0.00    -0.473 C  
BRANCH   7   8
HETATM    8  C   UNL     1     -12.577  13.223  71.187  1.00  0.00    -0.325 C  
BRANCH   8   9
HETATM    9  N   UNL     1     -12.847  14.730  71.458  1.00  0.00    -0.311 N  
HETATM   10  C   UNL     1     -14.284  14.930  71.939  1.00  0.00    -0.548 C  
HETATM   11  C   UNL     1     -11.870  15.259  72.510  1.00  0.00    -0.431 C  
BRANCH   9  12
HETATM   12  C   UNL     1     -12.625  15.463  70.105  1.00  0.00    -0.293 C  
BRANCH  12  13
HETATM   13  C   UNL     1     -11.223  16.048  69.972  1.00  0.00    -0.362 C  
BRANCH  13  14
HETATM   14  C   UNL     1     -10.647  15.869  68.569  1.00  0.00    -0.263 C  
BRANCH  14  15
HETATM   15  C   UNL     1      -9.854  17.122  68.199  1.00  0.00    -0.281 C  
BRANCH  15  16
HETATM   16  C   UNL     1     -10.734  18.362  68.136  1.00  0.00    -0.208 C  
BRANCH  16  17
HETATM   17  C   UNL     1      -9.909  19.611  68.443  1.00  0.00    -0.531 C  
BRANCH  17  18
HETATM   18  C   UNL     1      -9.372  20.248  67.166  1.00  0.00    -0.536 C  
HETATM   19  C   UNL     1     -10.245  19.902  65.971  1.00  0.00    -0.591 C  
ENDBRANCH  17  18
ENDBRANCH  16  17
ENDBRANCH  15  16
ENDBRANCH  14  15
ENDBRANCH  13  14
ENDBRANCH  12  13
ENDBRANCH   9  12
ENDBRANCH   8   9
ENDBRANCH   7   8
ENDBRANCH   6   7
ENDBRANCH   5   6
ENDBRANCH   4   5
ENDBRANCH   3   4
ENDBRANCH   2   3
TORSDOF 14
ENDMDL
MODEL       65
REMARK 921   NORMALIZED FREE ENERGY PREDICTED BY IDOCK:   -3.57 KCAL/MOL
REMARK 922        TOTAL FREE ENERGY PREDICTED BY IDOCK:   -8.23 KCAL/MOL
REMARK 923 INTER-LIGAND FREE ENERGY PREDICTED BY IDOCK:   -7.02 KCAL/MOL
REMARK 924 INTRA-LIGAND FREE ENERGY PREDICTED BY IDOCK:   -1.21 KCAL/MOL
REMARK 927      BINDING AFFINITY PREDICTED BY RF-SCORE:    0.00 PKD
ROOT
HETATM    1  C   UNL     1     -11.683   6.112  72.159  1.00  0.00    -0.361 C  
HETATM    2  C   UNL     1     -12.325   7.077  71.174  1.00  0.00    -0.423 C  
ENDROOT
BRANCH   2   3
HETATM    3  C   UNL     1     -13.733   7.458  71.617  1.00  0.00    -0.468 C  
BRANCH   3   4
HETATM    4  C   UNL     1     -13.860   8.968  71.820  1.00  0.00    -0.453 C  
BRANCH   4   5
HETATM    5  C   UNL     1     -12.501   9.634  71.661  1.00  0.00    -0.494 C  
BRANCH   5   6
HETATM    6  C   UNL     1     -12.620  11.088  71.204  1.00  0.00    -0.522 C  
BRANCH   6   7
HETATM    7  C   UNL     1     -11.946  11.232  69.843  1.00  0.00    -0.440 C  
BRANCH   7   8
HETATM    8  C   UNL     1     -11.023  10.060  69.524  1.00  0.00    -0.253 C  
BRANCH   8   9
HETATM    9  N   UNL     1     -10.048  10.361  68.349  1.00  0.00    -0.158 N  
HETATM   10  C   UNL     1      -8.655   9.818  68.667  1.00  0.00    -0.121 C  
HETATM   11  C   UNL     1     -10.569   9.726  67.058  1.00  0.00    -0.199 C  
BRANCH   9  12
HETATM   12  C   UNL     1     -10.004  11.908  68.205  1.00  0.00    -0.202 C  
BRANCH  12  13
HETATM   13  C   UNL     1      -9.847  12.363  66.758  1.00  0.00    -0.228 C  
BRANCH  13  14
HETATM   14  C   UNL     1     -10.381  13.775  66.529  1.00  0.00    -0.286 C  
BRANCH  14  15
HETATM   15  C   UNL     1     -11.861  13.808  66.908  1.00  0.00    -0.447 C  
BRANCH  15  16
HETATM   16  C   UNL     1     -12.770  13.748  65.689  1.00  0.00    -0.523 C  
BRANCH  16  17
HETATM   17  C   UNL     1     -12.024  14.238  64.450  1.00  0.00    -0.476 C  
BRANCH  17  18
HETATM   18  C   UNL     1     -12.071  13.205  63.329  1.00  0.00    -0.460 C  
HETATM   19  C   UNL     1     -12.627  11.881  63.827  1.00  0.00    -0.509 C  
ENDBRANCH  17  18
ENDBRANCH  16  17
ENDBRANCH  15  16
ENDBRANCH  14  15
ENDBRANCH  13  14
ENDBRANCH  12  13
ENDBRANCH   9  12
ENDBRANCH   8   9
ENDBRANCH   7   8
ENDBRANCH   6   7
ENDBRANCH   5   6
ENDBRANCH   4   5
ENDBRANCH   3   4
ENDBRANCH   2   3
TORSDOF 14
ENDMDL
MODEL       66
REMARK 921   NORMALIZED FREE ENERGY PREDICTED BY IDOCK:   -3.56 KCAL/MOL
REMARK 922        TOTAL FREE ENERGY PREDICTED BY IDOCK:   -8.21 KCAL/MOL
REMARK 923 INTER-LIGAND FREE ENERGY PREDICTED BY IDOCK:   -5.85 KCAL/MOL
REMARK 924 INTRA-LIGAND FREE ENERGY PREDICTED BY IDOCK:   -2.35 KCAL/MOL
REMARK 927      BINDING AFFINITY PREDICTED BY RF-SCORE:    0.00 PKD
ROOT
HETATM    1  C   UNL     1     -10.613   8.987  67.300  1.00  0.00    -0.301 C  
HETATM    2  C   UNL     1      -9.797  10.142  66.741  1.00  0.00    -0.247 C  
ENDROOT
BRANCH   2   3
HETATM    3  C   UNL     1      -9.239  11.013  67.861  1.00  0.00    -0.155 C  
BRANCH   3   4
HETATM    4  C   UNL     1      -8.021  11.807  67.390  1.00  0.00    -0.155 C  
BRANCH   4   5
HETATM    5  C   UNL     1      -8.434  13.217  66.997  1.00  0.00    -0.138 C  
BRANCH   5   6
HETATM    6  C   UNL     1      -8.109  14.240  68.086  1.00  0.00    -0.144 C  
BRANCH   6   7
HETATM    7  C   UNL     1      -8.034  15.625  67.452  1.00  0.00    -0.204 C  
BRANCH   7   8
HETATM    8  C   UNL     1      -8.283  16.742  68.461  1.00  0.00    -0.242 C  
BRANCH   8   9
HETATM    9  N   UNL     1      -9.662  17.435  68.267  1.00  0.00    -0.286 N  
HETATM   10  C   UNL     1      -9.556  18.923  68.602  1.00  0.00    -0.391 C  
HETATM   11  C   UNL     1     -10.140  17.261  66.825  1.00  0.00    -0.302 C  
BRANCH   9  12
HETATM   12  C   UNL     1     -10.645  16.732  69.246  1.00  0.00    -0.336 C  
BRANCH  12  13
HETATM   13  C   UNL     1     -11.588  15.763  68.541  1.00  0.00    -0.367 C  
BRANCH  13  14
HETATM   14  C   UNL     1     -11.575  14.373  69.173  1.00  0.00    -0.344 C  
BRANCH  14  15
HETATM   15  C   UNL     1     -11.974  13.347  68.114  1.00  0.00    -0.356 C  
BRANCH  15  16
HETATM   16  C   UNL     1     -12.004  13.946  66.714  1.00  0.00    -0.472 C  
BRANCH  16  17
HETATM   17  C   UNL     1     -12.182  12.844  65.672  1.00  0.00    -0.519 C  
BRANCH  17  18
HETATM   18  C   UNL     1     -11.173  12.985  64.537  1.00  0.00    -0.372 C  
HETATM   19  C   UNL     1     -11.210  11.776  63.617  1.00  0.00    -0.519 C  
ENDBRANCH  17  18
ENDBRANCH  16  17
ENDBRANCH  15  16
ENDBRANCH  14  15
ENDBRANCH  13  14
ENDBRANCH  12  13
ENDBRANCH   9  12
ENDBRANCH   8   9
ENDBRANCH   7   8
ENDBRANCH   6   7
ENDBRANCH   5   6
ENDBRANCH   4   5
ENDBRANCH   3   4
ENDBRANCH   2   3
TORSDOF 14
ENDMDL
MODEL       67
REMARK 921   NORMALIZED FREE ENERGY PREDICTED BY IDOCK:   -3.55 KCAL/MOL
REMARK 922        TOTAL FREE ENERGY PREDICTED BY IDOCK:   -8.19 KCAL/MOL
REMARK 923 INTER-LIGAND FREE ENERGY PREDICTED BY IDOCK:   -6.52 KCAL/MOL
REMARK 924 INTRA-LIGAND FREE ENERGY PREDICTED BY IDOCK:   -1.67 KCAL/MOL
REMARK 927      BINDING AFFINITY PREDICTED BY RF-SCORE:    0.00 PKD
ROOT
HETATM    1  C   UNL     1      -9.902  10.418  64.224  1.00  0.00    -0.388 C  
HETATM    2  C   UNL     1      -9.663  10.216  65.712  1.00  0.00    -0.307 C  
ENDROOT
BRANCH   2   3
HETATM    3  C   UNL     1      -9.414   8.748  66.034  1.00  0.00    -0.302 C  
BRANCH   3   4
HETATM    4  C   UNL     1     -10.293   8.279  67.193  1.00  0.00    -0.387 C  
BRANCH   4   5
HETATM    5  C   UNL     1      -9.622   7.126  67.926  1.00  0.00    -0.145 C  
BRANCH   5   6
HETATM    6  C   UNL     1     -10.613   6.025  68.301  1.00  0.00    -0.325 C  
BRANCH   6   7
HETATM    7  C   UNL     1     -11.381   6.457  69.547  1.00  0.00    -0.460 C  
BRANCH   7   8
HETATM    8  C   UNL     1     -10.502   6.483  70.793  1.00  0.00    -0.220 C  
BRANCH   8   9
HETATM    9  N   UNL     1     -10.520   7.859  71.518  1.00  0.00    -0.207 N  
HETATM   10  C   UNL     1     -10.913   7.679  72.984  1.00  0.00    -0.400 C  
HETATM   11  C   UNL     1      -9.143   8.519  71.428  1.00  0.00    -0.206 C  
BRANCH   9  12
HETATM   12  C   UNL     1     -11.578   8.726  70.780  1.00  0.00    -0.251 C  
BRANCH  12  13
HETATM   13  C   UNL     1     -11.061  10.117  70.424  1.00  0.00    -0.393 C  
BRANCH  13  14
HETATM   14  C   UNL     1     -12.150  11.014  69.842  1.00  0.00    -0.435 C  
BRANCH  14  15
HETATM   15  C   UNL     1     -11.758  11.401  68.417  1.00  0.00    -0.373 C  
BRANCH  15  16
HETATM   16  C   UNL     1     -11.893  12.897  68.169  1.00  0.00    -0.380 C  
BRANCH  16  17
HETATM   17  C   UNL     1     -11.340  13.256  66.790  1.00  0.00    -0.359 C  
BRANCH  17  18
HETATM   18  C   UNL     1     -12.360  12.969  65.693  1.00  0.00    -0.504 C  
HETATM   19  C   UNL     1     -12.020  13.724  64.419  1.00  0.00    -0.480 C  
ENDBRANCH  17  18
ENDBRANCH  16  17
ENDBRANCH  15  16
ENDBRANCH  14  15
ENDBRANCH  13  14
ENDBRANCH  12  13
ENDBRANCH   9  12
ENDBRANCH   8   9
ENDBRANCH   7   8
ENDBRANCH   6   7
ENDBRANCH   5   6
ENDBRANCH   4   5
ENDBRANCH   3   4
ENDBRANCH   2   3
TORSDOF 14
ENDMDL
MODEL       68
REMARK 921   NORMALIZED FREE ENERGY PREDICTED BY IDOCK:   -3.54 KCAL/MOL
REMARK 922        TOTAL FREE ENERGY PREDICTED BY IDOCK:   -8.17 KCAL/MOL
REMARK 923 INTER-LIGAND FREE ENERGY PREDICTED BY IDOCK:   -7.07 KCAL/MOL
REMARK 924 INTRA-LIGAND FREE ENERGY PREDICTED BY IDOCK:   -1.10 KCAL/MOL
REMARK 927      BINDING AFFINITY PREDICTED BY RF-SCORE:    0.00 PKD
ROOT
HETATM    1  C   UNL     1     -12.283  13.489  63.433  1.00  0.00    -0.338 C  
HETATM    2  C   UNL     1     -12.040  11.989  63.394  1.00  0.00    -0.597 C  
ENDROOT
BRANCH   2   3
HETATM    3  C   UNL     1     -10.554  11.671  63.512  1.00  0.00    -0.496 C  
BRANCH   3   4
HETATM    4  C   UNL     1     -10.268  10.804  64.738  1.00  0.00    -0.403 C  
BRANCH   4   5
HETATM    5  C   UNL     1     -10.128  11.678  65.977  1.00  0.00    -0.259 C  
BRANCH   5   6
HETATM    6  C   UNL     1     -11.240  11.421  66.994  1.00  0.00    -0.350 C  
BRANCH   6   7
HETATM    7  C   UNL     1     -11.318  12.610  67.946  1.00  0.00    -0.337 C  
BRANCH   7   8
HETATM    8  C   UNL     1     -11.550  13.929  67.215  1.00  0.00    -0.365 C  
BRANCH   8   9
HETATM    9  N   UNL     1     -10.364  14.923  67.369  1.00  0.00    -0.242 N  
HETATM   10  C   UNL     1      -9.218  14.261  68.135  1.00  0.00    -0.202 C  
HETATM   11  C   UNL     1      -9.874  15.376  65.993  1.00  0.00    -0.326 C  
BRANCH   9  12
HETATM   12  C   UNL     1     -10.914  16.138  68.169  1.00  0.00    -0.341 C  
BRANCH  12  13
HETATM   13  C   UNL     1      -9.837  17.166  68.498  1.00  0.00    -0.297 C  
BRANCH  13  14
HETATM   14  C   UNL     1     -10.387  18.589  68.558  1.00  0.00    -0.315 C  
BRANCH  14  15
HETATM   15  C   UNL     1     -10.710  19.051  67.137  1.00  0.00    -0.541 C  
BRANCH  15  16
HETATM   16  C   UNL     1      -9.918  20.289  66.740  1.00  0.00    -0.587 C  
BRANCH  16  17
HETATM   17  C   UNL     1      -8.497  19.899  66.337  1.00  0.00    -0.379 C  
BRANCH  17  18
HETATM   18  C   UNL     1      -7.460  20.636  67.177  1.00  0.00    -0.381 C  
HETATM   19  C   UNL     1      -6.815  19.707  68.192  1.00  0.00    -0.314 C  
ENDBRANCH  17  18
ENDBRANCH  16  17
ENDBRANCH  15  16
ENDBRANCH  14  15
ENDBRANCH  13  14
ENDBRANCH  12  13
ENDBRANCH   9  12
ENDBRANCH   8   9
ENDBRANCH   7   8
ENDBRANCH   6   7
ENDBRANCH   5   6
ENDBRANCH   4   5
ENDBRANCH   3   4
ENDBRANCH   2   3
TORSDOF 14
ENDMDL
MODEL       69
REMARK 921   NORMALIZED FREE ENERGY PREDICTED BY IDOCK:   -3.54 KCAL/MOL
REMARK 922        TOTAL FREE ENERGY PREDICTED BY IDOCK:   -8.17 KCAL/MOL
REMARK 923 INTER-LIGAND FREE ENERGY PREDICTED BY IDOCK:   -5.84 KCAL/MOL
REMARK 924 INTRA-LIGAND FREE ENERGY PREDICTED BY IDOCK:   -2.33 KCAL/MOL
REMARK 927      BINDING AFFINITY PREDICTED BY RF-SCORE:    0.00 PKD
ROOT
HETATM    1  C   UNL     1      -9.858  20.393  67.443  1.00  0.00    -0.587 C  
HETATM    2  C   UNL     1     -10.244  19.330  66.427  1.00  0.00    -0.533 C  
ENDROOT
BRANCH   2   3
HETATM    3  C   UNL     1     -10.460  17.980  67.099  1.00  0.00    -0.377 C  
BRANCH   3   4
HETATM    4  C   UNL     1     -10.236  18.070  68.608  1.00  0.00    -0.385 C  
BRANCH   4   5
HETATM    5  C   UNL     1     -10.369  16.693  69.242  1.00  0.00    -0.318 C  
BRANCH   5   6
HETATM    6  C   UNL     1     -11.739  16.067  68.984  1.00  0.00    -0.322 C  
BRANCH   6   7
HETATM    7  C   UNL     1     -11.554  14.582  68.687  1.00  0.00    -0.346 C  
BRANCH   7   8
HETATM    8  C   UNL     1     -11.429  14.298  67.193  1.00  0.00    -0.359 C  
BRANCH   8   9
HETATM    9  N   UNL     1     -10.125  13.530  66.831  1.00  0.00    -0.251 N  
HETATM   10  C   UNL     1      -9.618  12.751  68.045  1.00  0.00    -0.217 C  
HETATM   11  C   UNL     1     -10.387  12.569  65.671  1.00  0.00    -0.271 C  
BRANCH   9  12
HETATM   12  C   UNL     1      -9.087  14.608  66.411  1.00  0.00    -0.209 C  
BRANCH  12  13
HETATM   13  C   UNL     1      -7.946  14.753  67.413  1.00  0.00    -0.220 C  
BRANCH  13  14
HETATM   14  C   UNL     1      -7.266  16.117  67.330  1.00  0.00    -0.232 C  
BRANCH  14  15
HETATM   15  C   UNL     1      -6.704  16.471  68.706  1.00  0.00    -0.170 C  
BRANCH  15  16
HETATM   16  C   UNL     1      -6.602  17.975  68.917  1.00  0.00    -0.241 C  
BRANCH  16  17
HETATM   17  C   UNL     1      -6.701  18.704  67.578  1.00  0.00    -0.201 C  
BRANCH  17  18
HETATM   18  C   UNL     1      -5.974  20.043  67.621  1.00  0.00    -0.219 C  
HETATM   19  C   UNL     1      -5.881  20.571  69.043  1.00  0.00    -0.387 C  
ENDBRANCH  17  18
ENDBRANCH  16  17
ENDBRANCH  15  16
ENDBRANCH  14  15
ENDBRANCH  13  14
ENDBRANCH  12  13
ENDBRANCH   9  12
ENDBRANCH   8   9
ENDBRANCH   7   8
ENDBRANCH   6   7
ENDBRANCH   5   6
ENDBRANCH   4   5
ENDBRANCH   3   4
ENDBRANCH   2   3
TORSDOF 14
ENDMDL
MODEL       70
REMARK 921   NORMALIZED FREE ENERGY PREDICTED BY IDOCK:   -3.53 KCAL/MOL
REMARK 922        TOTAL FREE ENERGY PREDICTED BY IDOCK:   -8.16 KCAL/MOL
REMARK 923 INTER-LIGAND FREE ENERGY PREDICTED BY IDOCK:   -6.20 KCAL/MOL
REMARK 924 INTRA-LIGAND FREE ENERGY PREDICTED BY IDOCK:   -1.96 KCAL/MOL
REMARK 927      BINDING AFFINITY PREDICTED BY RF-SCORE:    0.00 PKD
ROOT
HETATM    1  C   UNL     1      -9.562   5.771  67.656  1.00  0.00    -0.119 C  
HETATM    2  C   UNL     1     -10.876   6.456  67.320  1.00  0.00    -0.463 C  
ENDROOT
BRANCH   2   3
HETATM    3  C   UNL     1     -10.661   7.930  66.997  1.00  0.00    -0.381 C  
BRANCH   3   4
HETATM    4  C   UNL     1      -9.370   8.140  66.206  1.00  0.00    -0.259 C  
BRANCH   4   5
HETATM    5  C   UNL     1      -9.413   9.476  65.478  1.00  0.00    -0.334 C  
BRANCH   5   6
HETATM    6  C   UNL     1     -10.391  10.456  66.126  1.00  0.00    -0.269 C  
BRANCH   6   7
HETATM    7  C   UNL     1     -10.697  11.573  65.133  1.00  0.00    -0.348 C  
BRANCH   7   8
HETATM    8  C   UNL     1     -10.074  12.904  65.543  1.00  0.00    -0.257 C  
BRANCH   8   9
HETATM    9  N   UNL     1     -11.135  14.006  65.826  1.00  0.00    -0.301 N  
HETATM   10  C   UNL     1     -10.816  15.265  65.020  1.00  0.00    -0.439 C  
HETATM   11  C   UNL     1     -12.531  13.499  65.463  1.00  0.00    -0.491 C  
BRANCH   9  12
HETATM   12  C   UNL     1     -11.054  14.308  67.349  1.00  0.00    -0.304 C  
BRANCH  12  13
HETATM   13  C   UNL     1     -11.989  13.431  68.176  1.00  0.00    -0.356 C  
BRANCH  13  14
HETATM   14  C   UNL     1     -11.232  12.447  69.066  1.00  0.00    -0.320 C  
BRANCH  14  15
HETATM   15  C   UNL     1     -12.121  11.232  69.323  1.00  0.00    -0.372 C  
BRANCH  15  16
HETATM   16  C   UNL     1     -11.461  10.221  70.252  1.00  0.00    -0.395 C  
BRANCH  16  17
HETATM   17  C   UNL     1     -10.011   9.987  69.831  1.00  0.00    -0.280 C  
BRANCH  17  18
HETATM   18  C   UNL     1      -9.327   8.974  70.742  1.00  0.00    -0.305 C  
HETATM   19  C   UNL     1     -10.222   7.773  70.997  1.00  0.00    -0.210 C  
ENDBRANCH  17  18
ENDBRANCH  16  17
ENDBRANCH  15  16
ENDBRANCH  14  15
ENDBRANCH  13  14
ENDBRANCH  12  13
ENDBRANCH   9  12
ENDBRANCH   8   9
ENDBRANCH   7   8
ENDBRANCH   6   7
ENDBRANCH   5   6
ENDBRANCH   4   5
ENDBRANCH   3   4
ENDBRANCH   2   3
TORSDOF 14
ENDMDL
MODEL       71
REMARK 921   NORMALIZED FREE ENERGY PREDICTED BY IDOCK:   -3.53 KCAL/MOL
REMARK 922        TOTAL FREE ENERGY PREDICTED BY IDOCK:   -8.15 KCAL/MOL
REMARK 923 INTER-LIGAND FREE ENERGY PREDICTED BY IDOCK:   -6.17 KCAL/MOL
REMARK 924 INTRA-LIGAND FREE ENERGY PREDICTED BY IDOCK:   -1.98 KCAL/MOL
REMARK 927      BINDING AFFINITY PREDICTED BY RF-SCORE:    0.00 PKD
ROOT
HETATM    1  C   UNL     1     -12.839  14.204  65.299  1.00  0.00    -0.370 C  
HETATM    2  C   UNL     1     -12.481  12.754  65.018  1.00  0.00    -0.572 C  
ENDROOT
BRANCH   2   3
HETATM    3  C   UNL     1     -12.007  12.573  63.581  1.00  0.00    -0.621 C  
BRANCH   3   4
HETATM    4  C   UNL     1     -10.660  11.853  63.528  1.00  0.00    -0.507 C  
BRANCH   4   5
HETATM    5  C   UNL     1     -10.233  11.436  64.928  1.00  0.00    -0.330 C  
BRANCH   5   6
HETATM    6  C   UNL     1      -9.751   9.986  64.977  1.00  0.00    -0.386 C  
BRANCH   6   7
HETATM    7  C   UNL     1      -9.960   9.447  66.389  1.00  0.00    -0.346 C  
BRANCH   7   8
HETATM    8  C   UNL     1      -9.373  10.365  67.456  1.00  0.00    -0.149 C  
BRANCH   8   9
HETATM    9  N   UNL     1      -9.916  10.060  68.882  1.00  0.00    -0.182 N  
HETATM   10  C   UNL     1     -10.603   8.694  68.903  1.00  0.00    -0.144 C  
HETATM   11  C   UNL     1      -8.771  10.080  69.896  1.00  0.00    -0.142 C  
BRANCH   9  12
HETATM   12  C   UNL     1     -10.940  11.183  69.207  1.00  0.00    -0.247 C  
BRANCH  12  13
HETATM   13  C   UNL     1     -10.591  12.512  68.546  1.00  0.00    -0.262 C  
BRANCH  13  14
HETATM   14  C   UNL     1     -11.685  13.561  68.729  1.00  0.00    -0.373 C  
BRANCH  14  15
HETATM   15  C   UNL     1     -11.106  14.748  69.497  1.00  0.00    -0.302 C  
BRANCH  15  16
HETATM   16  C   UNL     1     -11.269  16.059  68.739  1.00  0.00    -0.360 C  
BRANCH  16  17
HETATM   17  C   UNL     1      -9.967  16.422  68.028  1.00  0.00    -0.242 C  
BRANCH  17  18
HETATM   18  C   UNL     1     -10.099  16.267  66.517  1.00  0.00    -0.301 C  
HETATM   19  C   UNL     1      -9.431  14.989  66.037  1.00  0.00    -0.337 C  
ENDBRANCH  17  18
ENDBRANCH  16  17
ENDBRANCH  15  16
ENDBRANCH  14  15
ENDBRANCH  13  14
ENDBRANCH  12  13
ENDBRANCH   9  12
ENDBRANCH   8   9
ENDBRANCH   7   8
ENDBRANCH   6   7
ENDBRANCH   5   6
ENDBRANCH   4   5
ENDBRANCH   3   4
ENDBRANCH   2   3
TORSDOF 14
ENDMDL
MODEL       72
REMARK 921   NORMALIZED FREE ENERGY PREDICTED BY IDOCK:   -3.53 KCAL/MOL
REMARK 922        TOTAL FREE ENERGY PREDICTED BY IDOCK:   -8.15 KCAL/MOL
REMARK 923 INTER-LIGAND FREE ENERGY PREDICTED BY IDOCK:   -7.26 KCAL/MOL
REMARK 924 INTRA-LIGAND FREE ENERGY PREDICTED BY IDOCK:   -0.90 KCAL/MOL
REMARK 927      BINDING AFFINITY PREDICTED BY RF-SCORE:    0.00 PKD
ROOT
HETATM    1  C   UNL     1     -12.196  14.255  64.710  1.00  0.00    -0.456 C  
HETATM    2  C   UNL     1     -12.581  12.788  64.810  1.00  0.00    -0.518 C  
ENDROOT
BRANCH   2   3
HETATM    3  C   UNL     1     -12.018  11.992  63.638  1.00  0.00    -0.612 C  
BRANCH   3   4
HETATM    4  C   UNL     1     -10.492  12.061  63.603  1.00  0.00    -0.494 C  
BRANCH   4   5
HETATM    5  C   UNL     1      -9.910  10.682  63.329  1.00  0.00    -0.364 C  
BRANCH   5   6
HETATM    6  C   UNL     1      -9.530   9.949  64.616  1.00  0.00    -0.343 C  
BRANCH   6   7
HETATM    7  C   UNL     1      -9.468  10.959  65.757  1.00  0.00    -0.246 C  
BRANCH   7   8
HETATM    8  C   UNL     1     -10.364  10.569  66.929  1.00  0.00    -0.239 C  
BRANCH   8   9
HETATM    9  N   UNL     1     -10.043  11.366  68.226  1.00  0.00    -0.189 N  
HETATM   10  C   UNL     1     -10.047  10.430  69.435  1.00  0.00    -0.229 C  
HETATM   11  C   UNL     1      -8.678  12.045  68.102  1.00  0.00    -0.177 C  
BRANCH   9  12
HETATM   12  C   UNL     1     -11.162  12.435  68.369  1.00  0.00    -0.273 C  
BRANCH  12  13
HETATM   13  C   UNL     1     -10.661  13.854  68.116  1.00  0.00    -0.260 C  
BRANCH  13  14
HETATM   14  C   UNL     1     -11.723  14.910  68.416  1.00  0.00    -0.336 C  
BRANCH  14  15
HETATM   15  C   UNL     1     -12.231  14.704  69.842  1.00  0.00    -0.365 C  
BRANCH  15  16
HETATM   16  C   UNL     1     -11.844  15.854  70.762  1.00  0.00    -0.423 C  
BRANCH  16  17
HETATM   17  C   UNL     1     -11.918  15.409  72.222  1.00  0.00    -0.529 C  
BRANCH  17  18
HETATM   18  C   UNL     1     -13.363  15.255  72.682  1.00  0.00    -0.577 C  
HETATM   19  C   UNL     1     -13.827  13.813  72.558  1.00  0.00    -0.626 C  
ENDBRANCH  17  18
ENDBRANCH  16  17
ENDBRANCH  15  16
ENDBRANCH  14  15
ENDBRANCH  13  14
ENDBRANCH  12  13
ENDBRANCH   9  12
ENDBRANCH   8   9
ENDBRANCH   7   8
ENDBRANCH   6   7
ENDBRANCH   5   6
ENDBRANCH   4   5
ENDBRANCH   3   4
ENDBRANCH   2   3
TORSDOF 14
ENDMDL
MODEL       73
REMARK 921   NORMALIZED FREE ENERGY PREDICTED BY IDOCK:   -3.53 KCAL/MOL
REMARK 922        TOTAL FREE ENERGY PREDICTED BY IDOCK:   -8.15 KCAL/MOL
REMARK 923 INTER-LIGAND FREE ENERGY PREDICTED BY IDOCK:   -7.39 KCAL/MOL
REMARK 924 INTRA-LIGAND FREE ENERGY PREDICTED BY IDOCK:   -0.77 KCAL/MOL
REMARK 927      BINDING AFFINITY PREDICTED BY RF-SCORE:    0.00 PKD
ROOT
HETATM    1  C   UNL     1      -8.442  20.177  67.220  1.00  0.00    -0.403 C  
HETATM    2  C   UNL     1      -9.913  20.037  67.580  1.00  0.00    -0.565 C  
ENDROOT
BRANCH   2   3
HETATM    3  C   UNL     1     -10.576  18.936  66.761  1.00  0.00    -0.480 C  
BRANCH   3   4
HETATM    4  C   UNL     1     -10.236  17.552  67.313  1.00  0.00    -0.335 C  
BRANCH   4   5
HETATM    5  C   UNL     1     -10.660  17.451  68.771  1.00  0.00    -0.283 C  
BRANCH   5   6
HETATM    6  C   UNL     1     -10.185  16.153  69.423  1.00  0.00    -0.266 C  
BRANCH   6   7
HETATM    7  C   UNL     1     -11.404  15.363  69.891  1.00  0.00    -0.318 C  
BRANCH   7   8
HETATM    8  C   UNL     1     -11.952  15.873  71.221  1.00  0.00    -0.442 C  
BRANCH   8   9
HETATM    9  N   UNL     1     -12.914  14.862  71.906  1.00  0.00    -0.314 N  
HETATM   10  C   UNL     1     -12.607  14.770  73.400  1.00  0.00    -0.435 C  
HETATM   11  C   UNL     1     -14.367  15.296  71.701  1.00  0.00    -0.561 C  
BRANCH   9  12
HETATM   12  C   UNL     1     -12.664  13.489  71.220  1.00  0.00    -0.348 C  
BRANCH  12  13
HETATM   13  C   UNL     1     -13.251  12.320  72.005  1.00  0.00    -0.508 C  
BRANCH  13  14
HETATM   14  C   UNL     1     -12.976  10.974  71.339  1.00  0.00    -0.517 C  
BRANCH  14  15
HETATM   15  C   UNL     1     -13.052   9.876  72.399  1.00  0.00    -0.296 C  
BRANCH  15  16
HETATM   16  C   UNL     1     -12.264   8.636  72.001  1.00  0.00    -0.439 C  
BRANCH  16  17
HETATM   17  C   UNL     1     -11.480   8.898  70.716  1.00  0.00    -0.319 C  
BRANCH  17  18
HETATM   18  C   UNL     1     -10.118   8.214  70.748  1.00  0.00    -0.211 C  
HETATM   19  C   UNL     1      -9.281   8.715  71.914  1.00  0.00    -0.345 C  
ENDBRANCH  17  18
ENDBRANCH  16  17
ENDBRANCH  15  16
ENDBRANCH  14  15
ENDBRANCH  13  14
ENDBRANCH  12  13
ENDBRANCH   9  12
ENDBRANCH   8   9
ENDBRANCH   7   8
ENDBRANCH   6   7
ENDBRANCH   5   6
ENDBRANCH   4   5
ENDBRANCH   3   4
ENDBRANCH   2   3
TORSDOF 14
ENDMDL
MODEL       74
REMARK 921   NORMALIZED FREE ENERGY PREDICTED BY IDOCK:   -3.53 KCAL/MOL
REMARK 922        TOTAL FREE ENERGY PREDICTED BY IDOCK:   -8.15 KCAL/MOL
REMARK 923 INTER-LIGAND FREE ENERGY PREDICTED BY IDOCK:   -6.19 KCAL/MOL
REMARK 924 INTRA-LIGAND FREE ENERGY PREDICTED BY IDOCK:   -1.95 KCAL/MOL
REMARK 927      BINDING AFFINITY PREDICTED BY RF-SCORE:    0.00 PKD
ROOT
HETATM    1  C   UNL     1      -8.108   8.968  62.740  1.00  0.00    -0.164 C  
HETATM    2  C   UNL     1      -8.430  10.228  63.528  1.00  0.00    -0.182 C  
ENDROOT
BRANCH   2   3
HETATM    3  C   UNL     1      -9.550  11.020  62.864  1.00  0.00    -0.369 C  
BRANCH   3   4
HETATM    4  C   UNL     1     -10.763  11.144  63.785  1.00  0.00    -0.399 C  
BRANCH   4   5
HETATM    5  C   UNL     1     -11.502  12.444  63.506  1.00  0.00    -0.561 C  
BRANCH   5   6
HETATM    6  C   UNL     1     -12.639  12.687  64.498  1.00  0.00    -0.491 C  
BRANCH   6   7
HETATM    7  C   UNL     1     -12.459  14.066  65.124  1.00  0.00    -0.472 C  
BRANCH   7   8
HETATM    8  C   UNL     1     -12.279  14.000  66.638  1.00  0.00    -0.428 C  
BRANCH   8   9
HETATM    9  N   UNL     1     -10.979  14.703  67.124  1.00  0.00    -0.307 N  
HETATM   10  C   UNL     1     -10.255  15.347  65.942  1.00  0.00    -0.344 C  
HETATM   11  C   UNL     1     -11.316  15.768  68.168  1.00  0.00    -0.337 C  
BRANCH   9  12
HETATM   12  C   UNL     1     -10.094  13.593  67.757  1.00  0.00    -0.242 C  
BRANCH  12  13
HETATM   13  C   UNL     1      -9.163  12.930  66.747  1.00  0.00    -0.230 C  
BRANCH  13  14
HETATM   14  C   UNL     1      -9.006  11.432  66.994  1.00  0.00    -0.166 C  
BRANCH  14  15
HETATM   15  C   UNL     1     -10.108  10.972  67.948  1.00  0.00    -0.199 C  
BRANCH  15  16
HETATM   16  C   UNL     1     -10.888   9.787  67.398  1.00  0.00    -0.265 C  
BRANCH  16  17
HETATM   17  C   UNL     1      -9.973   8.895  66.560  1.00  0.00    -0.358 C  
BRANCH  17  18
HETATM   18  C   UNL     1      -9.754   7.543  67.229  1.00  0.00    -0.217 C  
HETATM   19  C   UNL     1     -10.923   6.607  66.970  1.00  0.00    -0.463 C  
ENDBRANCH  17  18
ENDBRANCH  16  17
ENDBRANCH  15  16
ENDBRANCH  14  15
ENDBRANCH  13  14
ENDBRANCH  12  13
ENDBRANCH   9  12
ENDBRANCH   8   9
ENDBRANCH   7   8
ENDBRANCH   6   7
ENDBRANCH   5   6
ENDBRANCH   4   5
ENDBRANCH   3   4
ENDBRANCH   2   3
TORSDOF 14
ENDMDL
MODEL       75
REMARK 921   NORMALIZED FREE ENERGY PREDICTED BY IDOCK:   -3.52 KCAL/MOL
REMARK 922        TOTAL FREE ENERGY PREDICTED BY IDOCK:   -8.14 KCAL/MOL
REMARK 923 INTER-LIGAND FREE ENERGY PREDICTED BY IDOCK:   -6.33 KCAL/MOL
REMARK 924 INTRA-LIGAND FREE ENERGY PREDICTED BY IDOCK:   -1.81 KCAL/MOL
REMARK 927      BINDING AFFINITY PREDICTED BY RF-SCORE:    0.00 PKD
ROOT
HETATM    1  C   UNL     1     -10.212  11.702  63.422  1.00  0.00    -0.471 C  
HETATM    2  C   UNL     1     -11.663  11.904  63.828  1.00  0.00    -0.554 C  
ENDROOT
BRANCH   2   3
HETATM    3  C   UNL     1     -12.143  13.306  63.471  1.00  0.00    -0.550 C  
BRANCH   3   4
HETATM    4  C   UNL     1     -11.939  14.275  64.636  1.00  0.00    -0.468 C  
BRANCH   4   5
HETATM    5  C   UNL     1     -12.821  13.876  65.810  1.00  0.00    -0.437 C  
BRANCH   5   6
HETATM    6  C   UNL     1     -12.062  13.894  67.136  1.00  0.00    -0.422 C  
BRANCH   6   7
HETATM    7  C   UNL     1     -11.780  12.456  67.560  1.00  0.00    -0.425 C  
BRANCH   7   8
HETATM    8  C   UNL     1     -10.512  12.334  68.400  1.00  0.00    -0.233 C  
BRANCH   8   9
HETATM    9  N   UNL     1      -9.470  11.357  67.784  1.00  0.00    -0.162 N  
HETATM   10  C   UNL     1      -8.761  10.576  68.891  1.00  0.00    -0.154 C  
HETATM   11  C   UNL     1     -10.162  10.385  66.827  1.00  0.00    -0.226 C  
BRANCH   9  12
HETATM   12  C   UNL     1      -8.451  12.237  67.008  1.00  0.00    -0.181 C  
BRANCH  12  13
HETATM   13  C   UNL     1      -8.299  13.632  67.607  1.00  0.00    -0.182 C  
BRANCH  13  14
HETATM   14  C   UNL     1      -8.536  14.737  66.580  1.00  0.00    -0.093 C  
BRANCH  14  15
HETATM   15  C   UNL     1      -9.092  15.965  67.299  1.00  0.00    -0.218 C  
BRANCH  15  16
HETATM   16  C   UNL     1      -9.882  16.871  66.364  1.00  0.00    -0.319 C  
BRANCH  16  17
HETATM   17  C   UNL     1     -10.625  17.938  67.166  1.00  0.00    -0.315 C  
BRANCH  17  18
HETATM   18  C   UNL     1      -9.916  18.235  68.483  1.00  0.00    -0.413 C  
HETATM   19  C   UNL     1      -9.962  19.719  68.807  1.00  0.00    -0.510 C  
ENDBRANCH  17  18
ENDBRANCH  16  17
ENDBRANCH  15  16
ENDBRANCH  14  15
ENDBRANCH  13  14
ENDBRANCH  12  13
ENDBRANCH   9  12
ENDBRANCH   8   9
ENDBRANCH   7   8
ENDBRANCH   6   7
ENDBRANCH   5   6
ENDBRANCH   4   5
ENDBRANCH   3   4
ENDBRANCH   2   3
TORSDOF 14
ENDMDL
MODEL       76
REMARK 921   NORMALIZED FREE ENERGY PREDICTED BY IDOCK:   -3.52 KCAL/MOL
REMARK 922        TOTAL FREE ENERGY PREDICTED BY IDOCK:   -8.14 KCAL/MOL
REMARK 923 INTER-LIGAND FREE ENERGY PREDICTED BY IDOCK:   -7.07 KCAL/MOL
REMARK 924 INTRA-LIGAND FREE ENERGY PREDICTED BY IDOCK:   -1.07 KCAL/MOL
REMARK 927      BINDING AFFINITY PREDICTED BY RF-SCORE:    0.00 PKD
ROOT
HETATM    1  C   UNL     1      -6.249  20.193  68.212  1.00  0.00    -0.316 C  
HETATM    2  C   UNL     1      -7.200  19.128  67.689  1.00  0.00    -0.246 C  
ENDROOT
BRANCH   2   3
HETATM    3  C   UNL     1      -8.653  19.546  67.881  1.00  0.00    -0.357 C  
BRANCH   3   4
HETATM    4  C   UNL     1      -9.303  19.917  66.549  1.00  0.00    -0.501 C  
BRANCH   4   5
HETATM    5  C   UNL     1     -10.523  19.043  66.300  1.00  0.00    -0.534 C  
BRANCH   5   6
HETATM    6  C   UNL     1     -10.320  17.611  66.796  1.00  0.00    -0.331 C  
BRANCH   6   7
HETATM    7  C   UNL     1     -10.622  16.647  65.653  1.00  0.00    -0.282 C  
BRANCH   7   8
HETATM    8  C   UNL     1      -9.810  15.359  65.748  1.00  0.00    -0.364 C  
BRANCH   8   9
HETATM    9  N   UNL     1     -10.680  14.121  66.110  1.00  0.00    -0.293 N  
HETATM   10  C   UNL     1     -12.094  14.563  66.486  1.00  0.00    -0.309 C  
HETATM   11  C   UNL     1     -10.737  13.154  64.927  1.00  0.00    -0.346 C  
BRANCH   9  12
HETATM   12  C   UNL     1      -9.988  13.442  67.325  1.00  0.00    -0.232 C  
BRANCH  12  13
HETATM   13  C   UNL     1     -10.596  13.857  68.661  1.00  0.00    -0.265 C  
BRANCH  13  14
HETATM   14  C   UNL     1      -9.843  15.018  69.309  1.00  0.00    -0.200 C  
BRANCH  14  15
HETATM   15  C   UNL     1     -10.851  15.921  70.019  1.00  0.00    -0.356 C  
BRANCH  15  16
HETATM   16  C   UNL     1     -11.940  15.125  70.726  1.00  0.00    -0.376 C  
BRANCH  16  17
HETATM   17  C   UNL     1     -11.800  15.269  72.240  1.00  0.00    -0.529 C  
BRANCH  17  18
HETATM   18  C   UNL     1     -13.093  14.889  72.954  1.00  0.00    -0.586 C  
HETATM   19  C   UNL     1     -14.309  15.287  72.134  1.00  0.00    -0.651 C  
ENDBRANCH  17  18
ENDBRANCH  16  17
ENDBRANCH  15  16
ENDBRANCH  14  15
ENDBRANCH  13  14
ENDBRANCH  12  13
ENDBRANCH   9  12
ENDBRANCH   8   9
ENDBRANCH   7   8
ENDBRANCH   6   7
ENDBRANCH   5   6
ENDBRANCH   4   5
ENDBRANCH   3   4
ENDBRANCH   2   3
TORSDOF 14
ENDMDL
MODEL       77
REMARK 921   NORMALIZED FREE ENERGY PREDICTED BY IDOCK:   -3.52 KCAL/MOL
REMARK 922        TOTAL FREE ENERGY PREDICTED BY IDOCK:   -8.13 KCAL/MOL
REMARK 923 INTER-LIGAND FREE ENERGY PREDICTED BY IDOCK:   -6.25 KCAL/MOL
REMARK 924 INTRA-LIGAND FREE ENERGY PREDICTED BY IDOCK:   -1.87 KCAL/MOL
REMARK 927      BINDING AFFINITY PREDICTED BY RF-SCORE:    0.00 PKD
ROOT
HETATM    1  C   UNL     1      -8.402   9.049  63.207  1.00  0.00    -0.189 C  
HETATM    2  C   UNL     1      -9.415  10.056  63.728  1.00  0.00    -0.267 C  
ENDROOT
BRANCH   2   3
HETATM    3  C   UNL     1      -9.437  11.310  62.864  1.00  0.00    -0.385 C  
BRANCH   3   4
HETATM    4  C   UNL     1     -10.347  12.381  63.464  1.00  0.00    -0.397 C  
BRANCH   4   5
HETATM    5  C   UNL     1     -11.762  11.843  63.614  1.00  0.00    -0.572 C  
BRANCH   5   6
HETATM    6  C   UNL     1     -12.526  12.533  64.744  1.00  0.00    -0.532 C  
BRANCH   6   7
HETATM    7  C   UNL     1     -11.815  13.836  65.095  1.00  0.00    -0.365 C  
BRANCH   7   8
HETATM    8  C   UNL     1     -12.017  14.235  66.554  1.00  0.00    -0.427 C  
BRANCH   8   9
HETATM    9  N   UNL     1     -10.722  14.789  67.213  1.00  0.00    -0.288 N  
HETATM   10  C   UNL     1      -9.510  14.484  66.334  1.00  0.00    -0.291 C  
HETATM   11  C   UNL     1     -10.843  16.300  67.422  1.00  0.00    -0.242 C  
BRANCH   9  12
HETATM   12  C   UNL     1     -10.588  14.068  68.584  1.00  0.00    -0.257 C  
BRANCH  12  13
HETATM   13  C   UNL     1     -11.936  13.670  69.177  1.00  0.00    -0.394 C  
BRANCH  13  14
HETATM   14  C   UNL     1     -11.857  12.382  69.993  1.00  0.00    -0.363 C  
BRANCH  14  15
HETATM   15  C   UNL     1     -12.137  11.197  69.070  1.00  0.00    -0.315 C  
BRANCH  15  16
HETATM   16  C   UNL     1     -11.046  10.138  69.145  1.00  0.00    -0.257 C  
BRANCH  16  17
HETATM   17  C   UNL     1     -10.658   9.680  67.740  1.00  0.00    -0.320 C  
BRANCH  17  18
HETATM   18  C   UNL     1     -10.038  10.818  66.938  1.00  0.00    -0.255 C  
HETATM   19  C   UNL     1      -8.638  11.138  67.433  1.00  0.00    -0.137 C  
ENDBRANCH  17  18
ENDBRANCH  16  17
ENDBRANCH  15  16
ENDBRANCH  14  15
ENDBRANCH  13  14
ENDBRANCH  12  13
ENDBRANCH   9  12
ENDBRANCH   8   9
ENDBRANCH   7   8
ENDBRANCH   6   7
ENDBRANCH   5   6
ENDBRANCH   4   5
ENDBRANCH   3   4
ENDBRANCH   2   3
TORSDOF 14
ENDMDL
MODEL       78
REMARK 921   NORMALIZED FREE ENERGY PREDICTED BY IDOCK:   -3.49 KCAL/MOL
REMARK 922        TOTAL FREE ENERGY PREDICTED BY IDOCK:   -8.08 KCAL/MOL
REMARK 923 INTER-LIGAND FREE ENERGY PREDICTED BY IDOCK:   -7.16 KCAL/MOL
REMARK 924 INTRA-LIGAND FREE ENERGY PREDICTED BY IDOCK:   -0.93 KCAL/MOL
REMARK 927      BINDING AFFINITY PREDICTED BY RF-SCORE:    0.00 PKD
ROOT
HETATM    1  C   UNL     1     -10.275  20.297  68.330  1.00  0.00    -0.373 C  
HETATM    2  C   UNL     1     -10.093  20.093  66.834  1.00  0.00    -0.592 C  
ENDROOT
BRANCH   2   3
HETATM    3  C   UNL     1     -10.303  18.634  66.449  1.00  0.00    -0.472 C  
BRANCH   3   4
HETATM    4  C   UNL     1     -10.371  17.738  67.686  1.00  0.00    -0.375 C  
BRANCH   4   5
HETATM    5  C   UNL     1     -10.076  16.295  67.305  1.00  0.00    -0.264 C  
BRANCH   5   6
HETATM    6  C   UNL     1      -9.736  16.146  65.822  1.00  0.00    -0.325 C  
BRANCH   6   7
HETATM    7  C   UNL     1     -10.739  15.192  65.181  1.00  0.00    -0.442 C  
BRANCH   7   8
HETATM    8  C   UNL     1     -11.467  14.334  66.212  1.00  0.00    -0.357 C  
BRANCH   8   9
HETATM    9  N   UNL     1     -11.168  12.816  66.055  1.00  0.00    -0.288 N  
HETATM   10  C   UNL     1     -12.026  12.222  64.938  1.00  0.00    -0.357 C  
HETATM   11  C   UNL     1      -9.686  12.602  65.739  1.00  0.00    -0.175 C  
BRANCH   9  12
HETATM   12  C   UNL     1     -11.526  12.158  67.417  1.00  0.00    -0.345 C  
BRANCH  12  13
HETATM   13  C   UNL     1     -11.233  13.065  68.608  1.00  0.00    -0.316 C  
BRANCH  13  14
HETATM   14  C   UNL     1     -12.032  12.675  69.849  1.00  0.00    -0.365 C  
BRANCH  14  15
HETATM   15  C   UNL     1     -11.662  11.246  70.243  1.00  0.00    -0.415 C  
BRANCH  15  16
HETATM   16  C   UNL     1     -12.557  10.704  71.349  1.00  0.00    -0.526 C  
BRANCH  16  17
HETATM   17  C   UNL     1     -11.968   9.415  71.919  1.00  0.00    -0.416 C  
BRANCH  17  18
HETATM   18  C   UNL     1     -10.660   9.048  71.226  1.00  0.00    -0.378 C  
HETATM   19  C   UNL     1      -9.650   8.496  72.218  1.00  0.00    -0.377 C  
ENDBRANCH  17  18
ENDBRANCH  16  17
ENDBRANCH  15  16
ENDBRANCH  14  15
ENDBRANCH  13  14
ENDBRANCH  12  13
ENDBRANCH   9  12
ENDBRANCH   8   9
ENDBRANCH   7   8
ENDBRANCH   6   7
ENDBRANCH   5   6
ENDBRANCH   4   5
ENDBRANCH   3   4
ENDBRANCH   2   3
TORSDOF 14
ENDMDL
MODEL       79
REMARK 921   NORMALIZED FREE ENERGY PREDICTED BY IDOCK:   -3.49 KCAL/MOL
REMARK 922        TOTAL FREE ENERGY PREDICTED BY IDOCK:   -8.07 KCAL/MOL
REMARK 923 INTER-LIGAND FREE ENERGY PREDICTED BY IDOCK:   -6.63 KCAL/MOL
REMARK 924 INTRA-LIGAND FREE ENERGY PREDICTED BY IDOCK:   -1.45 KCAL/MOL
REMARK 927      BINDING AFFINITY PREDICTED BY RF-SCORE:    0.00 PKD
ROOT
HETATM    1  C   UNL     1     -14.155   7.264  71.482  1.00  0.00    -0.515 C  
HETATM    2  C   UNL     1     -14.295   8.641  72.110  1.00  0.00    -0.518 C  
ENDROOT
BRANCH   2   3
HETATM    3  C   UNL     1     -12.999   9.435  71.990  1.00  0.00    -0.508 C  
BRANCH   3   4
HETATM    4  C   UNL     1     -13.276  10.932  71.865  1.00  0.00    -0.508 C  
BRANCH   4   5
HETATM    5  C   UNL     1     -12.374  11.546  70.804  1.00  0.00    -0.472 C  
BRANCH   5   6
HETATM    6  C   UNL     1     -11.515  10.497  70.098  1.00  0.00    -0.405 C  
BRANCH   6   7
HETATM    7  C   UNL     1     -11.080  11.048  68.744  1.00  0.00    -0.293 C  
BRANCH   7   8
HETATM    8  C   UNL     1      -9.602  10.794  68.460  1.00  0.00    -0.183 C  
BRANCH   8   9
HETATM    9  N   UNL     1      -9.178  11.232  67.028  1.00  0.00    -0.163 N  
HETATM   10  C   UNL     1      -8.588  12.641  67.061  1.00  0.00    -0.181 C  
HETATM   11  C   UNL     1      -8.149  10.252  66.462  1.00  0.00    -0.121 C  
BRANCH   9  12
HETATM   12  C   UNL     1     -10.471  11.209  66.165  1.00  0.00    -0.253 C  
BRANCH  12  13
HETATM   13  C   UNL     1     -10.679  12.499  65.378  1.00  0.00    -0.312 C  
BRANCH  13  14
HETATM   14  C   UNL     1     -12.135  12.960  65.386  1.00  0.00    -0.501 C  
BRANCH  14  15
HETATM   15  C   UNL     1     -12.363  13.846  66.609  1.00  0.00    -0.411 C  
BRANCH  15  16
HETATM   16  C   UNL     1     -11.329  14.959  66.715  1.00  0.00    -0.328 C  
BRANCH  16  17
HETATM   17  C   UNL     1     -11.390  15.606  68.097  1.00  0.00    -0.340 C  
BRANCH  17  18
HETATM   18  C   UNL     1     -11.179  14.575  69.201  1.00  0.00    -0.294 C  
HETATM   19  C   UNL     1     -10.912  15.250  70.537  1.00  0.00    -0.318 C  
ENDBRANCH  17  18
ENDBRANCH  16  17
ENDBRANCH  15  16
ENDBRANCH  14  15
ENDBRANCH  13  14
ENDBRANCH  12  13
ENDBRANCH   9  12
ENDBRANCH   8   9
ENDBRANCH   7   8
ENDBRANCH   6   7
ENDBRANCH   5   6
ENDBRANCH   4   5
ENDBRANCH   3   4
ENDBRANCH   2   3
TORSDOF 14
ENDMDL
MODEL       80
REMARK 921   NORMALIZED FREE ENERGY PREDICTED BY IDOCK:   -3.48 KCAL/MOL
REMARK 922        TOTAL FREE ENERGY PREDICTED BY IDOCK:   -8.07 KCAL/MOL
REMARK 923 INTER-LIGAND FREE ENERGY PREDICTED BY IDOCK:   -5.89 KCAL/MOL
REMARK 924 INTRA-LIGAND FREE ENERGY PREDICTED BY IDOCK:   -2.18 KCAL/MOL
REMARK 927      BINDING AFFINITY PREDICTED BY RF-SCORE:    0.00 PKD
ROOT
HETATM    1  C   UNL     1      -8.162   8.236  72.036  1.00  0.00    -0.211 C  
HETATM    2  C   UNL     1      -7.746   9.130  70.880  1.00  0.00    -0.152 C  
ENDROOT
BRANCH   2   3
HETATM    3  C   UNL     1      -8.923   9.414  69.954  1.00  0.00    -0.215 C  
BRANCH   3   4
HETATM    4  C   UNL     1      -8.994   8.393  68.819  1.00  0.00    -0.140 C  
BRANCH   4   5
HETATM    5  C   UNL     1     -10.317   8.523  68.079  1.00  0.00    -0.272 C  
BRANCH   5   6
HETATM    6  C   UNL     1     -10.131   9.025  66.647  1.00  0.00    -0.355 C  
BRANCH   6   7
HETATM    7  C   UNL     1     -10.310  10.540  66.630  1.00  0.00    -0.295 C  
BRANCH   7   8
HETATM    8  C   UNL     1     -11.423  11.005  67.564  1.00  0.00    -0.185 C  
BRANCH   8   9
HETATM    9  N   UNL     1     -11.161  12.418  68.160  1.00  0.00    -0.244 N  
HETATM   10  C   UNL     1      -9.658  12.689  68.233  1.00  0.00    -0.208 C  
HETATM   11  C   UNL     1     -11.839  13.486  67.301  1.00  0.00    -0.385 C  
BRANCH   9  12
HETATM   12  C   UNL     1     -11.776  12.409  69.588  1.00  0.00    -0.307 C  
BRANCH  12  13
HETATM   13  C   UNL     1     -12.237  11.022  70.025  1.00  0.00    -0.418 C  
BRANCH  13  14
HETATM   14  C   UNL     1     -12.720  10.997  71.473  1.00  0.00    -0.521 C  
BRANCH  14  15
HETATM   15  C   UNL     1     -13.066   9.558  71.852  1.00  0.00    -0.517 C  
BRANCH  15  16
HETATM   16  C   UNL     1     -11.834   8.664  71.903  1.00  0.00    -0.420 C  
BRANCH  16  17
HETATM   17  C   UNL     1     -12.118   7.334  71.209  1.00  0.00    -0.373 C  
BRANCH  17  18
HETATM   18  C   UNL     1     -11.320   6.198  71.839  1.00  0.00    -0.350 C  
HETATM   19  C   UNL     1     -10.384   5.558  70.826  1.00  0.00    -0.321 C  
ENDBRANCH  17  18
ENDBRANCH  16  17
ENDBRANCH  15  16
ENDBRANCH  14  15
ENDBRANCH  13  14
ENDBRANCH  12  13
ENDBRANCH   9  12
ENDBRANCH   8   9
ENDBRANCH   7   8
ENDBRANCH   6   7
ENDBRANCH   5   6
ENDBRANCH   4   5
ENDBRANCH   3   4
ENDBRANCH   2   3
TORSDOF 14
ENDMDL
MODEL       81
REMARK 921   NORMALIZED FREE ENERGY PREDICTED BY IDOCK:   -3.48 KCAL/MOL
REMARK 922        TOTAL FREE ENERGY PREDICTED BY IDOCK:   -8.07 KCAL/MOL
REMARK 923 INTER-LIGAND FREE ENERGY PREDICTED BY IDOCK:   -6.84 KCAL/MOL
REMARK 924 INTRA-LIGAND FREE ENERGY PREDICTED BY IDOCK:   -1.23 KCAL/MOL
REMARK 927      BINDING AFFINITY PREDICTED BY RF-SCORE:    0.00 PKD
ROOT
HETATM    1  C   UNL     1     -13.477  15.375  71.134  1.00  0.00    -0.565 C  
HETATM    2  C   UNL     1     -14.022  14.662  72.361  1.00  0.00    -0.578 C  
ENDROOT
BRANCH   2   3
HETATM    3  C   UNL     1     -13.647  13.185  72.350  1.00  0.00    -0.667 C  
BRANCH   3   4
HETATM    4  C   UNL     1     -12.602  12.887  71.275  1.00  0.00    -0.352 C  
BRANCH   4   5
HETATM    5  C   UNL     1     -12.575  11.397  70.970  1.00  0.00    -0.487 C  
BRANCH   5   6
HETATM    6  C   UNL     1     -12.018  11.102  69.577  1.00  0.00    -0.425 C  
BRANCH   6   7
HETATM    7  C   UNL     1     -11.875  12.416  68.816  1.00  0.00    -0.358 C  
BRANCH   7   8
HETATM    8  C   UNL     1     -11.219  12.231  67.451  1.00  0.00    -0.301 C  
BRANCH   8   9
HETATM    9  N   UNL     1      -9.975  13.142  67.250  1.00  0.00    -0.227 N  
HETATM   10  C   UNL     1     -10.279  14.230  66.220  1.00  0.00    -0.301 C  
HETATM   11  C   UNL     1      -9.573  13.784  68.579  1.00  0.00    -0.176 C  
BRANCH   9  12
HETATM   12  C   UNL     1      -8.836  12.217  66.736  1.00  0.00    -0.198 C  
BRANCH  12  13
HETATM   13  C   UNL     1      -9.037  10.756  67.128  1.00  0.00    -0.153 C  
BRANCH  13  14
HETATM   14  C   UNL     1      -8.557   9.790  66.048  1.00  0.00    -0.146 C  
BRANCH  14  15
HETATM   15  C   UNL     1      -9.587   9.764  64.919  1.00  0.00    -0.316 C  
BRANCH  15  16
HETATM   16  C   UNL     1      -9.029  10.323  63.618  1.00  0.00    -0.259 C  
BRANCH  16  17
HETATM   17  C   UNL     1     -10.078  11.188  62.922  1.00  0.00    -0.235 C  
BRANCH  17  18
HETATM   18  C   UNL     1     -11.186  11.598  63.887  1.00  0.00    -0.479 C  
HETATM   19  C   UNL     1     -11.987  12.766  63.335  1.00  0.00    -0.613 C  
ENDBRANCH  17  18
ENDBRANCH  16  17
ENDBRANCH  15  16
ENDBRANCH  14  15
ENDBRANCH  13  14
ENDBRANCH  12  13
ENDBRANCH   9  12
ENDBRANCH   8   9
ENDBRANCH   7   8
ENDBRANCH   6   7
ENDBRANCH   5   6
ENDBRANCH   4   5
ENDBRANCH   3   4
ENDBRANCH   2   3
TORSDOF 14
ENDMDL
MODEL       82
REMARK 921   NORMALIZED FREE ENERGY PREDICTED BY IDOCK:   -3.48 KCAL/MOL
REMARK 922        TOTAL FREE ENERGY PREDICTED BY IDOCK:   -8.06 KCAL/MOL
REMARK 923 INTER-LIGAND FREE ENERGY PREDICTED BY IDOCK:   -7.18 KCAL/MOL
REMARK 924 INTRA-LIGAND FREE ENERGY PREDICTED BY IDOCK:   -0.88 KCAL/MOL
REMARK 927      BINDING AFFINITY PREDICTED BY RF-SCORE:    0.00 PKD
ROOT
HETATM    1  C   UNL     1     -11.271  15.478  64.873  1.00  0.00    -0.396 C  
HETATM    2  C   UNL     1     -11.833  14.069  64.973  1.00  0.00    -0.383 C  
ENDROOT
BRANCH   2   3
HETATM    3  C   UNL     1     -12.118  13.492  63.592  1.00  0.00    -0.459 C  
BRANCH   3   4
HETATM    4  C   UNL     1     -11.893  11.981  63.565  1.00  0.00    -0.587 C  
BRANCH   4   5
HETATM    5  C   UNL     1     -10.408  11.669  63.675  1.00  0.00    -0.466 C  
BRANCH   5   6
HETATM    6  C   UNL     1     -10.132  10.493  64.612  1.00  0.00    -0.408 C  
BRANCH   6   7
HETATM    7  C   UNL     1      -9.803  11.037  65.999  1.00  0.00    -0.273 C  
BRANCH   7   8
HETATM    8  C   UNL     1     -10.913  10.765  67.010  1.00  0.00    -0.227 C  
BRANCH   8   9
HETATM    9  N   UNL     1     -10.832  11.686  68.260  1.00  0.00    -0.207 N  
HETATM   10  C   UNL     1      -9.443  12.316  68.362  1.00  0.00    -0.175 C  
HETATM   11  C   UNL     1     -11.894  12.784  68.175  1.00  0.00    -0.324 C  
BRANCH   9  12
HETATM   12  C   UNL     1     -11.101  10.775  69.491  1.00  0.00    -0.278 C  
BRANCH  12  13
HETATM   13  C   UNL     1     -12.037  11.418  70.510  1.00  0.00    -0.487 C  
BRANCH  13  14
HETATM   14  C   UNL     1     -12.622  10.402  71.488  1.00  0.00    -0.544 C  
BRANCH  14  15
HETATM   15  C   UNL     1     -11.637   9.244  71.641  1.00  0.00    -0.463 C  
BRANCH  15  16
HETATM   16  C   UNL     1     -12.241   8.072  72.404  1.00  0.00    -0.337 C  
BRANCH  16  17
HETATM   17  C   UNL     1     -12.352   6.851  71.493  1.00  0.00    -0.420 C  
BRANCH  17  18
HETATM   18  C   UNL     1     -11.507   7.019  70.236  1.00  0.00    -0.333 C  
HETATM   19  C   UNL     1     -10.745   5.744  69.913  1.00  0.00    -0.412 C  
ENDBRANCH  17  18
ENDBRANCH  16  17
ENDBRANCH  15  16
ENDBRANCH  14  15
ENDBRANCH  13  14
ENDBRANCH  12  13
ENDBRANCH   9  12
ENDBRANCH   8   9
ENDBRANCH   7   8
ENDBRANCH   6   7
ENDBRANCH   5   6
ENDBRANCH   4   5
ENDBRANCH   3   4
ENDBRANCH   2   3
TORSDOF 14
ENDMDL
MODEL       83
REMARK 921   NORMALIZED FREE ENERGY PREDICTED BY IDOCK:   -3.47 KCAL/MOL
REMARK 922        TOTAL FREE ENERGY PREDICTED BY IDOCK:   -8.05 KCAL/MOL
REMARK 923 INTER-LIGAND FREE ENERGY PREDICTED BY IDOCK:   -6.95 KCAL/MOL
REMARK 924 INTRA-LIGAND FREE ENERGY PREDICTED BY IDOCK:   -1.11 KCAL/MOL
REMARK 927      BINDING AFFINITY PREDICTED BY RF-SCORE:    0.00 PKD
ROOT
HETATM    1  C   UNL     1     -11.217   6.514  72.510  1.00  0.00    -0.298 C  
HETATM    2  C   UNL     1     -11.382   6.780  71.022  1.00  0.00    -0.356 C  
ENDROOT
BRANCH   2   3
HETATM    3  C   UNL     1     -11.465   8.275  70.738  1.00  0.00    -0.268 C  
BRANCH   3   4
HETATM    4  C   UNL     1     -11.917   9.050  71.975  1.00  0.00    -0.433 C  
BRANCH   4   5
HETATM    5  C   UNL     1     -13.079   9.967  71.623  1.00  0.00    -0.547 C  
BRANCH   5   6
HETATM    6  C   UNL     1     -12.793  10.814  70.383  1.00  0.00    -0.285 C  
BRANCH   6   7
HETATM    7  C   UNL     1     -12.315  12.193  70.829  1.00  0.00    -0.391 C  
BRANCH   7   8
HETATM    8  C   UNL     1     -13.334  12.904  71.714  1.00  0.00    -0.359 C  
BRANCH   8   9
HETATM    9  N   UNL     1     -13.075  14.433  71.826  1.00  0.00    -0.335 N  
HETATM   10  C   UNL     1     -14.164  15.209  71.085  1.00  0.00    -0.336 C  
HETATM   11  C   UNL     1     -13.046  14.856  73.295  1.00  0.00    -0.469 C  
BRANCH   9  12
HETATM   12  C   UNL     1     -11.690  14.690  71.168  1.00  0.00    -0.277 C  
BRANCH  12  13
HETATM   13  C   UNL     1     -11.515  16.131  70.699  1.00  0.00    -0.386 C  
BRANCH  13  14
HETATM   14  C   UNL     1     -10.964  16.219  69.278  1.00  0.00    -0.317 C  
BRANCH  14  15
HETATM   15  C   UNL     1     -11.900  15.459  68.339  1.00  0.00    -0.264 C  
BRANCH  15  16
HETATM   16  C   UNL     1     -11.172  14.384  67.544  1.00  0.00    -0.329 C  
BRANCH  16  17
HETATM   17  C   UNL     1     -12.126  13.240  67.208  1.00  0.00    -0.341 C  
BRANCH  17  18
HETATM   18  C   UNL     1     -12.152  12.963  65.709  1.00  0.00    -0.513 C  
HETATM   19  C   UNL     1     -12.048  14.252  64.911  1.00  0.00    -0.442 C  
ENDBRANCH  17  18
ENDBRANCH  16  17
ENDBRANCH  15  16
ENDBRANCH  14  15
ENDBRANCH  13  14
ENDBRANCH  12  13
ENDBRANCH   9  12
ENDBRANCH   8   9
ENDBRANCH   7   8
ENDBRANCH   6   7
ENDBRANCH   5   6
ENDBRANCH   4   5
ENDBRANCH   3   4
ENDBRANCH   2   3
TORSDOF 14
ENDMDL
MODEL       84
REMARK 921   NORMALIZED FREE ENERGY PREDICTED BY IDOCK:   -3.47 KCAL/MOL
REMARK 922        TOTAL FREE ENERGY PREDICTED BY IDOCK:   -8.05 KCAL/MOL
REMARK 923 INTER-LIGAND FREE ENERGY PREDICTED BY IDOCK:   -7.00 KCAL/MOL
REMARK 924 INTRA-LIGAND FREE ENERGY PREDICTED BY IDOCK:   -1.05 KCAL/MOL
REMARK 927      BINDING AFFINITY PREDICTED BY RF-SCORE:    0.00 PKD
ROOT
HETATM    1  C   UNL     1     -12.511  13.503  65.232  1.00  0.00    -0.525 C  
HETATM    2  C   UNL     1     -12.292  12.315  64.309  1.00  0.00    -0.519 C  
ENDROOT
BRANCH   2   3
HETATM    3  C   UNL     1     -10.850  12.257  63.821  1.00  0.00    -0.495 C  
BRANCH   3   4
HETATM    4  C   UNL     1     -10.223  10.892  64.107  1.00  0.00    -0.424 C  
BRANCH   4   5
HETATM    5  C   UNL     1     -10.271  10.595  65.599  1.00  0.00    -0.319 C  
BRANCH   5   6
HETATM    6  C   UNL     1      -9.665   9.234  65.937  1.00  0.00    -0.355 C  
BRANCH   6   7
HETATM    7  C   UNL     1     -10.436   8.629  67.106  1.00  0.00    -0.360 C  
BRANCH   7   8
HETATM    8  C   UNL     1     -10.523   7.108  67.022  1.00  0.00    -0.322 C  
BRANCH   8   9
HETATM    9  N   UNL     1     -10.118   6.405  68.349  1.00  0.00    -0.148 N  
HETATM   10  C   UNL     1      -9.666   4.972  68.071  1.00  0.00    -0.151 C  
HETATM   11  C   UNL     1      -8.992   7.181  69.033  1.00  0.00    -0.134 C  
BRANCH   9  12
HETATM   12  C   UNL     1     -11.389   6.403  69.246  1.00  0.00    -0.338 C  
BRANCH  12  13
HETATM   13  C   UNL     1     -11.066   6.547  70.730  1.00  0.00    -0.354 C  
BRANCH  13  14
HETATM   14  C   UNL     1     -12.278   6.978  71.552  1.00  0.00    -0.407 C  
BRANCH  14  15
HETATM   15  C   UNL     1     -11.895   8.199  72.388  1.00  0.00    -0.448 C  
BRANCH  15  16
HETATM   16  C   UNL     1     -11.221   9.280  71.554  1.00  0.00    -0.457 C  
BRANCH  16  17
HETATM   17  C   UNL     1     -12.273  10.165  70.888  1.00  0.00    -0.455 C  
BRANCH  17  18
HETATM   18  C   UNL     1     -11.728  10.815  69.621  1.00  0.00    -0.395 C  
HETATM   19  C   UNL     1     -11.817  12.330  69.700  1.00  0.00    -0.393 C  
ENDBRANCH  17  18
ENDBRANCH  16  17
ENDBRANCH  15  16
ENDBRANCH  14  15
ENDBRANCH  13  14
ENDBRANCH  12  13
ENDBRANCH   9  12
ENDBRANCH   8   9
ENDBRANCH   7   8
ENDBRANCH   6   7
ENDBRANCH   5   6
ENDBRANCH   4   5
ENDBRANCH   3   4
ENDBRANCH   2   3
TORSDOF 14
ENDMDL
MODEL       85
REMARK 921   NORMALIZED FREE ENERGY PREDICTED BY IDOCK:   -3.47 KCAL/MOL
REMARK 922        TOTAL FREE ENERGY PREDICTED BY IDOCK:   -8.05 KCAL/MOL
REMARK 923 INTER-LIGAND FREE ENERGY PREDICTED BY IDOCK:   -6.78 KCAL/MOL
REMARK 924 INTRA-LIGAND FREE ENERGY PREDICTED BY IDOCK:   -1.27 KCAL/MOL
REMARK 927      BINDING AFFINITY PREDICTED BY RF-SCORE:    0.00 PKD
ROOT
HETATM    1  C   UNL     1     -11.905  15.863  72.412  1.00  0.00    -0.618 C  
HETATM    2  C   UNL     1     -13.232  15.303  72.898  1.00  0.00    -0.610 C  
ENDROOT
BRANCH   2   3
HETATM    3  C   UNL     1     -13.644  14.083  72.083  1.00  0.00    -0.582 C  
BRANCH   3   4
HETATM    4  C   UNL     1     -12.528  13.646  71.136  1.00  0.00    -0.442 C  
BRANCH   4   5
HETATM    5  C   UNL     1     -12.505  12.130  71.015  1.00  0.00    -0.369 C  
BRANCH   5   6
HETATM    6  C   UNL     1     -11.883  11.663  69.699  1.00  0.00    -0.419 C  
BRANCH   6   7
HETATM    7  C   UNL     1     -11.850  12.839  68.727  1.00  0.00    -0.346 C  
BRANCH   7   8
HETATM    8  C   UNL     1     -10.508  12.965  68.011  1.00  0.00    -0.230 C  
BRANCH   8   9
HETATM    9  N   UNL     1     -10.643  12.921  66.463  1.00  0.00    -0.257 N  
HETATM   10  C   UNL     1     -12.092  12.637  66.067  1.00  0.00    -0.364 C  
HETATM   11  C   UNL     1     -10.192  14.251  65.857  1.00  0.00    -0.324 C  
BRANCH   9  12
HETATM   12  C   UNL     1      -9.718  11.770  65.977  1.00  0.00    -0.232 C  
BRANCH  12  13
HETATM   13  C   UNL     1     -10.401  10.406  66.014  1.00  0.00    -0.262 C  
BRANCH  13  14
HETATM   14  C   UNL     1      -9.672   9.413  66.917  1.00  0.00    -0.242 C  
BRANCH  14  15
HETATM   15  C   UNL     1     -10.587   8.215  67.168  1.00  0.00    -0.355 C  
BRANCH  15  16
HETATM   16  C   UNL     1     -10.356   7.592  68.538  1.00  0.00    -0.225 C  
BRANCH  16  17
HETATM   17  C   UNL     1     -10.443   8.662  69.625  1.00  0.00    -0.220 C  
BRANCH  17  18
HETATM   18  C   UNL     1     -11.338   8.213  70.775  1.00  0.00    -0.283 C  
HETATM   19  C   UNL     1     -10.884   8.821  72.092  1.00  0.00    -0.400 C  
ENDBRANCH  17  18
ENDBRANCH  16  17
ENDBRANCH  15  16
ENDBRANCH  14  15
ENDBRANCH  13  14
ENDBRANCH  12  13
ENDBRANCH   9  12
ENDBRANCH   8   9
ENDBRANCH   7   8
ENDBRANCH   6   7
ENDBRANCH   5   6
ENDBRANCH   4   5
ENDBRANCH   3   4
ENDBRANCH   2   3
TORSDOF 14
ENDMDL
MODEL       86
REMARK 921   NORMALIZED FREE ENERGY PREDICTED BY IDOCK:   -3.47 KCAL/MOL
REMARK 922        TOTAL FREE ENERGY PREDICTED BY IDOCK:   -8.04 KCAL/MOL
REMARK 923 INTER-LIGAND FREE ENERGY PREDICTED BY IDOCK:   -7.17 KCAL/MOL
REMARK 924 INTRA-LIGAND FREE ENERGY PREDICTED BY IDOCK:   -0.88 KCAL/MOL
REMARK 927      BINDING AFFINITY PREDICTED BY RF-SCORE:    0.00 PKD
ROOT
HETATM    1  C   UNL     1     -11.366   5.982  71.929  1.00  0.00    -0.335 C  
HETATM    2  C   UNL     1     -11.990   7.134  71.158  1.00  0.00    -0.381 C  
ENDROOT
BRANCH   2   3
HETATM    3  C   UNL     1     -13.443   7.346  71.567  1.00  0.00    -0.445 C  
BRANCH   3   4
HETATM    4  C   UNL     1     -13.703   8.801  71.954  1.00  0.00    -0.477 C  
BRANCH   4   5
HETATM    5  C   UNL     1     -12.437   9.626  71.774  1.00  0.00    -0.487 C  
BRANCH   5   6
HETATM    6  C   UNL     1     -12.658  10.831  70.859  1.00  0.00    -0.498 C  
BRANCH   6   7
HETATM    7  C   UNL     1     -11.464  10.958  69.918  1.00  0.00    -0.402 C  
BRANCH   7   8
HETATM    8  C   UNL     1     -11.884  11.230  68.476  1.00  0.00    -0.285 C  
BRANCH   8   9
HETATM    9  N   UNL     1     -11.253  12.528  67.897  1.00  0.00    -0.246 N  
HETATM   10  C   UNL     1      -9.729  12.413  67.885  1.00  0.00    -0.204 C  
HETATM   11  C   UNL     1     -11.766  12.773  66.476  1.00  0.00    -0.400 C  
BRANCH   9  12
HETATM   12  C   UNL     1     -11.698  13.685  68.834  1.00  0.00    -0.338 C  
BRANCH  12  13
HETATM   13  C   UNL     1     -11.650  15.050  68.153  1.00  0.00    -0.360 C  
BRANCH  13  14
HETATM   14  C   UNL     1     -10.873  16.081  68.968  1.00  0.00    -0.283 C  
BRANCH  14  15
HETATM   15  C   UNL     1      -9.463  16.202  68.392  1.00  0.00    -0.210 C  
BRANCH  15  16
HETATM   16  C   UNL     1      -9.226  17.553  67.730  1.00  0.00    -0.253 C  
BRANCH  16  17
HETATM   17  C   UNL     1      -9.846  18.668  68.570  1.00  0.00    -0.427 C  
BRANCH  17  18
HETATM   18  C   UNL     1     -10.627  19.647  67.700  1.00  0.00    -0.556 C  
HETATM   19  C   UNL     1      -9.821  20.061  66.480  1.00  0.00    -0.581 C  
ENDBRANCH  17  18
ENDBRANCH  16  17
ENDBRANCH  15  16
ENDBRANCH  14  15
ENDBRANCH  13  14
ENDBRANCH  12  13
ENDBRANCH   9  12
ENDBRANCH   8   9
ENDBRANCH   7   8
ENDBRANCH   6   7
ENDBRANCH   5   6
ENDBRANCH   4   5
ENDBRANCH   3   4
ENDBRANCH   2   3
TORSDOF 14
ENDMDL
MODEL       87
REMARK 921   NORMALIZED FREE ENERGY PREDICTED BY IDOCK:   -3.45 KCAL/MOL
REMARK 922        TOTAL FREE ENERGY PREDICTED BY IDOCK:   -8.01 KCAL/MOL
REMARK 923 INTER-LIGAND FREE ENERGY PREDICTED BY IDOCK:   -6.68 KCAL/MOL
REMARK 924 INTRA-LIGAND FREE ENERGY PREDICTED BY IDOCK:   -1.33 KCAL/MOL
REMARK 927      BINDING AFFINITY PREDICTED BY RF-SCORE:    0.00 PKD
ROOT
HETATM    1  C   UNL     1      -9.066  10.817  62.363  1.00  0.00    -0.332 C  
HETATM    2  C   UNL     1      -9.173  10.428  63.829  1.00  0.00    -0.302 C  
ENDROOT
BRANCH   2   3
HETATM    3  C   UNL     1     -10.465  10.953  64.444  1.00  0.00    -0.403 C  
BRANCH   3   4
HETATM    4  C   UNL     1     -11.159  11.945  63.511  1.00  0.00    -0.506 C  
BRANCH   4   5
HETATM    5  C   UNL     1     -12.301  12.639  64.240  1.00  0.00    -0.517 C  
BRANCH   5   6
HETATM    6  C   UNL     1     -12.065  14.142  64.385  1.00  0.00    -0.486 C  
BRANCH   6   7
HETATM    7  C   UNL     1     -11.638  14.436  65.820  1.00  0.00    -0.353 C  
BRANCH   7   8
HETATM    8  C   UNL     1     -12.222  13.440  66.817  1.00  0.00    -0.312 C  
BRANCH   8   9
HETATM    9  N   UNL     1     -11.211  13.030  67.925  1.00  0.00    -0.257 N  
HETATM   10  C   UNL     1     -11.415  13.891  69.171  1.00  0.00    -0.299 C  
HETATM   11  C   UNL     1     -11.390  11.553  68.281  1.00  0.00    -0.286 C  
BRANCH   9  12
HETATM   12  C   UNL     1      -9.794  13.269  67.332  1.00  0.00    -0.227 C  
BRANCH  12  13
HETATM   13  C   UNL     1      -8.951  14.218  68.178  1.00  0.00    -0.189 C  
BRANCH  13  14
HETATM   14  C   UNL     1      -8.258  15.289  67.339  1.00  0.00    -0.207 C  
BRANCH  14  15
HETATM   15  C   UNL     1      -8.919  16.638  67.619  1.00  0.00    -0.206 C  
BRANCH  15  16
HETATM   16  C   UNL     1      -9.355  17.341  66.341  1.00  0.00    -0.281 C  
BRANCH  16  17
HETATM   17  C   UNL     1     -10.528  18.277  66.628  1.00  0.00    -0.382 C  
BRANCH  17  18
HETATM   18  C   UNL     1     -10.145  19.734  66.392  1.00  0.00    -0.600 C  
HETATM   19  C   UNL     1      -9.846  20.441  67.704  1.00  0.00    -0.538 C  
ENDBRANCH  17  18
ENDBRANCH  16  17
ENDBRANCH  15  16
ENDBRANCH  14  15
ENDBRANCH  13  14
ENDBRANCH  12  13
ENDBRANCH   9  12
ENDBRANCH   8   9
ENDBRANCH   7   8
ENDBRANCH   6   7
ENDBRANCH   5   6
ENDBRANCH   4   5
ENDBRANCH   3   4
ENDBRANCH   2   3
TORSDOF 14
ENDMDL
MODEL       88
REMARK 921   NORMALIZED FREE ENERGY PREDICTED BY IDOCK:   -3.45 KCAL/MOL
REMARK 922        TOTAL FREE ENERGY PREDICTED BY IDOCK:   -8.01 KCAL/MOL
REMARK 923 INTER-LIGAND FREE ENERGY PREDICTED BY IDOCK:   -6.62 KCAL/MOL
REMARK 924 INTRA-LIGAND FREE ENERGY PREDICTED BY IDOCK:   -1.40 KCAL/MOL
REMARK 927      BINDING AFFINITY PREDICTED BY RF-SCORE:    0.00 PKD
ROOT
HETATM    1  C   UNL     1     -13.112   9.774  71.629  1.00  0.00    -0.516 C  
HETATM    2  C   UNL     1     -11.765  10.230  71.092  1.00  0.00    -0.430 C  
ENDROOT
BRANCH   2   3
HETATM    3  C   UNL     1     -11.936  11.272  69.993  1.00  0.00    -0.447 C  
BRANCH   3   4
HETATM    4  C   UNL     1     -12.318  12.633  70.575  1.00  0.00    -0.350 C  
BRANCH   4   5
HETATM    5  C   UNL     1     -11.932  13.743  69.609  1.00  0.00    -0.399 C  
BRANCH   5   6
HETATM    6  C   UNL     1     -11.431  14.992  70.333  1.00  0.00    -0.321 C  
BRANCH   6   7
HETATM    7  C   UNL     1     -11.507  16.179  69.377  1.00  0.00    -0.296 C  
BRANCH   7   8
HETATM    8  C   UNL     1     -11.071  15.814  67.961  1.00  0.00    -0.337 C  
BRANCH   8   9
HETATM    9  N   UNL     1      -9.829  16.621  67.484  1.00  0.00    -0.249 N  
HETATM   10  C   UNL     1     -10.194  17.483  66.276  1.00  0.00    -0.355 C  
HETATM   11  C   UNL     1      -9.312  17.508  68.617  1.00  0.00    -0.277 C  
BRANCH   9  12
HETATM   12  C   UNL     1      -8.752  15.571  67.091  1.00  0.00    -0.211 C  
BRANCH  12  13
HETATM   13  C   UNL     1      -9.349  14.321  66.453  1.00  0.00    -0.270 C  
BRANCH  13  14
HETATM   14  C   UNL     1      -8.842  13.035  67.102  1.00  0.00    -0.218 C  
BRANCH  14  15
HETATM   15  C   UNL     1      -9.887  11.939  66.905  1.00  0.00    -0.217 C  
BRANCH  15  16
HETATM   16  C   UNL     1     -10.700  12.140  65.634  1.00  0.00    -0.312 C  
BRANCH  16  17
HETATM   17  C   UNL     1     -12.116  12.597  65.979  1.00  0.00    -0.429 C  
BRANCH  17  18
HETATM   18  C   UNL     1     -12.717  13.436  64.857  1.00  0.00    -0.365 C  
HETATM   19  C   UNL     1     -12.104  13.075  63.514  1.00  0.00    -0.617 C  
ENDBRANCH  17  18
ENDBRANCH  16  17
ENDBRANCH  15  16
ENDBRANCH  14  15
ENDBRANCH  13  14
ENDBRANCH  12  13
ENDBRANCH   9  12
ENDBRANCH   8   9
ENDBRANCH   7   8
ENDBRANCH   6   7
ENDBRANCH   5   6
ENDBRANCH   4   5
ENDBRANCH   3   4
ENDBRANCH   2   3
TORSDOF 14
ENDMDL
MODEL       89
REMARK 921   NORMALIZED FREE ENERGY PREDICTED BY IDOCK:   -3.44 KCAL/MOL
REMARK 922        TOTAL FREE ENERGY PREDICTED BY IDOCK:   -7.99 KCAL/MOL
REMARK 923 INTER-LIGAND FREE ENERGY PREDICTED BY IDOCK:   -7.21 KCAL/MOL
REMARK 924 INTRA-LIGAND FREE ENERGY PREDICTED BY IDOCK:   -0.79 KCAL/MOL
REMARK 927      BINDING AFFINITY PREDICTED BY RF-SCORE:    0.00 PKD
ROOT
HETATM    1  C   UNL     1      -7.414  19.573  68.378  1.00  0.00    -0.359 C  
HETATM    2  C   UNL     1      -7.940  20.305  67.154  1.00  0.00    -0.378 C  
ENDROOT
BRANCH   2   3
HETATM    3  C   UNL     1      -9.435  20.574  67.276  1.00  0.00    -0.559 C  
BRANCH   3   4
HETATM    4  C   UNL     1     -10.206  19.961  66.107  1.00  0.00    -0.611 C  
BRANCH   4   5
HETATM    5  C   UNL     1     -10.239  18.445  66.238  1.00  0.00    -0.427 C  
BRANCH   5   6
HETATM    6  C   UNL     1     -10.659  17.995  67.637  1.00  0.00    -0.413 C  
BRANCH   6   7
HETATM    7  C   UNL     1     -10.126  16.586  67.880  1.00  0.00    -0.256 C  
BRANCH   7   8
HETATM    8  C   UNL     1     -11.237  15.540  67.904  1.00  0.00    -0.325 C  
BRANCH   8   9
HETATM    9  N   UNL     1     -10.950  14.332  66.967  1.00  0.00    -0.298 N  
HETATM   10  C   UNL     1     -12.256  13.795  66.383  1.00  0.00    -0.436 C  
HETATM   11  C   UNL     1     -10.011  14.755  65.836  1.00  0.00    -0.326 C  
BRANCH   9  12
HETATM   12  C   UNL     1     -10.270  13.248  67.850  1.00  0.00    -0.233 C  
BRANCH  12  13
HETATM   13  C   UNL     1     -11.140  12.009  68.041  1.00  0.00    -0.292 C  
BRANCH  13  14
HETATM   14  C   UNL     1     -10.342  10.808  68.543  1.00  0.00    -0.202 C  
BRANCH  14  15
HETATM   15  C   UNL     1     -11.280   9.885  69.320  1.00  0.00    -0.174 C  
BRANCH  15  16
HETATM   16  C   UNL     1     -11.548  10.391  70.731  1.00  0.00    -0.450 C  
BRANCH  16  17
HETATM   17  C   UNL     1     -13.009  10.154  71.108  1.00  0.00    -0.488 C  
BRANCH  17  18
HETATM   18  C   UNL     1     -13.128   9.231  72.315  1.00  0.00    -0.517 C  
HETATM   19  C   UNL     1     -11.903   8.340  72.446  1.00  0.00    -0.461 C  
ENDBRANCH  17  18
ENDBRANCH  16  17
ENDBRANCH  15  16
ENDBRANCH  14  15
ENDBRANCH  13  14
ENDBRANCH  12  13
ENDBRANCH   9  12
ENDBRANCH   8   9
ENDBRANCH   7   8
ENDBRANCH   6   7
ENDBRANCH   5   6
ENDBRANCH   4   5
ENDBRANCH   3   4
ENDBRANCH   2   3
TORSDOF 14
ENDMDL
MODEL       90
REMARK 921   NORMALIZED FREE ENERGY PREDICTED BY IDOCK:   -3.41 KCAL/MOL
REMARK 922        TOTAL FREE ENERGY PREDICTED BY IDOCK:   -7.93 KCAL/MOL
REMARK 923 INTER-LIGAND FREE ENERGY PREDICTED BY IDOCK:   -6.78 KCAL/MOL
REMARK 924 INTRA-LIGAND FREE ENERGY PREDICTED BY IDOCK:   -1.15 KCAL/MOL
REMARK 927      BINDING AFFINITY PREDICTED BY RF-SCORE:    0.00 PKD
ROOT
HETATM    1  C   UNL     1     -10.608   5.346  70.383  1.00  0.00    -0.322 C  
HETATM    2  C   UNL     1     -11.413   6.617  70.598  1.00  0.00    -0.420 C  
ENDROOT
BRANCH   2   3
HETATM    3  C   UNL     1     -11.588   6.912  72.083  1.00  0.00    -0.322 C  
BRANCH   3   4
HETATM    4  C   UNL     1     -12.119   8.327  72.308  1.00  0.00    -0.439 C  
BRANCH   4   5
HETATM    5  C   UNL     1     -11.361   9.317  71.436  1.00  0.00    -0.434 C  
BRANCH   5   6
HETATM    6  C   UNL     1     -12.228  10.506  71.023  1.00  0.00    -0.505 C  
BRANCH   6   7
HETATM    7  C   UNL     1     -11.858  10.914  69.600  1.00  0.00    -0.416 C  
BRANCH   7   8
HETATM    8  C   UNL     1     -10.940   9.900  68.924  1.00  0.00    -0.179 C  
BRANCH   8   9
HETATM    9  N   UNL     1      -9.777  10.569  68.136  1.00  0.00    -0.151 N  
HETATM   10  C   UNL     1      -9.790  12.081  68.359  1.00  0.00    -0.204 C  
HETATM   11  C   UNL     1      -8.435   9.990  68.586  1.00  0.00    -0.118 C  
BRANCH   9  12
HETATM   12  C   UNL     1     -10.024  10.244  66.636  1.00  0.00    -0.216 C  
BRANCH  12  13
HETATM   13  C   UNL     1     -10.649  11.408  65.874  1.00  0.00    -0.317 C  
BRANCH  13  14
HETATM   14  C   UNL     1     -10.595  11.211  64.361  1.00  0.00    -0.411 C  
BRANCH  14  15
HETATM   15  C   UNL     1     -11.537  12.218  63.700  1.00  0.00    -0.581 C  
BRANCH  15  16
HETATM   16  C   UNL     1     -12.388  12.964  64.718  1.00  0.00    -0.516 C  
BRANCH  16  17
HETATM   17  C   UNL     1     -12.281  14.471  64.491  1.00  0.00    -0.483 C  
BRANCH  17  18
HETATM   18  C   UNL     1     -10.904  14.994  64.883  1.00  0.00    -0.430 C  
HETATM   19  C   UNL     1     -10.785  15.150  66.390  1.00  0.00    -0.317 C  
ENDBRANCH  17  18
ENDBRANCH  16  17
ENDBRANCH  15  16
ENDBRANCH  14  15
ENDBRANCH  13  14
ENDBRANCH  12  13
ENDBRANCH   9  12
ENDBRANCH   8   9
ENDBRANCH   7   8
ENDBRANCH   6   7
ENDBRANCH   5   6
ENDBRANCH   4   5
ENDBRANCH   3   4
ENDBRANCH   2   3
TORSDOF 14
ENDMDL
MODEL       91
REMARK 921   NORMALIZED FREE ENERGY PREDICTED BY IDOCK:   -3.40 KCAL/MOL
REMARK 922        TOTAL FREE ENERGY PREDICTED BY IDOCK:   -7.93 KCAL/MOL
REMARK 923 INTER-LIGAND FREE ENERGY PREDICTED BY IDOCK:   -6.87 KCAL/MOL
REMARK 924 INTRA-LIGAND FREE ENERGY PREDICTED BY IDOCK:   -1.06 KCAL/MOL
REMARK 927      BINDING AFFINITY PREDICTED BY RF-SCORE:    0.00 PKD
ROOT
HETATM    1  C   UNL     1     -10.528   5.980  68.251  1.00  0.00    -0.289 C  
HETATM    2  C   UNL     1     -11.369   6.431  69.434  1.00  0.00    -0.443 C  
ENDROOT
BRANCH   2   3
HETATM    3  C   UNL     1     -10.696   6.076  70.754  1.00  0.00    -0.340 C  
BRANCH   3   4
HETATM    4  C   UNL     1     -11.154   7.005  71.878  1.00  0.00    -0.274 C  
BRANCH   4   5
HETATM    5  C   UNL     1     -12.178   7.999  71.351  1.00  0.00    -0.335 C  
BRANCH   5   6
HETATM    6  C   UNL     1     -11.724   9.447  71.530  1.00  0.00    -0.465 C  
BRANCH   6   7
HETATM    7  C   UNL     1     -11.707  10.130  70.166  1.00  0.00    -0.330 C  
BRANCH   7   8
HETATM    8  C   UNL     1     -10.303  10.222  69.577  1.00  0.00    -0.242 C  
BRANCH   8   9
HETATM    9  N   UNL     1     -10.262  10.993  68.227  1.00  0.00    -0.169 N  
HETATM   10  C   UNL     1      -9.035  11.903  68.176  1.00  0.00    -0.185 C  
HETATM   11  C   UNL     1     -10.224  10.007  67.059  1.00  0.00    -0.237 C  
BRANCH   9  12
HETATM   12  C   UNL     1     -11.564  11.841  68.170  1.00  0.00    -0.323 C  
BRANCH  12  13
HETATM   13  C   UNL     1     -11.305  13.334  68.352  1.00  0.00    -0.326 C  
BRANCH  13  14
HETATM   14  C   UNL     1     -12.082  13.922  69.527  1.00  0.00    -0.393 C  
BRANCH  14  15
HETATM   15  C   UNL     1     -11.546  15.323  69.819  1.00  0.00    -0.335 C  
BRANCH  15  16
HETATM   16  C   UNL     1     -11.471  15.611  71.313  1.00  0.00    -0.469 C  
BRANCH  16  17
HETATM   17  C   UNL     1     -12.873  15.838  71.876  1.00  0.00    -0.514 C  
BRANCH  17  18
HETATM   18  C   UNL     1     -13.233  14.777  72.910  1.00  0.00    -0.597 C  
HETATM   19  C   UNL     1     -14.063  13.665  72.288  1.00  0.00    -0.602 C  
ENDBRANCH  17  18
ENDBRANCH  16  17
ENDBRANCH  15  16
ENDBRANCH  14  15
ENDBRANCH  13  14
ENDBRANCH  12  13
ENDBRANCH   9  12
ENDBRANCH   8   9
ENDBRANCH   7   8
ENDBRANCH   6   7
ENDBRANCH   5   6
ENDBRANCH   4   5
ENDBRANCH   3   4
ENDBRANCH   2   3
TORSDOF 14
ENDMDL
MODEL       92
REMARK 921   NORMALIZED FREE ENERGY PREDICTED BY IDOCK:   -3.40 KCAL/MOL
REMARK 922        TOTAL FREE ENERGY PREDICTED BY IDOCK:   -7.92 KCAL/MOL
REMARK 923 INTER-LIGAND FREE ENERGY PREDICTED BY IDOCK:   -6.51 KCAL/MOL
REMARK 924 INTRA-LIGAND FREE ENERGY PREDICTED BY IDOCK:   -1.41 KCAL/MOL
REMARK 927      BINDING AFFINITY PREDICTED BY RF-SCORE:    0.00 PKD
ROOT
HETATM    1  C   UNL     1     -11.529  15.872  64.481  1.00  0.00    -0.287 C  
HETATM    2  C   UNL     1     -11.127  14.414  64.634  1.00  0.00    -0.363 C  
ENDROOT
BRANCH   2   3
HETATM    3  C   UNL     1     -12.351  13.507  64.662  1.00  0.00    -0.419 C  
BRANCH   3   4
HETATM    4  C   UNL     1     -12.104  12.219  63.877  1.00  0.00    -0.598 C  
BRANCH   4   5
HETATM    5  C   UNL     1     -10.635  12.110  63.496  1.00  0.00    -0.501 C  
BRANCH   5   6
HETATM    6  C   UNL     1     -10.004  10.810  63.993  1.00  0.00    -0.403 C  
BRANCH   6   7
HETATM    7  C   UNL     1     -10.338  10.635  65.471  1.00  0.00    -0.297 C  
BRANCH   7   8
HETATM    8  C   UNL     1      -9.347  11.355  66.382  1.00  0.00    -0.204 C  
BRANCH   8   9
HETATM    9  N   UNL     1      -9.908  11.601  67.811  1.00  0.00    -0.175 N  
HETATM   10  C   UNL     1     -11.436  11.615  67.782  1.00  0.00    -0.302 C  
HETATM   11  C   UNL     1      -9.418  10.510  68.764  1.00  0.00    -0.180 C  
BRANCH   9  12
HETATM   12  C   UNL     1      -9.366  12.987  68.259  1.00  0.00    -0.199 C  
BRANCH  12  13
HETATM   13  C   UNL     1     -10.189  14.150  67.713  1.00  0.00    -0.242 C  
BRANCH  13  14
HETATM   14  C   UNL     1     -10.814  14.993  68.822  1.00  0.00    -0.249 C  
BRANCH  14  15
HETATM   15  C   UNL     1     -11.055  16.405  68.289  1.00  0.00    -0.337 C  
BRANCH  15  16
HETATM   16  C   UNL     1      -9.842  16.957  67.551  1.00  0.00    -0.260 C  
BRANCH  16  17
HETATM   17  C   UNL     1      -9.607  18.415  67.940  1.00  0.00    -0.309 C  
BRANCH  17  18
HETATM   18  C   UNL     1     -10.700  19.320  67.383  1.00  0.00    -0.594 C  
HETATM   19  C   UNL     1     -10.439  19.662  65.925  1.00  0.00    -0.591 C  
ENDBRANCH  17  18
ENDBRANCH  16  17
ENDBRANCH  15  16
ENDBRANCH  14  15
ENDBRANCH  13  14
ENDBRANCH  12  13
ENDBRANCH   9  12
ENDBRANCH   8   9
ENDBRANCH   7   8
ENDBRANCH   6   7
ENDBRANCH   5   6
ENDBRANCH   4   5
ENDBRANCH   3   4
ENDBRANCH   2   3
TORSDOF 14
ENDMDL
MODEL       93
REMARK 921   NORMALIZED FREE ENERGY PREDICTED BY IDOCK:   -3.37 KCAL/MOL
REMARK 922        TOTAL FREE ENERGY PREDICTED BY IDOCK:   -7.87 KCAL/MOL
REMARK 923 INTER-LIGAND FREE ENERGY PREDICTED BY IDOCK:   -6.70 KCAL/MOL
REMARK 924 INTRA-LIGAND FREE ENERGY PREDICTED BY IDOCK:   -1.17 KCAL/MOL
REMARK 927      BINDING AFFINITY PREDICTED BY RF-SCORE:    0.00 PKD
ROOT
HETATM    1  C   UNL     1     -12.488   7.212  71.477  1.00  0.00    -0.418 C  
HETATM    2  C   UNL     1     -12.601   8.487  72.298  1.00  0.00    -0.438 C  
ENDROOT
BRANCH   2   3
HETATM    3  C   UNL     1     -11.904   9.651  71.603  1.00  0.00    -0.457 C  
BRANCH   3   4
HETATM    4  C   UNL     1     -12.887  10.780  71.293  1.00  0.00    -0.540 C  
BRANCH   4   5
HETATM    5  C   UNL     1     -12.221  11.829  70.415  1.00  0.00    -0.416 C  
BRANCH   5   6
HETATM    6  C   UNL     1     -11.795  11.263  69.060  1.00  0.00    -0.421 C  
BRANCH   6   7
HETATM    7  C   UNL     1     -10.954  12.308  68.334  1.00  0.00    -0.270 C  
BRANCH   7   8
HETATM    8  C   UNL     1     -11.786  13.492  67.850  1.00  0.00    -0.362 C  
BRANCH   8   9
HETATM    9  N   UNL     1     -11.475  13.889  66.378  1.00  0.00    -0.331 N  
HETATM   10  C   UNL     1     -12.758  14.312  65.663  1.00  0.00    -0.373 C  
HETATM   11  C   UNL     1     -10.462  15.034  66.345  1.00  0.00    -0.294 C  
BRANCH   9  12
HETATM   12  C   UNL     1     -10.875  12.623  65.704  1.00  0.00    -0.274 C  
BRANCH  12  13
HETATM   13  C   UNL     1     -11.880  11.891  64.821  1.00  0.00    -0.259 C  
BRANCH  13  14
HETATM   14  C   UNL     1     -11.397  11.750  63.379  1.00  0.00    -0.437 C  
BRANCH  14  15
HETATM   15  C   UNL     1      -9.873  11.638  63.380  1.00  0.00    -0.424 C  
BRANCH  15  16
HETATM   16  C   UNL     1      -9.402  10.192  63.299  1.00  0.00    -0.332 C  
BRANCH  16  17
HETATM   17  C   UNL     1      -8.136  10.003  64.133  1.00  0.00    -0.153 C  
BRANCH  17  18
HETATM   18  C   UNL     1      -8.437  10.094  65.625  1.00  0.00    -0.159 C  
HETATM   19  C   UNL     1      -9.583   9.173  66.010  1.00  0.00    -0.342 C  
ENDBRANCH  17  18
ENDBRANCH  16  17
ENDBRANCH  15  16
ENDBRANCH  14  15
ENDBRANCH  13  14
ENDBRANCH  12  13
ENDBRANCH   9  12
ENDBRANCH   8   9
ENDBRANCH   7   8
ENDBRANCH   6   7
ENDBRANCH   5   6
ENDBRANCH   4   5
ENDBRANCH   3   4
ENDBRANCH   2   3
TORSDOF 14
ENDMDL
MODEL       94
REMARK 921   NORMALIZED FREE ENERGY PREDICTED BY IDOCK:   -3.37 KCAL/MOL
REMARK 922        TOTAL FREE ENERGY PREDICTED BY IDOCK:   -7.86 KCAL/MOL
REMARK 923 INTER-LIGAND FREE ENERGY PREDICTED BY IDOCK:   -6.04 KCAL/MOL
REMARK 924 INTRA-LIGAND FREE ENERGY PREDICTED BY IDOCK:   -1.82 KCAL/MOL
REMARK 927      BINDING AFFINITY PREDICTED BY RF-SCORE:    0.00 PKD
ROOT
HETATM    1  C   UNL     1     -13.963   7.637  71.501  1.00  0.00    -0.500 C  
HETATM    2  C   UNL     1     -13.659   8.868  72.340  1.00  0.00    -0.500 C  
ENDROOT
BRANCH   2   3
HETATM    3  C   UNL     1     -13.194  10.027  71.466  1.00  0.00    -0.497 C  
BRANCH   3   4
HETATM    4  C   UNL     1     -11.813   9.754  70.872  1.00  0.00    -0.420 C  
BRANCH   4   5
HETATM    5  C   UNL     1     -11.516  10.746  69.757  1.00  0.00    -0.386 C  
BRANCH   5   6
HETATM    6  C   UNL     1     -11.923  12.172  70.129  1.00  0.00    -0.394 C  
BRANCH   6   7
HETATM    7  C   UNL     1     -12.024  13.003  68.854  1.00  0.00    -0.303 C  
BRANCH   7   8
HETATM    8  C   UNL     1     -11.877  12.155  67.594  1.00  0.00    -0.246 C  
BRANCH   8   9
HETATM    9  N   UNL     1     -11.444  12.987  66.353  1.00  0.00    -0.324 N  
HETATM   10  C   UNL     1     -10.925  12.062  65.252  1.00  0.00    -0.308 C  
HETATM   11  C   UNL     1     -12.625  13.805  65.829  1.00  0.00    -0.480 C  
BRANCH   9  12
HETATM   12  C   UNL     1     -10.310  13.934  66.837  1.00  0.00    -0.266 C  
BRANCH  12  13
HETATM   13  C   UNL     1      -8.936  13.272  66.815  1.00  0.00    -0.183 C  
BRANCH  13  14
HETATM   14  C   UNL     1      -8.321  13.156  68.207  1.00  0.00    -0.152 C  
BRANCH  14  15
HETATM   15  C   UNL     1      -8.083  11.679  68.519  1.00  0.00    -0.145 C  
BRANCH  15  16
HETATM   16  C   UNL     1      -8.198  10.804  67.278  1.00  0.00    -0.121 C  
BRANCH  16  17
HETATM   17  C   UNL     1      -8.649   9.396  67.666  1.00  0.00    -0.116 C  
BRANCH  17  18
HETATM   18  C   UNL     1      -9.479   8.756  66.560  1.00  0.00    -0.281 C  
HETATM   19  C   UNL     1     -10.514   7.802  67.134  1.00  0.00    -0.413 C  
ENDBRANCH  17  18
ENDBRANCH  16  17
ENDBRANCH  15  16
ENDBRANCH  14  15
ENDBRANCH  13  14
ENDBRANCH  12  13
ENDBRANCH   9  12
ENDBRANCH   8   9
ENDBRANCH   7   8
ENDBRANCH   6   7
ENDBRANCH   5   6
ENDBRANCH   4   5
ENDBRANCH   3   4
ENDBRANCH   2   3
TORSDOF 14
ENDMDL
MODEL       95
REMARK 921   NORMALIZED FREE ENERGY PREDICTED BY IDOCK:   -3.36 KCAL/MOL
REMARK 922        TOTAL FREE ENERGY PREDICTED BY IDOCK:   -7.85 KCAL/MOL
REMARK 923 INTER-LIGAND FREE ENERGY PREDICTED BY IDOCK:   -6.51 KCAL/MOL
REMARK 924 INTRA-LIGAND FREE ENERGY PREDICTED BY IDOCK:   -1.34 KCAL/MOL
REMARK 927      BINDING AFFINITY PREDICTED BY RF-SCORE:    0.00 PKD
ROOT
HETATM    1  C   UNL     1     -11.978  15.951  72.548  1.00  0.00    -0.622 C  
HETATM    2  C   UNL     1     -12.482  15.609  71.155  1.00  0.00    -0.505 C  
ENDROOT
BRANCH   2   3
HETATM    3  C   UNL     1     -12.558  14.101  70.953  1.00  0.00    -0.433 C  
BRANCH   3   4
HETATM    4  C   UNL     1     -11.805  13.671  69.695  1.00  0.00    -0.396 C  
BRANCH   4   5
HETATM    5  C   UNL     1     -11.783  14.808  68.683  1.00  0.00    -0.356 C  
BRANCH   5   6
HETATM    6  C   UNL     1     -11.906  14.305  67.245  1.00  0.00    -0.444 C  
BRANCH   6   7
HETATM    7  C   UNL     1     -10.512  13.971  66.721  1.00  0.00    -0.277 C  
BRANCH   7   8
HETATM    8  C   UNL     1     -10.523  12.800  65.742  1.00  0.00    -0.276 C  
BRANCH   8   9
HETATM    9  N   UNL     1      -9.678  11.591  66.236  1.00  0.00    -0.208 N  
HETATM   10  C   UNL     1      -9.273  10.712  65.053  1.00  0.00    -0.211 C  
HETATM   11  C   UNL     1      -8.428  12.086  66.965  1.00  0.00    -0.183 C  
BRANCH   9  12
HETATM   12  C   UNL     1     -10.587  10.794  67.213  1.00  0.00    -0.257 C  
BRANCH  12  13
HETATM   13  C   UNL     1      -9.801  10.110  68.327  1.00  0.00    -0.162 C  
BRANCH  13  14
HETATM   14  C   UNL     1     -10.654   9.125  69.123  1.00  0.00    -0.224 C  
BRANCH  14  15
HETATM   15  C   UNL     1     -10.091   9.019  70.540  1.00  0.00    -0.263 C  
BRANCH  15  16
HETATM   16  C   UNL     1     -11.171   9.171  71.602  1.00  0.00    -0.447 C  
BRANCH  16  17
HETATM   17  C   UNL     1     -12.017  10.411  71.319  1.00  0.00    -0.425 C  
BRANCH  17  18
HETATM   18  C   UNL     1     -13.505  10.081  71.332  1.00  0.00    -0.355 C  
HETATM   19  C   UNL     1     -13.749   8.669  71.840  1.00  0.00    -0.462 C  
ENDBRANCH  17  18
ENDBRANCH  16  17
ENDBRANCH  15  16
ENDBRANCH  14  15
ENDBRANCH  13  14
ENDBRANCH  12  13
ENDBRANCH   9  12
ENDBRANCH   8   9
ENDBRANCH   7   8
ENDBRANCH   6   7
ENDBRANCH   5   6
ENDBRANCH   4   5
ENDBRANCH   3   4
ENDBRANCH   2   3
TORSDOF 14
ENDMDL
MODEL       96
REMARK 921   NORMALIZED FREE ENERGY PREDICTED BY IDOCK:   -3.35 KCAL/MOL
REMARK 922        TOTAL FREE ENERGY PREDICTED BY IDOCK:   -7.82 KCAL/MOL
REMARK 923 INTER-LIGAND FREE ENERGY PREDICTED BY IDOCK:   -5.77 KCAL/MOL
REMARK 924 INTRA-LIGAND FREE ENERGY PREDICTED BY IDOCK:   -2.05 KCAL/MOL
REMARK 927      BINDING AFFINITY PREDICTED BY RF-SCORE:    0.00 PKD
ROOT
HETATM    1  C   UNL     1     -13.152  11.166  71.771  1.00  0.00    -0.536 C  
HETATM    2  C   UNL     1     -12.914   9.765  71.232  1.00  0.00    -0.470 C  
ENDROOT
BRANCH   2   3
HETATM    3  C   UNL     1     -13.961   8.790  71.758  1.00  0.00    -0.475 C  
BRANCH   3   4
HETATM    4  C   UNL     1     -13.538   7.341  71.517  1.00  0.00    -0.442 C  
BRANCH   4   5
HETATM    5  C   UNL     1     -12.062   7.164  71.840  1.00  0.00    -0.357 C  
BRANCH   5   6
HETATM    6  C   UNL     1     -11.444   5.981  71.094  1.00  0.00    -0.246 C  
BRANCH   6   7
HETATM    7  C   UNL     1     -11.361   6.326  69.610  1.00  0.00    -0.492 C  
BRANCH   7   8
HETATM    8  C   UNL     1     -10.231   5.584  68.903  1.00  0.00    -0.214 C  
BRANCH   8   9
HETATM    9  N   UNL     1     -10.080   5.994  67.410  1.00  0.00    -0.146 N  
HETATM   10  C   UNL     1      -8.626   6.359  67.108  1.00  0.00    -0.111 C  
HETATM   11  C   UNL     1     -10.526   4.848  66.501  1.00  0.00    -0.252 C  
BRANCH   9  12
HETATM   12  C   UNL     1     -10.999   7.231  67.203  1.00  0.00    -0.215 C  
BRANCH  12  13
HETATM   13  C   UNL     1     -10.222   8.542  67.145  1.00  0.00    -0.355 C  
BRANCH  13  14
HETATM   14  C   UNL     1     -10.765   9.585  68.119  1.00  0.00    -0.247 C  
BRANCH  14  15
HETATM   15  C   UNL     1      -9.608  10.123  68.960  1.00  0.00    -0.202 C  
BRANCH  15  16
HETATM   16  C   UNL     1      -8.888   9.019  69.722  1.00  0.00    -0.155 C  
BRANCH  16  17
HETATM   17  C   UNL     1      -9.254   9.075  71.204  1.00  0.00    -0.326 C  
BRANCH  17  18
HETATM   18  C   UNL     1      -8.322   8.205  72.039  1.00  0.00    -0.199 C  
HETATM   19  C   UNL     1      -8.824   8.077  73.467  1.00  0.00    -0.333 C  
ENDBRANCH  17  18
ENDBRANCH  16  17
ENDBRANCH  15  16
ENDBRANCH  14  15
ENDBRANCH  13  14
ENDBRANCH  12  13
ENDBRANCH   9  12
ENDBRANCH   8   9
ENDBRANCH   7   8
ENDBRANCH   6   7
ENDBRANCH   5   6
ENDBRANCH   4   5
ENDBRANCH   3   4
ENDBRANCH   2   3
TORSDOF 14
ENDMDL
MODEL       97
REMARK 921   NORMALIZED FREE ENERGY PREDICTED BY IDOCK:   -3.35 KCAL/MOL
REMARK 922        TOTAL FREE ENERGY PREDICTED BY IDOCK:   -7.82 KCAL/MOL
REMARK 923 INTER-LIGAND FREE ENERGY PREDICTED BY IDOCK:   -6.42 KCAL/MOL
REMARK 924 INTRA-LIGAND FREE ENERGY PREDICTED BY IDOCK:   -1.39 KCAL/MOL
REMARK 927      BINDING AFFINITY PREDICTED BY RF-SCORE:    0.00 PKD
ROOT
HETATM    1  C   UNL     1     -12.770  11.163  71.387  1.00  0.00    -0.524 C  
HETATM    2  C   UNL     1     -13.371   9.868  71.911  1.00  0.00    -0.524 C  
ENDROOT
BRANCH   2   3
HETATM    3  C   UNL     1     -12.286   8.839  72.205  1.00  0.00    -0.448 C  
BRANCH   3   4
HETATM    4  C   UNL     1     -11.401   8.602  70.982  1.00  0.00    -0.322 C  
BRANCH   4   5
HETATM    5  C   UNL     1     -10.891   7.168  70.974  1.00  0.00    -0.262 C  
BRANCH   5   6
HETATM    6  C   UNL     1     -11.535   6.332  69.868  1.00  0.00    -0.459 C  
BRANCH   6   7
HETATM    7  C   UNL     1     -10.501   6.084  68.774  1.00  0.00    -0.307 C  
BRANCH   7   8
HETATM    8  C   UNL     1     -10.775   6.906  67.517  1.00  0.00    -0.298 C  
BRANCH   8   9
HETATM    9  N   UNL     1      -9.537   7.719  67.045  1.00  0.00    -0.170 N  
HETATM   10  C   UNL     1      -8.525   7.849  68.183  1.00  0.00    -0.124 C  
HETATM   11  C   UNL     1      -8.882   7.031  65.846  1.00  0.00    -0.103 C  
BRANCH   9  12
HETATM   12  C   UNL     1     -10.067   9.121  66.634  1.00  0.00    -0.273 C  
BRANCH  12  13
HETATM   13  C   UNL     1     -10.120  10.100  67.803  1.00  0.00    -0.216 C  
BRANCH  13  14
HETATM   14  C   UNL     1     -11.493  10.749  67.958  1.00  0.00    -0.333 C  
BRANCH  14  15
HETATM   15  C   UNL     1     -11.304  12.246  68.200  1.00  0.00    -0.349 C  
BRANCH  15  16
HETATM   16  C   UNL     1     -10.838  12.978  66.949  1.00  0.00    -0.282 C  
BRANCH  16  17
HETATM   17  C   UNL     1     -11.767  14.152  66.647  1.00  0.00    -0.422 C  
BRANCH  17  18
HETATM   18  C   UNL     1     -12.766  13.801  65.551  1.00  0.00    -0.530 C  
HETATM   19  C   UNL     1     -12.061  13.533  64.231  1.00  0.00    -0.482 C  
ENDBRANCH  17  18
ENDBRANCH  16  17
ENDBRANCH  15  16
ENDBRANCH  14  15
ENDBRANCH  13  14
ENDBRANCH  12  13
ENDBRANCH   9  12
ENDBRANCH   8   9
ENDBRANCH   7   8
ENDBRANCH   6   7
ENDBRANCH   5   6
ENDBRANCH   4   5
ENDBRANCH   3   4
ENDBRANCH   2   3
TORSDOF 14
ENDMDL
MODEL       98
REMARK 921   NORMALIZED FREE ENERGY PREDICTED BY IDOCK:   -3.34 KCAL/MOL
REMARK 922        TOTAL FREE ENERGY PREDICTED BY IDOCK:   -7.81 KCAL/MOL
REMARK 923 INTER-LIGAND FREE ENERGY PREDICTED BY IDOCK:   -5.55 KCAL/MOL
REMARK 924 INTRA-LIGAND FREE ENERGY PREDICTED BY IDOCK:   -2.26 KCAL/MOL
REMARK 927      BINDING AFFINITY PREDICTED BY RF-SCORE:    0.00 PKD
ROOT
HETATM    1  C   UNL     1      -6.804  20.236  68.052  1.00  0.00    -0.335 C  
HETATM    2  C   UNL     1      -7.251  19.271  69.138  1.00  0.00    -0.360 C  
ENDROOT
BRANCH   2   3
HETATM    3  C   UNL     1      -6.455  17.972  69.081  1.00  0.00    -0.249 C  
BRANCH   3   4
HETATM    4  C   UNL     1      -6.619  17.281  67.728  1.00  0.00    -0.168 C  
BRANCH   4   5
HETATM    5  C   UNL     1      -6.429  15.779  67.880  1.00  0.00    -0.168 C  
BRANCH   5   6
HETATM    6  C   UNL     1      -7.725  15.068  68.268  1.00  0.00    -0.111 C  
BRANCH   6   7
HETATM    7  C   UNL     1      -8.411  14.569  66.999  1.00  0.00    -0.195 C  
BRANCH   7   8
HETATM    8  C   UNL     1      -8.988  13.166  67.163  1.00  0.00    -0.228 C  
BRANCH   8   9
HETATM    9  N   UNL     1     -10.404  13.019  66.535  1.00  0.00    -0.269 N  
HETATM   10  C   UNL     1     -10.791  14.301  65.799  1.00  0.00    -0.303 C  
HETATM   11  C   UNL     1     -10.429  11.837  65.565  1.00  0.00    -0.267 C  
BRANCH   9  12
HETATM   12  C   UNL     1     -11.380  12.762  67.718  1.00  0.00    -0.294 C  
BRANCH  12  13
HETATM   13  C   UNL     1     -11.953  14.049  68.303  1.00  0.00    -0.384 C  
BRANCH  13  14
HETATM   14  C   UNL     1     -11.416  14.344  69.702  1.00  0.00    -0.331 C  
BRANCH  14  15
HETATM   15  C   UNL     1     -10.937  15.794  69.749  1.00  0.00    -0.316 C  
BRANCH  15  16
HETATM   16  C   UNL     1     -11.262  16.550  68.468  1.00  0.00    -0.296 C  
BRANCH  16  17
HETATM   17  C   UNL     1     -10.325  17.746  68.309  1.00  0.00    -0.387 C  
BRANCH  17  18
HETATM   18  C   UNL     1      -9.982  17.989  66.843  1.00  0.00    -0.340 C  
HETATM   19  C   UNL     1     -10.197  19.446  66.465  1.00  0.00    -0.544 C  
ENDBRANCH  17  18
ENDBRANCH  16  17
ENDBRANCH  15  16
ENDBRANCH  14  15
ENDBRANCH  13  14
ENDBRANCH  12  13
ENDBRANCH   9  12
ENDBRANCH   8   9
ENDBRANCH   7   8
ENDBRANCH   6   7
ENDBRANCH   5   6
ENDBRANCH   4   5
ENDBRANCH   3   4
ENDBRANCH   2   3
TORSDOF 14
ENDMDL
MODEL       99
REMARK 921   NORMALIZED FREE ENERGY PREDICTED BY IDOCK:   -3.34 KCAL/MOL
REMARK 922        TOTAL FREE ENERGY PREDICTED BY IDOCK:   -7.80 KCAL/MOL
REMARK 923 INTER-LIGAND FREE ENERGY PREDICTED BY IDOCK:   -6.10 KCAL/MOL
REMARK 924 INTRA-LIGAND FREE ENERGY PREDICTED BY IDOCK:   -1.70 KCAL/MOL
REMARK 927      BINDING AFFINITY PREDICTED BY RF-SCORE:    0.00 PKD
ROOT
HETATM    1  C   UNL     1     -11.899  12.879  64.143  1.00  0.00    -0.479 C  
HETATM    2  C   UNL     1     -11.158  11.573  63.906  1.00  0.00    -0.458 C  
ENDROOT
BRANCH   2   3
HETATM    3  C   UNL     1      -9.932  11.466  64.806  1.00  0.00    -0.313 C  
BRANCH   3   4
HETATM    4  C   UNL     1      -9.564  10.006  65.070  1.00  0.00    -0.362 C  
BRANCH   4   5
HETATM    5  C   UNL     1      -9.496   9.745  66.567  1.00  0.00    -0.228 C  
BRANCH   5   6
HETATM    6  C   UNL     1     -10.783   9.119  67.104  1.00  0.00    -0.213 C  
BRANCH   6   7
HETATM    7  C   UNL     1     -10.418   7.971  68.040  1.00  0.00    -0.243 C  
BRANCH   7   8
HETATM    8  C   UNL     1      -9.664   8.446  69.278  1.00  0.00    -0.177 C  
BRANCH   8   9
HETATM    9  N   UNL     1     -10.215   7.829  70.595  1.00  0.00    -0.198 N  
HETATM   10  C   UNL     1     -11.418   6.936  70.296  1.00  0.00    -0.323 C  
HETATM   11  C   UNL     1      -9.124   7.014  71.292  1.00  0.00    -0.152 C  
BRANCH   9  12
HETATM   12  C   UNL     1     -10.643   9.026  71.491  1.00  0.00    -0.345 C  
BRANCH  12  13
HETATM   13  C   UNL     1     -12.157   9.148  71.632  1.00  0.00    -0.432 C  
BRANCH  13  14
HETATM   14  C   UNL     1     -12.683  10.494  71.140  1.00  0.00    -0.518 C  
BRANCH  14  15
HETATM   15  C   UNL     1     -11.580  11.193  70.348  1.00  0.00    -0.355 C  
BRANCH  15  16
HETATM   16  C   UNL     1     -12.035  12.532  69.784  1.00  0.00    -0.359 C  
BRANCH  16  17
HETATM   17  C   UNL     1     -11.754  12.597  68.285  1.00  0.00    -0.389 C  
BRANCH  17  18
HETATM   18  C   UNL     1     -11.317  13.995  67.862  1.00  0.00    -0.317 C  
HETATM   19  C   UNL     1      -9.844  14.020  67.489  1.00  0.00    -0.236 C  
ENDBRANCH  17  18
ENDBRANCH  16  17
ENDBRANCH  15  16
ENDBRANCH  14  15
ENDBRANCH  13  14
ENDBRANCH  12  13
ENDBRANCH   9  12
ENDBRANCH   8   9
ENDBRANCH   7   8
ENDBRANCH   6   7
ENDBRANCH   5   6
ENDBRANCH   4   5
ENDBRANCH   3   4
ENDBRANCH   2   3
TORSDOF 14
ENDMDL
MODEL      100
REMARK 921   NORMALIZED FREE ENERGY PREDICTED BY IDOCK:   -3.33 KCAL/MOL
REMARK 922        TOTAL FREE ENERGY PREDICTED BY IDOCK:   -7.79 KCAL/MOL
REMARK 923 INTER-LIGAND FREE ENERGY PREDICTED BY IDOCK:   -5.92 KCAL/MOL
REMARK 924 INTRA-LIGAND FREE ENERGY PREDICTED BY IDOCK:   -1.87 KCAL/MOL
REMARK 927      BINDING AFFINITY PREDICTED BY RF-SCORE:    0.00 PKD
ROOT
HETATM    1  C   UNL     1      -6.018  13.441  67.897  1.00  0.00    -0.140 C  
HETATM    2  C   UNL     1      -6.366  14.919  67.824  1.00  0.00    -0.174 C  
ENDROOT
BRANCH   2   3
HETATM    3  C   UNL     1      -7.779  15.125  67.292  1.00  0.00    -0.241 C  
BRANCH   3   4
HETATM    4  C   UNL     1      -8.643  15.890  68.294  1.00  0.00    -0.176 C  
BRANCH   4   5
HETATM    5  C   UNL     1      -9.387  17.017  67.593  1.00  0.00    -0.241 C  
BRANCH   5   6
HETATM    6  C   UNL     1     -10.722  17.334  68.267  1.00  0.00    -0.349 C  
BRANCH   6   7
HETATM    7  C   UNL     1     -10.862  16.467  69.514  1.00  0.00    -0.315 C  
BRANCH   7   8
HETATM    8  C   UNL     1     -12.218  15.773  69.592  1.00  0.00    -0.187 C  
BRANCH   8   9
HETATM    9  N   UNL     1     -12.414  14.974  70.912  1.00  0.00    -0.317 N  
HETATM   10  C   UNL     1     -11.448  15.481  71.983  1.00  0.00    -0.428 C  
HETATM   11  C   UNL     1     -13.855  15.116  71.404  1.00  0.00    -0.502 C  
BRANCH   9  12
HETATM   12  C   UNL     1     -12.108  13.488  70.572  1.00  0.00    -0.335 C  
BRANCH  12  13
HETATM   13  C   UNL     1     -12.114  13.211  69.071  1.00  0.00    -0.240 C  
BRANCH  13  14
HETATM   14  C   UNL     1     -10.760  12.724  68.563  1.00  0.00    -0.275 C  
BRANCH  14  15
HETATM   15  C   UNL     1     -10.811  12.632  67.038  1.00  0.00    -0.282 C  
BRANCH  15  16
HETATM   16  C   UNL     1     -11.473  13.851  66.410  1.00  0.00    -0.354 C  
BRANCH  16  17
HETATM   17  C   UNL     1     -10.727  14.261  65.141  1.00  0.00    -0.407 C  
BRANCH  17  18
HETATM   18  C   UNL     1     -10.346  13.045  64.305  1.00  0.00    -0.385 C  
HETATM   19  C   UNL     1     -11.531  12.545  63.494  1.00  0.00    -0.570 C  
ENDBRANCH  17  18
ENDBRANCH  16  17
ENDBRANCH  15  16
ENDBRANCH  14  15
ENDBRANCH  13  14
ENDBRANCH  12  13
ENDBRANCH   9  12
ENDBRANCH   8   9
ENDBRANCH   7   8
ENDBRANCH   6   7
ENDBRANCH   5   6
ENDBRANCH   4   5
ENDBRANCH   3   4
ENDBRANCH   2   3
TORSDOF 14
ENDMDL
MODEL      101
REMARK 921   NORMALIZED FREE ENERGY PREDICTED BY IDOCK:   -3.32 KCAL/MOL
REMARK 922        TOTAL FREE ENERGY PREDICTED BY IDOCK:   -7.77 KCAL/MOL
REMARK 923 INTER-LIGAND FREE ENERGY PREDICTED BY IDOCK:   -6.11 KCAL/MOL
REMARK 924 INTRA-LIGAND FREE ENERGY PREDICTED BY IDOCK:   -1.66 KCAL/MOL
REMARK 927      BINDING AFFINITY PREDICTED BY RF-SCORE:    0.00 PKD
ROOT
HETATM    1  C   UNL     1     -11.733  14.425  67.615  1.00  0.00    -0.421 C  
HETATM    2  C   UNL     1     -11.956  14.172  69.097  1.00  0.00    -0.388 C  
ENDROOT
BRANCH   2   3
HETATM    3  C   UNL     1     -11.588  12.741  69.471  1.00  0.00    -0.342 C  
BRANCH   3   4
HETATM    4  C   UNL     1     -12.357  12.276  70.708  1.00  0.00    -0.383 C  
BRANCH   4   5
HETATM    5  C   UNL     1     -12.335  10.757  70.799  1.00  0.00    -0.480 C  
BRANCH   5   6
HETATM    6  C   UNL     1     -13.349  10.224  71.811  1.00  0.00    -0.476 C  
BRANCH   6   7
HETATM    7  C   UNL     1     -12.847   8.889  72.352  1.00  0.00    -0.446 C  
BRANCH   7   8
HETATM    8  C   UNL     1     -12.453   7.921  71.240  1.00  0.00    -0.264 C  
BRANCH   8   9
HETATM    9  N   UNL     1     -11.019   7.344  71.421  1.00  0.00    -0.234 N  
HETATM   10  C   UNL     1     -10.394   7.879  72.709  1.00  0.00    -0.333 C  
HETATM   11  C   UNL     1     -11.069   5.816  71.464  1.00  0.00    -0.214 C  
BRANCH   9  12
HETATM   12  C   UNL     1     -10.200   7.819  70.188  1.00  0.00    -0.205 C  
BRANCH  12  13
HETATM   13  C   UNL     1      -9.137   8.853  70.547  1.00  0.00    -0.233 C  
BRANCH  13  14
HETATM   14  C   UNL     1      -9.037   9.971  69.512  1.00  0.00    -0.236 C  
BRANCH  14  15
HETATM   15  C   UNL     1      -9.898   9.601  68.304  1.00  0.00    -0.169 C  
BRANCH  15  16
HETATM   16  C   UNL     1      -9.455  10.322  67.039  1.00  0.00    -0.191 C  
BRANCH  16  17
HETATM   17  C   UNL     1     -10.643  11.033  66.393  1.00  0.00    -0.308 C  
BRANCH  17  18
HETATM   18  C   UNL     1     -10.454  11.172  64.887  1.00  0.00    -0.372 C  
HETATM   19  C   UNL     1     -11.371  12.240  64.315  1.00  0.00    -0.415 C  
ENDBRANCH  17  18
ENDBRANCH  16  17
ENDBRANCH  15  16
ENDBRANCH  14  15
ENDBRANCH  13  14
ENDBRANCH  12  13
ENDBRANCH   9  12
ENDBRANCH   8   9
ENDBRANCH   7   8
ENDBRANCH   6   7
ENDBRANCH   5   6
ENDBRANCH   4   5
ENDBRANCH   3   4
ENDBRANCH   2   3
TORSDOF 14
ENDMDL
MODEL      102
REMARK 921   NORMALIZED FREE ENERGY PREDICTED BY IDOCK:   -3.31 KCAL/MOL
REMARK 922        TOTAL FREE ENERGY PREDICTED BY IDOCK:   -7.76 KCAL/MOL
REMARK 923 INTER-LIGAND FREE ENERGY PREDICTED BY IDOCK:   -6.94 KCAL/MOL
REMARK 924 INTRA-LIGAND FREE ENERGY PREDICTED BY IDOCK:   -0.81 KCAL/MOL
REMARK 927      BINDING AFFINITY PREDICTED BY RF-SCORE:    0.00 PKD
ROOT
HETATM    1  C   UNL     1     -10.322   7.288  71.675  1.00  0.00    -0.214 C  
HETATM    2  C   UNL     1     -10.593   8.695  72.183  1.00  0.00    -0.411 C  
ENDROOT
BRANCH   2   3
HETATM    3  C   UNL     1     -12.075   9.038  72.087  1.00  0.00    -0.412 C  
BRANCH   3   4
HETATM    4  C   UNL     1     -12.294  10.334  71.307  1.00  0.00    -0.506 C  
BRANCH   4   5
HETATM    5  C   UNL     1     -13.392  11.160  71.960  1.00  0.00    -0.384 C  
BRANCH   5   6
HETATM    6  C   UNL     1     -13.181  12.661  71.765  1.00  0.00    -0.457 C  
BRANCH   6   7
HETATM    7  C   UNL     1     -12.285  12.877  70.549  1.00  0.00    -0.395 C  
BRANCH   7   8
HETATM    8  C   UNL     1     -12.013  14.354  70.281  1.00  0.00    -0.321 C  
BRANCH   8   9
HETATM    9  N   UNL     1     -10.935  14.581  69.183  1.00  0.00    -0.261 N  
HETATM   10  C   UNL     1      -9.777  15.406  69.743  1.00  0.00    -0.211 C  
HETATM   11  C   UNL     1     -10.414  13.237  68.671  1.00  0.00    -0.228 C  
BRANCH   9  12
HETATM   12  C   UNL     1     -11.640  15.355  68.033  1.00  0.00    -0.292 C  
BRANCH  12  13
HETATM   13  C   UNL     1     -10.703  16.312  67.303  1.00  0.00    -0.265 C  
BRANCH  13  14
HETATM   14  C   UNL     1     -10.697  16.085  65.793  1.00  0.00    -0.310 C  
BRANCH  14  15
HETATM   15  C   UNL     1      -9.746  14.932  65.473  1.00  0.00    -0.275 C  
BRANCH  15  16
HETATM   16  C   UNL     1     -10.421  13.838  64.658  1.00  0.00    -0.433 C  
BRANCH  16  17
HETATM   17  C   UNL     1     -11.940  13.966  64.759  1.00  0.00    -0.426 C  
BRANCH  17  18
HETATM   18  C   UNL     1     -12.609  12.597  64.812  1.00  0.00    -0.530 C  
HETATM   19  C   UNL     1     -12.464  11.864  63.488  1.00  0.00    -0.609 C  
ENDBRANCH  17  18
ENDBRANCH  16  17
ENDBRANCH  15  16
ENDBRANCH  14  15
ENDBRANCH  13  14
ENDBRANCH  12  13
ENDBRANCH   9  12
ENDBRANCH   8   9
ENDBRANCH   7   8
ENDBRANCH   6   7
ENDBRANCH   5   6
ENDBRANCH   4   5
ENDBRANCH   3   4
ENDBRANCH   2   3
TORSDOF 14
ENDMDL
MODEL      103
REMARK 921   NORMALIZED FREE ENERGY PREDICTED BY IDOCK:   -3.31 KCAL/MOL
REMARK 922        TOTAL FREE ENERGY PREDICTED BY IDOCK:   -7.75 KCAL/MOL
REMARK 923 INTER-LIGAND FREE ENERGY PREDICTED BY IDOCK:   -6.73 KCAL/MOL
REMARK 924 INTRA-LIGAND FREE ENERGY PREDICTED BY IDOCK:   -1.02 KCAL/MOL
REMARK 927      BINDING AFFINITY PREDICTED BY RF-SCORE:    0.00 PKD
ROOT
HETATM    1  C   UNL     1     -12.154  15.931  72.000  1.00  0.00    -0.591 C  
HETATM    2  C   UNL     1     -13.524  15.604  72.570  1.00  0.00    -0.630 C  
ENDROOT
BRANCH   2   3
HETATM    3  C   UNL     1     -14.092  14.337  71.942  1.00  0.00    -0.586 C  
BRANCH   3   4
HETATM    4  C   UNL     1     -12.982  13.345  71.596  1.00  0.00    -0.445 C  
BRANCH   4   5
HETATM    5  C   UNL     1     -13.395  11.936  71.996  1.00  0.00    -0.425 C  
BRANCH   5   6
HETATM    6  C   UNL     1     -12.873  10.881  71.020  1.00  0.00    -0.472 C  
BRANCH   6   7
HETATM    7  C   UNL     1     -13.041   9.502  71.650  1.00  0.00    -0.486 C  
BRANCH   7   8
HETATM    8  C   UNL     1     -11.761   9.007  72.317  1.00  0.00    -0.213 C  
BRANCH   8   9
HETATM    9  N   UNL     1     -11.365   7.570  71.872  1.00  0.00    -0.252 N  
HETATM   10  C   UNL     1     -10.566   6.877  72.976  1.00  0.00    -0.278 C  
HETATM   11  C   UNL     1     -12.618   6.755  71.549  1.00  0.00    -0.322 C  
BRANCH   9  12
HETATM   12  C   UNL     1     -10.490   7.735  70.597  1.00  0.00    -0.213 C  
BRANCH  12  13
HETATM   13  C   UNL     1      -9.296   8.660  70.815  1.00  0.00    -0.231 C  
BRANCH  13  14
HETATM   14  C   UNL     1      -9.102   9.643  69.662  1.00  0.00    -0.224 C  
BRANCH  14  15
HETATM   15  C   UNL     1     -10.330   9.585  68.754  1.00  0.00    -0.228 C  
BRANCH  15  16
HETATM   16  C   UNL     1     -10.240  10.574  67.600  1.00  0.00    -0.234 C  
BRANCH  16  17
HETATM   17  C   UNL     1     -10.215   9.829  66.267  1.00  0.00    -0.282 C  
BRANCH  17  18
HETATM   18  C   UNL     1      -9.183  10.427  65.317  1.00  0.00    -0.240 C  
HETATM   19  C   UNL     1      -9.764  10.613  63.925  1.00  0.00    -0.378 C  
ENDBRANCH  17  18
ENDBRANCH  16  17
ENDBRANCH  15  16
ENDBRANCH  14  15
ENDBRANCH  13  14
ENDBRANCH  12  13
ENDBRANCH   9  12
ENDBRANCH   8   9
ENDBRANCH   7   8
ENDBRANCH   6   7
ENDBRANCH   5   6
ENDBRANCH   4   5
ENDBRANCH   3   4
ENDBRANCH   2   3
TORSDOF 14
ENDMDL
MODEL      104
REMARK 921   NORMALIZED FREE ENERGY PREDICTED BY IDOCK:   -3.30 KCAL/MOL
REMARK 922        TOTAL FREE ENERGY PREDICTED BY IDOCK:   -7.73 KCAL/MOL
REMARK 923 INTER-LIGAND FREE ENERGY PREDICTED BY IDOCK:   -6.83 KCAL/MOL
REMARK 924 INTRA-LIGAND FREE ENERGY PREDICTED BY IDOCK:   -0.90 KCAL/MOL
REMARK 927      BINDING AFFINITY PREDICTED BY RF-SCORE:    0.00 PKD
ROOT
HETATM    1  C   UNL     1     -10.821   3.689  73.305  1.00  0.00    -0.290 C  
HETATM    2  C   UNL     1     -11.142   5.175  73.328  1.00  0.00    -0.392 C  
ENDROOT
BRANCH   2   3
HETATM    3  C   UNL     1     -11.102   5.767  71.924  1.00  0.00    -0.308 C  
BRANCH   3   4
HETATM    4  C   UNL     1     -12.261   6.738  71.699  1.00  0.00    -0.410 C  
BRANCH   4   5
HETATM    5  C   UNL     1     -11.775   7.973  70.956  1.00  0.00    -0.295 C  
BRANCH   5   6
HETATM    6  C   UNL     1     -12.483   9.245  71.422  1.00  0.00    -0.418 C  
BRANCH   6   7
HETATM    7  C   UNL     1     -11.846  10.444  70.727  1.00  0.00    -0.466 C  
BRANCH   7   8
HETATM    8  C   UNL     1     -10.511  10.098  70.074  1.00  0.00    -0.274 C  
BRANCH   8   9
HETATM    9  N   UNL     1     -10.308  10.803  68.702  1.00  0.00    -0.182 N  
HETATM   10  C   UNL     1      -8.836  11.165  68.508  1.00  0.00    -0.161 C  
HETATM   11  C   UNL     1     -10.771   9.887  67.568  1.00  0.00    -0.272 C  
BRANCH   9  12
HETATM   12  C   UNL     1     -11.179  12.090  68.740  1.00  0.00    -0.263 C  
BRANCH  12  13
HETATM   13  C   UNL     1     -11.883  12.367  67.416  1.00  0.00    -0.360 C  
BRANCH  13  14
HETATM   14  C   UNL     1     -11.661  13.796  66.925  1.00  0.00    -0.424 C  
BRANCH  14  15
HETATM   15  C   UNL     1     -11.940  13.849  65.424  1.00  0.00    -0.393 C  
BRANCH  15  16
HETATM   16  C   UNL     1     -12.617  12.582  64.919  1.00  0.00    -0.469 C  
BRANCH  16  17
HETATM   17  C   UNL     1     -11.894  12.055  63.680  1.00  0.00    -0.602 C  
BRANCH  17  18
HETATM   18  C   UNL     1     -10.655  11.253  64.061  1.00  0.00    -0.450 C  
HETATM   19  C   UNL     1      -9.538  11.457  63.052  1.00  0.00    -0.397 C  
ENDBRANCH  17  18
ENDBRANCH  16  17
ENDBRANCH  15  16
ENDBRANCH  14  15
ENDBRANCH  13  14
ENDBRANCH  12  13
ENDBRANCH   9  12
ENDBRANCH   8   9
ENDBRANCH   7   8
ENDBRANCH   6   7
ENDBRANCH   5   6
ENDBRANCH   4   5
ENDBRANCH   3   4
ENDBRANCH   2   3
TORSDOF 14
ENDMDL
MODEL      105
REMARK 921   NORMALIZED FREE ENERGY PREDICTED BY IDOCK:   -3.29 KCAL/MOL
REMARK 922        TOTAL FREE ENERGY PREDICTED BY IDOCK:   -7.72 KCAL/MOL
REMARK 923 INTER-LIGAND FREE ENERGY PREDICTED BY IDOCK:   -5.39 KCAL/MOL
REMARK 924 INTRA-LIGAND FREE ENERGY PREDICTED BY IDOCK:   -2.34 KCAL/MOL
REMARK 927      BINDING AFFINITY PREDICTED BY RF-SCORE:    0.00 PKD
ROOT
HETATM    1  C   UNL     1      -7.907   5.390  72.208  1.00  0.00    -0.103 C  
HETATM    2  C   UNL     1      -8.413   6.630  72.929  1.00  0.00    -0.123 C  
ENDROOT
BRANCH   2   3
HETATM    3  C   UNL     1      -7.902   7.900  72.259  1.00  0.00    -0.138 C  
BRANCH   3   4
HETATM    4  C   UNL     1      -9.051   8.712  71.662  1.00  0.00    -0.318 C  
BRANCH   4   5
HETATM    5  C   UNL     1      -8.576   9.464  70.428  1.00  0.00    -0.266 C  
BRANCH   5   6
HETATM    6  C   UNL     1      -8.862   8.698  69.137  1.00  0.00    -0.137 C  
BRANCH   6   7
HETATM    7  C   UNL     1      -9.732   9.565  68.233  1.00  0.00    -0.163 C  
BRANCH   7   8
HETATM    8  C   UNL     1      -9.661  11.044  68.601  1.00  0.00    -0.195 C  
BRANCH   8   9
HETATM    9  N   UNL     1     -10.975  11.812  68.278  1.00  0.00    -0.214 N  
HETATM   10  C   UNL     1     -10.844  13.278  68.687  1.00  0.00    -0.259 C  
HETATM   11  C   UNL     1     -11.285  11.717  66.783  1.00  0.00    -0.328 C  
BRANCH   9  12
HETATM   12  C   UNL     1     -12.097  11.121  69.102  1.00  0.00    -0.283 C  
BRANCH  12  13
HETATM   13  C   UNL     1     -12.069  11.505  70.578  1.00  0.00    -0.472 C  
BRANCH  13  14
HETATM   14  C   UNL     1     -12.716  10.447  71.469  1.00  0.00    -0.564 C  
BRANCH  14  15
HETATM   15  C   UNL     1     -12.284   9.064  70.984  1.00  0.00    -0.275 C  
BRANCH  15  16
HETATM   16  C   UNL     1     -12.696   7.960  71.948  1.00  0.00    -0.341 C  
BRANCH  16  17
HETATM   17  C   UNL     1     -12.001   6.651  71.580  1.00  0.00    -0.402 C  
BRANCH  17  18
HETATM   18  C   UNL     1     -11.740   6.565  70.080  1.00  0.00    -0.419 C  
HETATM   19  C   UNL     1     -10.637   5.565  69.772  1.00  0.00    -0.388 C  
ENDBRANCH  17  18
ENDBRANCH  16  17
ENDBRANCH  15  16
ENDBRANCH  14  15
ENDBRANCH  13  14
ENDBRANCH  12  13
ENDBRANCH   9  12
ENDBRANCH   8   9
ENDBRANCH   7   8
ENDBRANCH   6   7
ENDBRANCH   5   6
ENDBRANCH   4   5
ENDBRANCH   3   4
ENDBRANCH   2   3
TORSDOF 14
ENDMDL
MODEL      106
REMARK 921   NORMALIZED FREE ENERGY PREDICTED BY IDOCK:   -3.29 KCAL/MOL
REMARK 922        TOTAL FREE ENERGY PREDICTED BY IDOCK:   -7.72 KCAL/MOL
REMARK 923 INTER-LIGAND FREE ENERGY PREDICTED BY IDOCK:   -6.80 KCAL/MOL
REMARK 924 INTRA-LIGAND FREE ENERGY PREDICTED BY IDOCK:   -0.92 KCAL/MOL
REMARK 927      BINDING AFFINITY PREDICTED BY RF-SCORE:    0.00 PKD
ROOT
HETATM    1  C   UNL     1     -12.512  10.020  71.026  1.00  0.00    -0.460 C  
HETATM    2  C   UNL     1     -12.740   9.288  72.339  1.00  0.00    -0.383 C  
ENDROOT
BRANCH   2   3
HETATM    3  C   UNL     1     -11.973   7.972  72.375  1.00  0.00    -0.405 C  
BRANCH   3   4
HETATM    4  C   UNL     1     -12.233   7.145  71.116  1.00  0.00    -0.405 C  
BRANCH   4   5
HETATM    5  C   UNL     1     -10.915   6.683  70.511  1.00  0.00    -0.337 C  
BRANCH   5   6
HETATM    6  C   UNL     1     -10.941   6.705  68.983  1.00  0.00    -0.332 C  
BRANCH   6   7
HETATM    7  C   UNL     1     -10.333   8.018  68.500  1.00  0.00    -0.229 C  
BRANCH   7   8
HETATM    8  C   UNL     1     -10.491   8.214  66.995  1.00  0.00    -0.326 C  
BRANCH   8   9
HETATM    9  N   UNL     1      -9.379   9.112  66.382  1.00  0.00    -0.187 N  
HETATM   10  C   UNL     1      -8.525   9.724  67.492  1.00  0.00    -0.122 C  
HETATM   11  C   UNL     1      -8.496   8.290  65.442  1.00  0.00    -0.172 C  
BRANCH   9  12
HETATM   12  C   UNL     1     -10.111  10.231  65.588  1.00  0.00    -0.271 C  
BRANCH  12  13
HETATM   13  C   UNL     1      -9.624  10.349  64.147  1.00  0.00    -0.381 C  
BRANCH  13  14
HETATM   14  C   UNL     1     -10.064  11.653  63.488  1.00  0.00    -0.455 C  
BRANCH  14  15
HETATM   15  C   UNL     1     -11.567  11.830  63.703  1.00  0.00    -0.521 C  
BRANCH  15  16
HETATM   16  C   UNL     1     -11.943  13.280  63.977  1.00  0.00    -0.525 C  
BRANCH  16  17
HETATM   17  C   UNL     1     -12.500  13.422  65.392  1.00  0.00    -0.543 C  
BRANCH  17  18
HETATM   18  C   UNL     1     -11.435  13.929  66.358  1.00  0.00    -0.354 C  
HETATM   19  C   UNL     1     -12.027  14.203  67.731  1.00  0.00    -0.389 C  
ENDBRANCH  17  18
ENDBRANCH  16  17
ENDBRANCH  15  16
ENDBRANCH  14  15
ENDBRANCH  13  14
ENDBRANCH  12  13
ENDBRANCH   9  12
ENDBRANCH   8   9
ENDBRANCH   7   8
ENDBRANCH   6   7
ENDBRANCH   5   6
ENDBRANCH   4   5
ENDBRANCH   3   4
ENDBRANCH   2   3
TORSDOF 14
ENDMDL
MODEL      107
REMARK 921   NORMALIZED FREE ENERGY PREDICTED BY IDOCK:   -3.29 KCAL/MOL
REMARK 922        TOTAL FREE ENERGY PREDICTED BY IDOCK:   -7.72 KCAL/MOL
REMARK 923 INTER-LIGAND FREE ENERGY PREDICTED BY IDOCK:   -6.49 KCAL/MOL
REMARK 924 INTRA-LIGAND FREE ENERGY PREDICTED BY IDOCK:   -1.23 KCAL/MOL
REMARK 927      BINDING AFFINITY PREDICTED BY RF-SCORE:    0.00 PKD
ROOT
HETATM    1  C   UNL     1     -12.648  12.025  63.464  1.00  0.00    -0.625 C  
HETATM    2  C   UNL     1     -12.208  12.871  64.648  1.00  0.00    -0.494 C  
ENDROOT
BRANCH   2   3
HETATM    3  C   UNL     1     -10.697  12.809  64.836  1.00  0.00    -0.329 C  
BRANCH   3   4
HETATM    4  C   UNL     1     -10.311  11.753  65.872  1.00  0.00    -0.280 C  
BRANCH   4   5
HETATM    5  C   UNL     1     -11.398  11.635  66.930  1.00  0.00    -0.364 C  
BRANCH   5   6
HETATM    6  C   UNL     1     -10.829  11.665  68.349  1.00  0.00    -0.257 C  
BRANCH   6   7
HETATM    7  C   UNL     1     -10.365  13.084  68.663  1.00  0.00    -0.203 C  
BRANCH   7   8
HETATM    8  C   UNL     1     -11.527  14.017  68.993  1.00  0.00    -0.296 C  
BRANCH   8   9
HETATM    9  N   UNL     1     -11.059  15.445  69.396  1.00  0.00    -0.262 N  
HETATM   10  C   UNL     1     -11.727  15.869  70.704  1.00  0.00    -0.384 C  
HETATM   11  C   UNL     1      -9.538  15.475  69.557  1.00  0.00    -0.278 C  
BRANCH   9  12
HETATM   12  C   UNL     1     -11.493  16.389  68.239  1.00  0.00    -0.143 C  
BRANCH  12  13
HETATM   13  C   UNL     1     -10.489  16.417  67.091  1.00  0.00    -0.297 C  
BRANCH  13  14
HETATM   14  C   UNL     1     -10.237  17.831  66.571  1.00  0.00    -0.358 C  
BRANCH  14  15
HETATM   15  C   UNL     1     -10.832  18.832  67.560  1.00  0.00    -0.396 C  
BRANCH  15  16
HETATM   16  C   UNL     1      -9.876  19.977  67.865  1.00  0.00    -0.538 C  
BRANCH  16  17
HETATM   17  C   UNL     1      -8.862  19.550  68.924  1.00  0.00    -0.297 C  
BRANCH  17  18
HETATM   18  C   UNL     1      -7.435  19.643  68.394  1.00  0.00    -0.359 C  
HETATM   19  C   UNL     1      -7.409  20.223  66.990  1.00  0.00    -0.327 C  
ENDBRANCH  17  18
ENDBRANCH  16  17
ENDBRANCH  15  16
ENDBRANCH  14  15
ENDBRANCH  13  14
ENDBRANCH  12  13
ENDBRANCH   9  12
ENDBRANCH   8   9
ENDBRANCH   7   8
ENDBRANCH   6   7
ENDBRANCH   5   6
ENDBRANCH   4   5
ENDBRANCH   3   4
ENDBRANCH   2   3
TORSDOF 14
ENDMDL
MODEL      108
REMARK 921   NORMALIZED FREE ENERGY PREDICTED BY IDOCK:   -3.29 KCAL/MOL
REMARK 922        TOTAL FREE ENERGY PREDICTED BY IDOCK:   -7.71 KCAL/MOL
REMARK 923 INTER-LIGAND FREE ENERGY PREDICTED BY IDOCK:   -6.76 KCAL/MOL
REMARK 924 INTRA-LIGAND FREE ENERGY PREDICTED BY IDOCK:   -0.95 KCAL/MOL
REMARK 927      BINDING AFFINITY PREDICTED BY RF-SCORE:    0.00 PKD
ROOT
HETATM    1  C   UNL     1     -10.898   6.174  66.961  1.00  0.00    -0.435 C  
HETATM    2  C   UNL     1     -10.695   7.654  67.247  1.00  0.00    -0.344 C  
ENDROOT
BRANCH   2   3
HETATM    3  C   UNL     1      -9.213   8.000  67.323  1.00  0.00    -0.164 C  
BRANCH   3   4
HETATM    4  C   UNL     1      -8.885   9.225  66.471  1.00  0.00    -0.154 C  
BRANCH   4   5
HETATM    5  C   UNL     1     -10.161   9.811  65.883  1.00  0.00    -0.314 C  
BRANCH   5   6
HETATM    6  C   UNL     1      -9.908  10.539  64.563  1.00  0.00    -0.401 C  
BRANCH   6   7
HETATM    7  C   UNL     1     -11.044  11.529  64.322  1.00  0.00    -0.385 C  
BRANCH   7   8
HETATM    8  C   UNL     1     -10.549  12.969  64.223  1.00  0.00    -0.412 C  
BRANCH   8   9
HETATM    9  N   UNL     1     -11.285  13.929  65.201  1.00  0.00    -0.314 N  
HETATM   10  C   UNL     1     -11.302  15.348  64.633  1.00  0.00    -0.355 C  
HETATM   11  C   UNL     1     -12.717  13.446  65.434  1.00  0.00    -0.426 C  
BRANCH   9  12
HETATM   12  C   UNL     1     -10.484  13.892  66.533  1.00  0.00    -0.282 C  
BRANCH  12  13
HETATM   13  C   UNL     1     -11.376  13.688  67.754  1.00  0.00    -0.336 C  
BRANCH  13  14
HETATM   14  C   UNL     1     -11.556  14.969  68.565  1.00  0.00    -0.348 C  
BRANCH  14  15
HETATM   15  C   UNL     1     -10.195  15.644  68.728  1.00  0.00    -0.215 C  
BRANCH  15  16
HETATM   16  C   UNL     1     -10.303  17.163  68.747  1.00  0.00    -0.353 C  
BRANCH  16  17
HETATM   17  C   UNL     1     -10.344  17.707  67.321  1.00  0.00    -0.354 C  
BRANCH  17  18
HETATM   18  C   UNL     1     -10.731  19.182  67.301  1.00  0.00    -0.585 C  
HETATM   19  C   UNL     1     -10.500  19.790  65.927  1.00  0.00    -0.587 C  
ENDBRANCH  17  18
ENDBRANCH  16  17
ENDBRANCH  15  16
ENDBRANCH  14  15
ENDBRANCH  13  14
ENDBRANCH  12  13
ENDBRANCH   9  12
ENDBRANCH   8   9
ENDBRANCH   7   8
ENDBRANCH   6   7
ENDBRANCH   5   6
ENDBRANCH   4   5
ENDBRANCH   3   4
ENDBRANCH   2   3
TORSDOF 14
ENDMDL
MODEL      109
REMARK 921   NORMALIZED FREE ENERGY PREDICTED BY IDOCK:   -3.28 KCAL/MOL
REMARK 922        TOTAL FREE ENERGY PREDICTED BY IDOCK:   -7.70 KCAL/MOL
REMARK 923 INTER-LIGAND FREE ENERGY PREDICTED BY IDOCK:   -6.69 KCAL/MOL
REMARK 924 INTRA-LIGAND FREE ENERGY PREDICTED BY IDOCK:   -1.01 KCAL/MOL
REMARK 927      BINDING AFFINITY PREDICTED BY RF-SCORE:    0.00 PKD
ROOT
HETATM    1  C   UNL     1      -9.661   9.017  66.206  1.00  0.00    -0.327 C  
HETATM    2  C   UNL     1      -9.838  10.411  65.626  1.00  0.00    -0.321 C  
ENDROOT
BRANCH   2   3
HETATM    3  C   UNL     1      -9.728  10.393  64.106  1.00  0.00    -0.387 C  
BRANCH   3   4
HETATM    4  C   UNL     1     -10.377  11.631  63.489  1.00  0.00    -0.488 C  
BRANCH   4   5
HETATM    5  C   UNL     1     -11.702  11.927  64.176  1.00  0.00    -0.428 C  
BRANCH   5   6
HETATM    6  C   UNL     1     -12.027  13.420  64.187  1.00  0.00    -0.505 C  
BRANCH   6   7
HETATM    7  C   UNL     1     -11.745  13.974  65.580  1.00  0.00    -0.353 C  
BRANCH   7   8
HETATM    8  C   UNL     1     -12.059  12.967  66.682  1.00  0.00    -0.289 C  
BRANCH   8   9
HETATM    9  N   UNL     1     -11.300  13.264  68.007  1.00  0.00    -0.273 N  
HETATM   10  C   UNL     1      -9.870  13.713  67.706  1.00  0.00    -0.232 C  
HETATM   11  C   UNL     1     -12.028  14.351  68.798  1.00  0.00    -0.295 C  
BRANCH   9  12
HETATM   12  C   UNL     1     -11.288  11.933  68.810  1.00  0.00    -0.274 C  
BRANCH  12  13
HETATM   13  C   UNL     1     -12.081  12.020  70.110  1.00  0.00    -0.377 C  
BRANCH  13  14
HETATM   14  C   UNL     1     -12.968  10.798  70.335  1.00  0.00    -0.196 C  
BRANCH  14  15
HETATM   15  C   UNL     1     -12.666  10.219  71.717  1.00  0.00    -0.535 C  
BRANCH  15  16
HETATM   16  C   UNL     1     -13.582   9.054  72.066  1.00  0.00    -0.500 C  
BRANCH  16  17
HETATM   17  C   UNL     1     -12.900   7.728  71.734  1.00  0.00    -0.352 C  
BRANCH  17  18
HETATM   18  C   UNL     1     -11.382   7.852  71.813  1.00  0.00    -0.309 C  
HETATM   19  C   UNL     1     -10.709   7.049  70.711  1.00  0.00    -0.252 C  
ENDBRANCH  17  18
ENDBRANCH  16  17
ENDBRANCH  15  16
ENDBRANCH  14  15
ENDBRANCH  13  14
ENDBRANCH  12  13
ENDBRANCH   9  12
ENDBRANCH   8   9
ENDBRANCH   7   8
ENDBRANCH   6   7
ENDBRANCH   5   6
ENDBRANCH   4   5
ENDBRANCH   3   4
ENDBRANCH   2   3
TORSDOF 14
ENDMDL
MODEL      110
REMARK 921   NORMALIZED FREE ENERGY PREDICTED BY IDOCK:   -3.27 KCAL/MOL
REMARK 922        TOTAL FREE ENERGY PREDICTED BY IDOCK:   -7.67 KCAL/MOL
REMARK 923 INTER-LIGAND FREE ENERGY PREDICTED BY IDOCK:   -5.91 KCAL/MOL
REMARK 924 INTRA-LIGAND FREE ENERGY PREDICTED BY IDOCK:   -1.77 KCAL/MOL
REMARK 927      BINDING AFFINITY PREDICTED BY RF-SCORE:    0.00 PKD
ROOT
HETATM    1  C   UNL     1      -9.367   9.967  64.162  1.00  0.00    -0.335 C  
HETATM    2  C   UNL     1      -9.873  10.941  63.109  1.00  0.00    -0.392 C  
ENDROOT
BRANCH   2   3
HETATM    3  C   UNL     1     -10.387  12.224  63.751  1.00  0.00    -0.464 C  
BRANCH   3   4
HETATM    4  C   UNL     1     -11.859  12.461  63.413  1.00  0.00    -0.571 C  
BRANCH   4   5
HETATM    5  C   UNL     1     -12.680  12.562  64.690  1.00  0.00    -0.434 C  
BRANCH   5   6
HETATM    6  C   UNL     1     -11.810  12.486  65.945  1.00  0.00    -0.489 C  
BRANCH   6   7
HETATM    7  C   UNL     1     -11.959  13.788  66.726  1.00  0.00    -0.465 C  
BRANCH   7   8
HETATM    8  C   UNL     1     -11.113  14.916  66.144  1.00  0.00    -0.335 C  
BRANCH   8   9
HETATM    9  N   UNL     1     -10.089  15.492  67.163  1.00  0.00    -0.250 N  
HETATM   10  C   UNL     1      -8.907  16.121  66.426  1.00  0.00    -0.320 C  
HETATM   11  C   UNL     1     -10.762  16.539  68.051  1.00  0.00    -0.343 C  
BRANCH   9  12
HETATM   12  C   UNL     1      -9.608  14.290  68.024  1.00  0.00    -0.223 C  
BRANCH  12  13
HETATM   13  C   UNL     1      -8.088  14.201  68.120  1.00  0.00    -0.148 C  
BRANCH  13  14
HETATM   14  C   UNL     1      -7.544  12.886  67.568  1.00  0.00    -0.164 C  
BRANCH  14  15
HETATM   15  C   UNL     1      -8.718  11.956  67.267  1.00  0.00    -0.171 C  
BRANCH  15  16
HETATM   16  C   UNL     1      -8.724  10.727  68.166  1.00  0.00    -0.130 C  
BRANCH  16  17
HETATM   17  C   UNL     1     -10.151  10.212  68.345  1.00  0.00    -0.184 C  
BRANCH  17  18
HETATM   18  C   UNL     1     -10.443   9.050  67.401  1.00  0.00    -0.338 C  
HETATM   19  C   UNL     1      -9.280   8.072  67.360  1.00  0.00    -0.155 C  
ENDBRANCH  17  18
ENDBRANCH  16  17
ENDBRANCH  15  16
ENDBRANCH  14  15
ENDBRANCH  13  14
ENDBRANCH  12  13
ENDBRANCH   9  12
ENDBRANCH   8   9
ENDBRANCH   7   8
ENDBRANCH   6   7
ENDBRANCH   5   6
ENDBRANCH   4   5
ENDBRANCH   3   4
ENDBRANCH   2   3
TORSDOF 14
ENDMDL
MODEL      111
REMARK 921   NORMALIZED FREE ENERGY PREDICTED BY IDOCK:   -3.26 KCAL/MOL
REMARK 922        TOTAL FREE ENERGY PREDICTED BY IDOCK:   -7.67 KCAL/MOL
REMARK 923 INTER-LIGAND FREE ENERGY PREDICTED BY IDOCK:   -6.13 KCAL/MOL
REMARK 924 INTRA-LIGAND FREE ENERGY PREDICTED BY IDOCK:   -1.54 KCAL/MOL
REMARK 927      BINDING AFFINITY PREDICTED BY RF-SCORE:    0.00 PKD
ROOT
HETATM    1  C   UNL     1     -11.076   7.597  72.874  1.00  0.00    -0.448 C  
HETATM    2  C   UNL     1      -9.674   7.869  72.351  1.00  0.00    -0.275 C  
ENDROOT
BRANCH   2   3
HETATM    3  C   UNL     1      -9.653   9.096  71.449  1.00  0.00    -0.316 C  
BRANCH   3   4
HETATM    4  C   UNL     1      -9.241   8.729  70.023  1.00  0.00    -0.173 C  
BRANCH   4   5
HETATM    5  C   UNL     1     -10.432   8.167  69.262  1.00  0.00    -0.221 C  
BRANCH   5   6
HETATM    6  C   UNL     1     -10.248   8.262  67.747  1.00  0.00    -0.282 C  
BRANCH   6   7
HETATM    7  C   UNL     1      -9.656   9.627  67.409  1.00  0.00    -0.183 C  
BRANCH   7   8
HETATM    8  C   UNL     1     -10.692  10.581  66.823  1.00  0.00    -0.188 C  
BRANCH   8   9
HETATM    9  N   UNL     1     -10.624  12.005  67.447  1.00  0.00    -0.218 N  
HETATM   10  C   UNL     1      -9.343  12.160  68.267  1.00  0.00    -0.198 C  
HETATM   11  C   UNL     1     -10.666  13.065  66.345  1.00  0.00    -0.282 C  
BRANCH   9  12
HETATM   12  C   UNL     1     -11.871  12.138  68.366  1.00  0.00    -0.303 C  
BRANCH  12  13
HETATM   13  C   UNL     1     -11.567  11.814  69.826  1.00  0.00    -0.372 C  
BRANCH  13  14
HETATM   14  C   UNL     1     -12.696  11.036  70.498  1.00  0.00    -0.331 C  
BRANCH  14  15
HETATM   15  C   UNL     1     -12.916  11.603  71.900  1.00  0.00    -0.442 C  
BRANCH  15  16
HETATM   16  C   UNL     1     -13.331  13.068  71.870  1.00  0.00    -0.539 C  
BRANCH  16  17
HETATM   17  C   UNL     1     -12.429  13.890  72.789  1.00  0.00     0.014 C  
BRANCH  17  18
HETATM   18  C   UNL     1     -12.986  15.292  73.003  1.00  0.00    -0.599 C  
HETATM   19  C   UNL     1     -12.439  15.911  74.278  1.00  0.00    -0.773 C  
ENDBRANCH  17  18
ENDBRANCH  16  17
ENDBRANCH  15  16
ENDBRANCH  14  15
ENDBRANCH  13  14
ENDBRANCH  12  13
ENDBRANCH   9  12
ENDBRANCH   8   9
ENDBRANCH   7   8
ENDBRANCH   6   7
ENDBRANCH   5   6
ENDBRANCH   4   5
ENDBRANCH   3   4
ENDBRANCH   2   3
TORSDOF 14
ENDMDL
MODEL      112
REMARK 921   NORMALIZED FREE ENERGY PREDICTED BY IDOCK:   -3.25 KCAL/MOL
REMARK 922        TOTAL FREE ENERGY PREDICTED BY IDOCK:   -7.65 KCAL/MOL
REMARK 923 INTER-LIGAND FREE ENERGY PREDICTED BY IDOCK:   -5.58 KCAL/MOL
REMARK 924 INTRA-LIGAND FREE ENERGY PREDICTED BY IDOCK:   -2.07 KCAL/MOL
REMARK 927      BINDING AFFINITY PREDICTED BY RF-SCORE:    0.00 PKD
ROOT
HETATM    1  C   UNL     1     -11.018   6.573  67.115  1.00  0.00    -0.480 C  
HETATM    2  C   UNL     1     -10.598   8.032  67.203  1.00  0.00    -0.367 C  
ENDROOT
BRANCH   2   3
HETATM    3  C   UNL     1      -9.084   8.162  67.310  1.00  0.00    -0.156 C  
BRANCH   3   4
HETATM    4  C   UNL     1      -8.675   8.793  68.641  1.00  0.00    -0.134 C  
BRANCH   4   5
HETATM    5  C   UNL     1      -7.621   9.866  68.410  1.00  0.00    -0.083 C  
BRANCH   5   6
HETATM    6  C   UNL     1      -8.181  11.276  68.593  1.00  0.00    -0.146 C  
BRANCH   6   7
HETATM    7  C   UNL     1      -8.513  11.855  67.221  1.00  0.00    -0.172 C  
BRANCH   7   8
HETATM    8  C   UNL     1      -9.584  12.939  67.290  1.00  0.00    -0.220 C  
BRANCH   8   9
HETATM    9  N   UNL     1     -10.956  12.470  66.725  1.00  0.00    -0.256 N  
HETATM   10  C   UNL     1     -11.778  13.675  66.270  1.00  0.00    -0.367 C  
HETATM   11  C   UNL     1     -10.742  11.515  65.550  1.00  0.00    -0.272 C  
BRANCH   9  12
HETATM   12  C   UNL     1     -11.677  11.734  67.889  1.00  0.00    -0.276 C  
BRANCH  12  13
HETATM   13  C   UNL     1     -11.850  12.610  69.126  1.00  0.00    -0.349 C  
BRANCH  13  14
HETATM   14  C   UNL     1     -12.090  11.791  70.392  1.00  0.00    -0.440 C  
BRANCH  14  15
HETATM   15  C   UNL     1     -11.518  10.389  70.186  1.00  0.00    -0.396 C  
BRANCH  15  16
HETATM   16  C   UNL     1     -12.128   9.372  71.142  1.00  0.00    -0.406 C  
BRANCH  16  17
HETATM   17  C   UNL     1     -11.170   8.200  71.346  1.00  0.00    -0.297 C  
BRANCH  17  18
HETATM   18  C   UNL     1     -11.707   6.927  70.701  1.00  0.00    -0.417 C  
HETATM   19  C   UNL     1     -10.670   5.816  70.735  1.00  0.00    -0.342 C  
ENDBRANCH  17  18
ENDBRANCH  16  17
ENDBRANCH  15  16
ENDBRANCH  14  15
ENDBRANCH  13  14
ENDBRANCH  12  13
ENDBRANCH   9  12
ENDBRANCH   8   9
ENDBRANCH   7   8
ENDBRANCH   6   7
ENDBRANCH   5   6
ENDBRANCH   4   5
ENDBRANCH   3   4
ENDBRANCH   2   3
TORSDOF 14
ENDMDL
MODEL      113
REMARK 921   NORMALIZED FREE ENERGY PREDICTED BY IDOCK:   -3.24 KCAL/MOL
REMARK 922        TOTAL FREE ENERGY PREDICTED BY IDOCK:   -7.62 KCAL/MOL
REMARK 923 INTER-LIGAND FREE ENERGY PREDICTED BY IDOCK:   -6.50 KCAL/MOL
REMARK 924 INTRA-LIGAND FREE ENERGY PREDICTED BY IDOCK:   -1.12 KCAL/MOL
REMARK 927      BINDING AFFINITY PREDICTED BY RF-SCORE:    0.00 PKD
ROOT
HETATM    1  C   UNL     1      -8.508  20.331  67.240  1.00  0.00    -0.415 C  
HETATM    2  C   UNL     1     -10.023  20.302  67.116  1.00  0.00    -0.593 C  
ENDROOT
BRANCH   2   3
HETATM    3  C   UNL     1     -10.565  18.896  67.342  1.00  0.00    -0.534 C  
BRANCH   3   4
HETATM    4  C   UNL     1      -9.742  18.146  68.389  1.00  0.00    -0.363 C  
BRANCH   4   5
HETATM    5  C   UNL     1      -9.841  16.645  68.158  1.00  0.00    -0.250 C  
BRANCH   5   6
HETATM    6  C   UNL     1      -8.823  16.150  67.132  1.00  0.00    -0.218 C  
BRANCH   6   7
HETATM    7  C   UNL     1      -9.573  15.591  65.926  1.00  0.00    -0.383 C  
BRANCH   7   8
HETATM    8  C   UNL     1     -11.053  15.362  66.216  1.00  0.00    -0.226 C  
BRANCH   8   9
HETATM    9  N   UNL     1     -11.472  13.870  66.079  1.00  0.00    -0.331 N  
HETATM   10  C   UNL     1     -12.581  13.727  65.037  1.00  0.00    -0.389 C  
HETATM   11  C   UNL     1     -10.267  13.021  65.674  1.00  0.00    -0.287 C  
BRANCH   9  12
HETATM   12  C   UNL     1     -11.989  13.433  67.479  1.00  0.00    -0.339 C  
BRANCH  12  13
HETATM   13  C   UNL     1     -10.978  12.586  68.245  1.00  0.00    -0.270 C  
BRANCH  13  14
HETATM   14  C   UNL     1     -11.645  11.628  69.229  1.00  0.00    -0.385 C  
BRANCH  14  15
HETATM   15  C   UNL     1     -11.043  10.236  69.044  1.00  0.00    -0.277 C  
BRANCH  15  16
HETATM   16  C   UNL     1     -10.786   9.910  67.580  1.00  0.00    -0.333 C  
BRANCH  16  17
HETATM   17  C   UNL     1      -9.806   8.743  67.463  1.00  0.00    -0.232 C  
BRANCH  17  18
HETATM   18  C   UNL     1     -10.320   7.512  68.201  1.00  0.00    -0.244 C  
HETATM   19  C   UNL     1     -10.670   6.398  67.229  1.00  0.00    -0.426 C  
ENDBRANCH  17  18
ENDBRANCH  16  17
ENDBRANCH  15  16
ENDBRANCH  14  15
ENDBRANCH  13  14
ENDBRANCH  12  13
ENDBRANCH   9  12
ENDBRANCH   8   9
ENDBRANCH   7   8
ENDBRANCH   6   7
ENDBRANCH   5   6
ENDBRANCH   4   5
ENDBRANCH   3   4
ENDBRANCH   2   3
TORSDOF 14
ENDMDL
MODEL      114
REMARK 921   NORMALIZED FREE ENERGY PREDICTED BY IDOCK:   -3.23 KCAL/MOL
REMARK 922        TOTAL FREE ENERGY PREDICTED BY IDOCK:   -7.60 KCAL/MOL
REMARK 923 INTER-LIGAND FREE ENERGY PREDICTED BY IDOCK:   -6.13 KCAL/MOL
REMARK 924 INTRA-LIGAND FREE ENERGY PREDICTED BY IDOCK:   -1.47 KCAL/MOL
REMARK 927      BINDING AFFINITY PREDICTED BY RF-SCORE:    0.00 PKD
ROOT
HETATM    1  C   UNL     1     -12.916  10.674  71.418  1.00  0.00    -0.545 C  
HETATM    2  C   UNL     1     -13.391   9.248  71.649  1.00  0.00    -0.461 C  
ENDROOT
BRANCH   2   3
HETATM    3  C   UNL     1     -12.311   8.411  72.324  1.00  0.00    -0.436 C  
BRANCH   3   4
HETATM    4  C   UNL     1     -10.978   8.526  71.584  1.00  0.00    -0.362 C  
BRANCH   4   5
HETATM    5  C   UNL     1     -10.495   7.148  71.158  1.00  0.00    -0.225 C  
BRANCH   5   6
HETATM    6  C   UNL     1     -11.192   6.656  69.890  1.00  0.00    -0.421 C  
BRANCH   6   7
HETATM    7  C   UNL     1     -10.158   6.540  68.774  1.00  0.00    -0.178 C  
BRANCH   7   8
HETATM    8  C   UNL     1     -10.542   7.348  67.538  1.00  0.00    -0.269 C  
BRANCH   8   9
HETATM    9  N   UNL     1      -9.504   8.455  67.194  1.00  0.00    -0.154 N  
HETATM   10  C   UNL     1      -8.523   8.636  68.352  1.00  0.00    -0.131 C  
HETATM   11  C   UNL     1      -8.741   8.084  65.921  1.00  0.00    -0.157 C  
BRANCH   9  12
HETATM   12  C   UNL     1     -10.318   9.761  66.969  1.00  0.00    -0.239 C  
BRANCH  12  13
HETATM   13  C   UNL     1     -10.980  10.272  68.245  1.00  0.00    -0.315 C  
BRANCH  13  14
HETATM   14  C   UNL     1     -11.542  11.683  68.085  1.00  0.00    -0.389 C  
BRANCH  14  15
HETATM   15  C   UNL     1     -10.493  12.687  68.563  1.00  0.00    -0.249 C  
BRANCH  15  16
HETATM   16  C   UNL     1     -11.114  14.009  68.992  1.00  0.00    -0.296 C  
BRANCH  16  17
HETATM   17  C   UNL     1     -12.404  13.757  69.770  1.00  0.00    -0.311 C  
BRANCH  17  18
HETATM   18  C   UNL     1     -12.307  14.297  71.193  1.00  0.00    -0.440 C  
HETATM   19  C   UNL     1     -12.958  15.666  71.304  1.00  0.00    -0.556 C  
ENDBRANCH  17  18
ENDBRANCH  16  17
ENDBRANCH  15  16
ENDBRANCH  14  15
ENDBRANCH  13  14
ENDBRANCH  12  13
ENDBRANCH   9  12
ENDBRANCH   8   9
ENDBRANCH   7   8
ENDBRANCH   6   7
ENDBRANCH   5   6
ENDBRANCH   4   5
ENDBRANCH   3   4
ENDBRANCH   2   3
TORSDOF 14
ENDMDL
MODEL      115
REMARK 921   NORMALIZED FREE ENERGY PREDICTED BY IDOCK:   -3.21 KCAL/MOL
REMARK 922        TOTAL FREE ENERGY PREDICTED BY IDOCK:   -7.58 KCAL/MOL
REMARK 923 INTER-LIGAND FREE ENERGY PREDICTED BY IDOCK:   -6.57 KCAL/MOL
REMARK 924 INTRA-LIGAND FREE ENERGY PREDICTED BY IDOCK:   -1.02 KCAL/MOL
REMARK 927      BINDING AFFINITY PREDICTED BY RF-SCORE:    0.00 PKD
ROOT
HETATM    1  C   UNL     1      -8.208  13.369  67.762  1.00  0.00    -0.172 C  
HETATM    2  C   UNL     1      -9.669  13.417  67.345  1.00  0.00    -0.221 C  
ENDROOT
BRANCH   2   3
HETATM    3  C   UNL     1      -9.885  14.420  66.217  1.00  0.00    -0.321 C  
BRANCH   3   4
HETATM    4  C   UNL     1     -10.412  15.751  66.753  1.00  0.00    -0.305 C  
BRANCH   4   5
HETATM    5  C   UNL     1     -11.183  15.528  68.046  1.00  0.00    -0.332 C  
BRANCH   5   6
HETATM    6  C   UNL     1     -10.718  16.459  69.165  1.00  0.00    -0.317 C  
BRANCH   6   7
HETATM    7  C   UNL     1     -11.045  15.814  70.508  1.00  0.00    -0.383 C  
BRANCH   7   8
HETATM    8  C   UNL     1     -12.346  15.017  70.470  1.00  0.00    -0.356 C  
BRANCH   8   9
HETATM    9  N   UNL     1     -12.890  14.680  71.888  1.00  0.00    -0.315 N  
HETATM   10  C   UNL     1     -11.920  15.181  72.958  1.00  0.00    -0.357 C  
HETATM   11  C   UNL     1     -14.262  15.324  72.091  1.00  0.00    -0.571 C  
BRANCH   9  12
HETATM   12  C   UNL     1     -13.010  13.131  71.953  1.00  0.00    -0.314 C  
BRANCH  12  13
HETATM   13  C   UNL     1     -12.348  12.437  70.767  1.00  0.00    -0.377 C  
BRANCH  13  14
HETATM   14  C   UNL     1     -12.827  10.998  70.591  1.00  0.00    -0.305 C  
BRANCH  14  15
HETATM   15  C   UNL     1     -11.615  10.067  70.635  1.00  0.00    -0.422 C  
BRANCH  15  16
HETATM   16  C   UNL     1     -11.668   9.108  71.816  1.00  0.00    -0.456 C  
BRANCH  16  17
HETATM   17  C   UNL     1     -11.321   7.692  71.362  1.00  0.00    -0.285 C  
BRANCH  17  18
HETATM   18  C   UNL     1     -12.578   6.886  71.054  1.00  0.00    -0.319 C  
HETATM   19  C   UNL     1     -13.788   7.462  71.769  1.00  0.00    -0.438 C  
ENDBRANCH  17  18
ENDBRANCH  16  17
ENDBRANCH  15  16
ENDBRANCH  14  15
ENDBRANCH  13  14
ENDBRANCH  12  13
ENDBRANCH   9  12
ENDBRANCH   8   9
ENDBRANCH   7   8
ENDBRANCH   6   7
ENDBRANCH   5   6
ENDBRANCH   4   5
ENDBRANCH   3   4
ENDBRANCH   2   3
TORSDOF 14
ENDMDL
MODEL      116
REMARK 921   NORMALIZED FREE ENERGY PREDICTED BY IDOCK:   -3.21 KCAL/MOL
REMARK 922        TOTAL FREE ENERGY PREDICTED BY IDOCK:   -7.57 KCAL/MOL
REMARK 923 INTER-LIGAND FREE ENERGY PREDICTED BY IDOCK:   -6.11 KCAL/MOL
REMARK 924 INTRA-LIGAND FREE ENERGY PREDICTED BY IDOCK:   -1.47 KCAL/MOL
REMARK 927      BINDING AFFINITY PREDICTED BY RF-SCORE:    0.00 PKD
ROOT
HETATM    1  C   UNL     1      -9.479   9.864  69.969  1.00  0.00    -0.246 C  
HETATM    2  C   UNL     1     -10.833   9.757  70.652  1.00  0.00    -0.396 C  
ENDROOT
BRANCH   2   3
HETATM    3  C   UNL     1     -10.751   8.892  71.904  1.00  0.00    -0.426 C  
BRANCH   3   4
HETATM    4  C   UNL     1     -12.118   8.313  72.268  1.00  0.00    -0.439 C  
BRANCH   4   5
HETATM    5  C   UNL     1     -12.529   7.259  71.251  1.00  0.00    -0.402 C  
BRANCH   5   6
HETATM    6  C   UNL     1     -11.372   6.332  70.878  1.00  0.00    -0.389 C  
BRANCH   6   7
HETATM    7  C   UNL     1     -11.291   6.235  69.358  1.00  0.00    -0.448 C  
BRANCH   7   8
HETATM    8  C   UNL     1      -9.872   6.442  68.836  1.00  0.00    -0.137 C  
BRANCH   8   9
HETATM    9  N   UNL     1      -9.803   6.513  67.284  1.00  0.00    -0.132 N  
HETATM   10  C   UNL     1      -8.351   6.417  66.816  1.00  0.00    -0.111 C  
HETATM   11  C   UNL     1     -10.622   5.378  66.668  1.00  0.00    -0.294 C  
BRANCH   9  12
HETATM   12  C   UNL     1     -10.407   7.888  66.884  1.00  0.00    -0.330 C  
BRANCH  12  13
HETATM   13  C   UNL     1      -9.343   8.916  66.509  1.00  0.00    -0.252 C  
BRANCH  13  14
HETATM   14  C   UNL     1      -9.648   9.615  65.187  1.00  0.00    -0.324 C  
BRANCH  14  15
HETATM   15  C   UNL     1      -9.710  11.122  65.430  1.00  0.00    -0.275 C  
BRANCH  15  16
HETATM   16  C   UNL     1     -10.948  11.756  64.810  1.00  0.00    -0.360 C  
BRANCH  16  17
HETATM   17  C   UNL     1     -11.776  12.457  65.885  1.00  0.00    -0.476 C  
BRANCH  17  18
HETATM   18  C   UNL     1     -10.947  12.727  67.136  1.00  0.00    -0.295 C  
HETATM   19  C   UNL     1     -11.763  12.493  68.396  1.00  0.00    -0.375 C  
ENDBRANCH  17  18
ENDBRANCH  16  17
ENDBRANCH  15  16
ENDBRANCH  14  15
ENDBRANCH  13  14
ENDBRANCH  12  13
ENDBRANCH   9  12
ENDBRANCH   8   9
ENDBRANCH   7   8
ENDBRANCH   6   7
ENDBRANCH   5   6
ENDBRANCH   4   5
ENDBRANCH   3   4
ENDBRANCH   2   3
TORSDOF 14
ENDMDL
MODEL      117
REMARK 921   NORMALIZED FREE ENERGY PREDICTED BY IDOCK:   -3.21 KCAL/MOL
REMARK 922        TOTAL FREE ENERGY PREDICTED BY IDOCK:   -7.57 KCAL/MOL
REMARK 923 INTER-LIGAND FREE ENERGY PREDICTED BY IDOCK:   -6.46 KCAL/MOL
REMARK 924 INTRA-LIGAND FREE ENERGY PREDICTED BY IDOCK:   -1.12 KCAL/MOL
REMARK 927      BINDING AFFINITY PREDICTED BY RF-SCORE:    0.00 PKD
ROOT
HETATM    1  C   UNL     1     -11.384   5.680  71.991  1.00  0.00    -0.241 C  
HETATM    2  C   UNL     1     -10.682   6.401  73.131  1.00  0.00    -0.294 C  
ENDROOT
BRANCH   2   3
HETATM    3  C   UNL     1     -10.717   7.911  72.929  1.00  0.00    -0.440 C  
BRANCH   3   4
HETATM    4  C   UNL     1     -12.088   8.372  72.434  1.00  0.00    -0.443 C  
BRANCH   4   5
HETATM    5  C   UNL     1     -11.938   9.591  71.535  1.00  0.00    -0.475 C  
BRANCH   5   6
HETATM    6  C   UNL     1     -10.565   9.650  70.865  1.00  0.00    -0.386 C  
BRANCH   6   7
HETATM    7  C   UNL     1     -10.722   9.285  69.392  1.00  0.00    -0.222 C  
BRANCH   7   8
HETATM    8  C   UNL     1     -10.299   7.848  69.100  1.00  0.00    -0.219 C  
BRANCH   8   9
HETATM    9  N   UNL     1     -10.072   7.580  67.585  1.00  0.00    -0.173 N  
HETATM   10  C   UNL     1      -8.613   7.203  67.329  1.00  0.00    -0.121 C  
HETATM   11  C   UNL     1     -10.990   6.455  67.106  1.00  0.00    -0.399 C  
BRANCH   9  12
HETATM   12  C   UNL     1     -10.422   8.906  66.851  1.00  0.00    -0.234 C  
BRANCH  12  13
HETATM   13  C   UNL     1      -9.346   9.334  65.858  1.00  0.00    -0.297 C  
BRANCH  13  14
HETATM   14  C   UNL     1      -9.568  10.750  65.332  1.00  0.00    -0.272 C  
BRANCH  14  15
HETATM   15  C   UNL     1     -10.106  10.666  63.905  1.00  0.00    -0.356 C  
BRANCH  15  16
HETATM   16  C   UNL     1     -11.213  11.679  63.646  1.00  0.00    -0.497 C  
BRANCH  16  17
HETATM   17  C   UNL     1     -11.047  12.887  64.566  1.00  0.00    -0.373 C  
BRANCH  17  18
HETATM   18  C   UNL     1     -12.354  13.227  65.275  1.00  0.00    -0.525 C  
HETATM   19  C   UNL     1     -12.099  14.038  66.535  1.00  0.00    -0.488 C  
ENDBRANCH  17  18
ENDBRANCH  16  17
ENDBRANCH  15  16
ENDBRANCH  14  15
ENDBRANCH  13  14
ENDBRANCH  12  13
ENDBRANCH   9  12
ENDBRANCH   8   9
ENDBRANCH   7   8
ENDBRANCH   6   7
ENDBRANCH   5   6
ENDBRANCH   4   5
ENDBRANCH   3   4
ENDBRANCH   2   3
TORSDOF 14
ENDMDL
MODEL      118
REMARK 921   NORMALIZED FREE ENERGY PREDICTED BY IDOCK:   -3.21 KCAL/MOL
REMARK 922        TOTAL FREE ENERGY PREDICTED BY IDOCK:   -7.57 KCAL/MOL
REMARK 923 INTER-LIGAND FREE ENERGY PREDICTED BY IDOCK:   -6.32 KCAL/MOL
REMARK 924 INTRA-LIGAND FREE ENERGY PREDICTED BY IDOCK:   -1.25 KCAL/MOL
REMARK 927      BINDING AFFINITY PREDICTED BY RF-SCORE:    0.00 PKD
ROOT
HETATM    1  C   UNL     1     -10.761  11.824  63.716  1.00  0.00    -0.480 C  
HETATM    2  C   UNL     1     -12.188  12.326  63.873  1.00  0.00    -0.608 C  
ENDROOT
BRANCH   2   3
HETATM    3  C   UNL     1     -12.249  13.846  63.771  1.00  0.00    -0.310 C  
BRANCH   3   4
HETATM    4  C   UNL     1     -11.471  14.509  64.906  1.00  0.00    -0.396 C  
BRANCH   4   5
HETATM    5  C   UNL     1     -12.211  14.330  66.224  1.00  0.00    -0.433 C  
BRANCH   5   6
HETATM    6  C   UNL     1     -11.298  13.807  67.333  1.00  0.00    -0.348 C  
BRANCH   6   7
HETATM    7  C   UNL     1     -11.884  12.511  67.882  1.00  0.00    -0.383 C  
BRANCH   7   8
HETATM    8  C   UNL     1     -11.173  11.274  67.340  1.00  0.00    -0.303 C  
BRANCH   8   9
HETATM    9  N   UNL     1     -10.326  10.542  68.420  1.00  0.00    -0.168 N  
HETATM   10  C   UNL     1     -10.310   9.038  68.148  1.00  0.00    -0.214 C  
HETATM   11  C   UNL     1      -8.896  11.083  68.422  1.00  0.00    -0.151 C  
BRANCH   9  12
HETATM   12  C   UNL     1     -11.012  10.835  69.784  1.00  0.00    -0.252 C  
BRANCH  12  13
HETATM   13  C   UNL     1     -11.767   9.631  70.337  1.00  0.00    -0.266 C  
BRANCH  13  14
HETATM   14  C   UNL     1     -12.666   9.997  71.516  1.00  0.00    -0.532 C  
BRANCH  14  15
HETATM   15  C   UNL     1     -12.622   8.862  72.538  1.00  0.00    -0.363 C  
BRANCH  15  16
HETATM   16  C   UNL     1     -11.661   7.754  72.129  1.00  0.00    -0.368 C  
BRANCH  16  17
HETATM   17  C   UNL     1     -10.806   7.331  73.321  1.00  0.00    -0.404 C  
BRANCH  17  18
HETATM   18  C   UNL     1      -9.419   6.879  72.876  1.00  0.00    -0.161 C  
HETATM   19  C   UNL     1      -8.734   7.951  72.045  1.00  0.00    -0.180 C  
ENDBRANCH  17  18
ENDBRANCH  16  17
ENDBRANCH  15  16
ENDBRANCH  14  15
ENDBRANCH  13  14
ENDBRANCH  12  13
ENDBRANCH   9  12
ENDBRANCH   8   9
ENDBRANCH   7   8
ENDBRANCH   6   7
ENDBRANCH   5   6
ENDBRANCH   4   5
ENDBRANCH   3   4
ENDBRANCH   2   3
TORSDOF 14
ENDMDL
MODEL      119
REMARK 921   NORMALIZED FREE ENERGY PREDICTED BY IDOCK:   -3.20 KCAL/MOL
REMARK 922        TOTAL FREE ENERGY PREDICTED BY IDOCK:   -7.55 KCAL/MOL
REMARK 923 INTER-LIGAND FREE ENERGY PREDICTED BY IDOCK:   -6.47 KCAL/MOL
REMARK 924 INTRA-LIGAND FREE ENERGY PREDICTED BY IDOCK:   -1.08 KCAL/MOL
REMARK 927      BINDING AFFINITY PREDICTED BY RF-SCORE:    0.00 PKD
ROOT
HETATM    1  C   UNL     1     -10.832   8.071  72.373  1.00  0.00    -0.392 C  
HETATM    2  C   UNL     1     -11.699   9.244  71.945  1.00  0.00    -0.420 C  
ENDROOT
BRANCH   2   3
HETATM    3  C   UNL     1     -11.728   9.380  70.428  1.00  0.00    -0.195 C  
BRANCH   3   4
HETATM    4  C   UNL     1     -10.315   9.377  69.844  1.00  0.00    -0.252 C  
BRANCH   4   5
HETATM    5  C   UNL     1     -10.324   9.980  68.447  1.00  0.00    -0.218 C  
BRANCH   5   6
HETATM    6  C   UNL     1     -11.235  11.203  68.350  1.00  0.00    -0.325 C  
BRANCH   6   7
HETATM    7  C   UNL     1     -10.781  12.062  67.174  1.00  0.00    -0.277 C  
BRANCH   7   8
HETATM    8  C   UNL     1     -11.869  12.225  66.118  1.00  0.00    -0.329 C  
BRANCH   8   9
HETATM    9  N   UNL     1     -11.308  12.233  64.667  1.00  0.00    -0.313 N  
HETATM   10  C   UNL     1     -10.266  11.127  64.499  1.00  0.00    -0.324 C  
HETATM   11  C   UNL     1     -12.444  12.032  63.663  1.00  0.00    -0.525 C  
BRANCH   9  12
HETATM   12  C   UNL     1     -10.652  13.627  64.461  1.00  0.00    -0.411 C  
BRANCH  12  13
HETATM   13  C   UNL     1     -11.542  14.775  64.927  1.00  0.00    -0.401 C  
BRANCH  13  14
HETATM   14  C   UNL     1     -10.757  16.062  65.170  1.00  0.00    -0.429 C  
BRANCH  14  15
HETATM   15  C   UNL     1     -10.137  16.003  66.565  1.00  0.00    -0.297 C  
BRANCH  15  16
HETATM   16  C   UNL     1     -11.110  15.465  67.606  1.00  0.00    -0.316 C  
BRANCH  16  17
HETATM   17  C   UNL     1     -11.265  16.465  68.750  1.00  0.00    -0.313 C  
BRANCH  17  18
HETATM   18  C   UNL     1     -11.746  15.779  70.024  1.00  0.00    -0.362 C  
HETATM   19  C   UNL     1     -12.177  14.348  69.746  1.00  0.00    -0.370 C  
ENDBRANCH  17  18
ENDBRANCH  16  17
ENDBRANCH  15  16
ENDBRANCH  14  15
ENDBRANCH  13  14
ENDBRANCH  12  13
ENDBRANCH   9  12
ENDBRANCH   8   9
ENDBRANCH   7   8
ENDBRANCH   6   7
ENDBRANCH   5   6
ENDBRANCH   4   5
ENDBRANCH   3   4
ENDBRANCH   2   3
TORSDOF 14
ENDMDL
MODEL      120
REMARK 921   NORMALIZED FREE ENERGY PREDICTED BY IDOCK:   -3.18 KCAL/MOL
REMARK 922        TOTAL FREE ENERGY PREDICTED BY IDOCK:   -7.51 KCAL/MOL
REMARK 923 INTER-LIGAND FREE ENERGY PREDICTED BY IDOCK:   -5.82 KCAL/MOL
REMARK 924 INTRA-LIGAND FREE ENERGY PREDICTED BY IDOCK:   -1.69 KCAL/MOL
REMARK 927      BINDING AFFINITY PREDICTED BY RF-SCORE:    0.00 PKD
ROOT
HETATM    1  C   UNL     1      -8.055  13.673  68.286  1.00  0.00    -0.155 C  
HETATM    2  C   UNL     1      -9.475  13.700  67.744  1.00  0.00    -0.221 C  
ENDROOT
BRANCH   2   3
HETATM    3  C   UNL     1      -9.543  14.454  66.421  1.00  0.00    -0.320 C  
BRANCH   3   4
HETATM    4  C   UNL     1     -10.174  15.835  66.603  1.00  0.00    -0.290 C  
BRANCH   4   5
HETATM    5  C   UNL     1     -11.127  15.824  67.789  1.00  0.00    -0.313 C  
BRANCH   5   6
HETATM    6  C   UNL     1     -10.680  16.775  68.899  1.00  0.00    -0.333 C  
BRANCH   6   7
HETATM    7  C   UNL     1     -11.086  16.183  70.245  1.00  0.00    -0.375 C  
BRANCH   7   8
HETATM    8  C   UNL     1     -12.386  15.388  70.164  1.00  0.00    -0.361 C  
BRANCH   8   9
HETATM    9  N   UNL     1     -12.812  14.785  71.533  1.00  0.00    -0.311 N  
HETATM   10  C   UNL     1     -11.839  15.223  72.628  1.00  0.00    -0.429 C  
HETATM   11  C   UNL     1     -14.229  15.235  71.889  1.00  0.00    -0.581 C  
BRANCH   9  12
HETATM   12  C   UNL     1     -12.768  13.240  71.362  1.00  0.00    -0.309 C  
BRANCH  12  13
HETATM   13  C   UNL     1     -12.147  12.810  70.036  1.00  0.00    -0.355 C  
BRANCH  13  14
HETATM   14  C   UNL     1     -11.763  11.332  70.024  1.00  0.00    -0.428 C  
BRANCH  14  15
HETATM   15  C   UNL     1     -11.551  10.891  68.576  1.00  0.00    -0.360 C  
BRANCH  15  16
HETATM   16  C   UNL     1     -10.612   9.697  68.470  1.00  0.00    -0.253 C  
BRANCH  16  17
HETATM   17  C   UNL     1      -9.185  10.171  68.204  1.00  0.00    -0.137 C  
BRANCH  17  18
HETATM   18  C   UNL     1      -8.627   9.561  66.923  1.00  0.00    -0.132 C  
HETATM   19  C   UNL     1      -8.044  10.631  66.015  1.00  0.00    -0.159 C  
ENDBRANCH  17  18
ENDBRANCH  16  17
ENDBRANCH  15  16
ENDBRANCH  14  15
ENDBRANCH  13  14
ENDBRANCH  12  13
ENDBRANCH   9  12
ENDBRANCH   8   9
ENDBRANCH   7   8
ENDBRANCH   6   7
ENDBRANCH   5   6
ENDBRANCH   4   5
ENDBRANCH   3   4
ENDBRANCH   2   3
TORSDOF 14
ENDMDL
MODEL      121
REMARK 921   NORMALIZED FREE ENERGY PREDICTED BY IDOCK:   -3.18 KCAL/MOL
REMARK 922        TOTAL FREE ENERGY PREDICTED BY IDOCK:   -7.51 KCAL/MOL
REMARK 923 INTER-LIGAND FREE ENERGY PREDICTED BY IDOCK:   -5.54 KCAL/MOL
REMARK 924 INTRA-LIGAND FREE ENERGY PREDICTED BY IDOCK:   -1.97 KCAL/MOL
REMARK 927      BINDING AFFINITY PREDICTED BY RF-SCORE:    0.00 PKD
ROOT
HETATM    1  C   UNL     1     -11.633   6.221  72.159  1.00  0.00    -0.367 C  
HETATM    2  C   UNL     1     -12.335   6.863  70.974  1.00  0.00    -0.401 C  
ENDROOT
BRANCH   2   3
HETATM    3  C   UNL     1     -13.228   8.014  71.422  1.00  0.00    -0.260 C  
BRANCH   3   4
HETATM    4  C   UNL     1     -12.438   9.047  72.224  1.00  0.00    -0.427 C  
BRANCH   4   5
HETATM    5  C   UNL     1     -12.758  10.451  71.731  1.00  0.00    -0.525 C  
BRANCH   5   6
HETATM    6  C   UNL     1     -12.616  10.577  70.215  1.00  0.00    -0.306 C  
BRANCH   6   7
HETATM    7  C   UNL     1     -11.815  11.837  69.900  1.00  0.00    -0.423 C  
BRANCH   7   8
HETATM    8  C   UNL     1     -11.764  12.135  68.404  1.00  0.00    -0.332 C  
BRANCH   8   9
HETATM    9  N   UNL     1     -11.337  13.599  68.094  1.00  0.00    -0.271 N  
HETATM   10  C   UNL     1     -12.050  14.102  66.840  1.00  0.00    -0.432 C  
HETATM   11  C   UNL     1     -11.671  14.506  69.279  1.00  0.00    -0.310 C  
BRANCH   9  12
HETATM   12  C   UNL     1      -9.800  13.565  67.863  1.00  0.00    -0.235 C  
BRANCH  12  13
HETATM   13  C   UNL     1      -9.398  12.675  66.690  1.00  0.00    -0.236 C  
BRANCH  13  14
HETATM   14  C   UNL     1      -8.110  11.902  66.960  1.00  0.00    -0.167 C  
BRANCH  14  15
HETATM   15  C   UNL     1      -8.186  11.290  68.358  1.00  0.00    -0.149 C  
BRANCH  15  16
HETATM   16  C   UNL     1      -8.180   9.768  68.322  1.00  0.00    -0.105 C  
BRANCH  16  17
HETATM   17  C   UNL     1      -9.466   9.220  68.937  1.00  0.00    -0.154 C  
BRANCH  17  18
HETATM   18  C   UNL     1      -9.166   8.207  70.037  1.00  0.00    -0.155 C  
HETATM   19  C   UNL     1      -8.842   8.902  71.349  1.00  0.00    -0.283 C  
ENDBRANCH  17  18
ENDBRANCH  16  17
ENDBRANCH  15  16
ENDBRANCH  14  15
ENDBRANCH  13  14
ENDBRANCH  12  13
ENDBRANCH   9  12
ENDBRANCH   8   9
ENDBRANCH   7   8
ENDBRANCH   6   7
ENDBRANCH   5   6
ENDBRANCH   4   5
ENDBRANCH   3   4
ENDBRANCH   2   3
TORSDOF 14
ENDMDL
MODEL      122
REMARK 921   NORMALIZED FREE ENERGY PREDICTED BY IDOCK:   -3.17 KCAL/MOL
REMARK 922        TOTAL FREE ENERGY PREDICTED BY IDOCK:   -7.50 KCAL/MOL
REMARK 923 INTER-LIGAND FREE ENERGY PREDICTED BY IDOCK:   -5.94 KCAL/MOL
REMARK 924 INTRA-LIGAND FREE ENERGY PREDICTED BY IDOCK:   -1.57 KCAL/MOL
REMARK 927      BINDING AFFINITY PREDICTED BY RF-SCORE:    0.00 PKD
ROOT
HETATM    1  C   UNL     1      -8.992   8.441  72.494  1.00  0.00    -0.308 C  
HETATM    2  C   UNL     1      -9.530   9.114  71.241  1.00  0.00    -0.313 C  
ENDROOT
BRANCH   2   3
HETATM    3  C   UNL     1     -11.026   9.377  71.359  1.00  0.00    -0.443 C  
BRANCH   3   4
HETATM    4  C   UNL     1     -11.720   8.279  72.164  1.00  0.00    -0.429 C  
BRANCH   4   5
HETATM    5  C   UNL     1     -12.202   7.173  71.237  1.00  0.00    -0.403 C  
BRANCH   5   6
HETATM    6  C   UNL     1     -11.381   5.893  71.388  1.00  0.00    -0.247 C  
BRANCH   6   7
HETATM    7  C   UNL     1     -10.583   5.667  70.108  1.00  0.00    -0.380 C  
BRANCH   7   8
HETATM    8  C   UNL     1     -11.153   6.439  68.922  1.00  0.00    -0.348 C  
BRANCH   8   9
HETATM    9  N   UNL     1     -10.098   6.708  67.811  1.00  0.00    -0.139 N  
HETATM   10  C   UNL     1      -8.719   6.923  68.435  1.00  0.00    -0.124 C  
HETATM   11  C   UNL     1     -10.047   5.529  66.838  1.00  0.00    -0.203 C  
BRANCH   9  12
HETATM   12  C   UNL     1     -10.560   7.994  67.071  1.00  0.00    -0.294 C  
BRANCH  12  13
HETATM   13  C   UNL     1      -9.977   9.267  67.677  1.00  0.00    -0.245 C  
BRANCH  13  14
HETATM   14  C   UNL     1     -10.901  10.471  67.506  1.00  0.00    -0.357 C  
BRANCH  14  15
HETATM   15  C   UNL     1     -10.061  11.683  67.106  1.00  0.00    -0.227 C  
BRANCH  15  16
HETATM   16  C   UNL     1     -10.821  12.635  66.194  1.00  0.00    -0.301 C  
BRANCH  16  17
HETATM   17  C   UNL     1     -11.360  11.883  64.978  1.00  0.00    -0.333 C  
BRANCH  17  18
HETATM   18  C   UNL     1     -10.405  11.988  63.794  1.00  0.00    -0.457 C  
HETATM   19  C   UNL     1      -9.691  10.669  63.548  1.00  0.00    -0.389 C  
ENDBRANCH  17  18
ENDBRANCH  16  17
ENDBRANCH  15  16
ENDBRANCH  14  15
ENDBRANCH  13  14
ENDBRANCH  12  13
ENDBRANCH   9  12
ENDBRANCH   8   9
ENDBRANCH   7   8
ENDBRANCH   6   7
ENDBRANCH   5   6
ENDBRANCH   4   5
ENDBRANCH   3   4
ENDBRANCH   2   3
TORSDOF 14
ENDMDL
MODEL      123
REMARK 921   NORMALIZED FREE ENERGY PREDICTED BY IDOCK:   -3.17 KCAL/MOL
REMARK 922        TOTAL FREE ENERGY PREDICTED BY IDOCK:   -7.50 KCAL/MOL
REMARK 923 INTER-LIGAND FREE ENERGY PREDICTED BY IDOCK:   -6.69 KCAL/MOL
REMARK 924 INTRA-LIGAND FREE ENERGY PREDICTED BY IDOCK:   -0.81 KCAL/MOL
REMARK 927      BINDING AFFINITY PREDICTED BY RF-SCORE:    0.00 PKD
ROOT
HETATM    1  C   UNL     1     -11.708  12.816  63.446  1.00  0.00    -0.556 C  
HETATM    2  C   UNL     1     -10.748  11.637  63.483  1.00  0.00    -0.495 C  
ENDROOT
BRANCH   2   3
HETATM    3  C   UNL     1     -10.677  11.031  64.880  1.00  0.00    -0.278 C  
BRANCH   3   4
HETATM    4  C   UNL     1      -9.318  10.381  65.133  1.00  0.00    -0.271 C  
BRANCH   4   5
HETATM    5  C   UNL     1      -8.409  11.341  65.887  1.00  0.00    -0.023 C  
BRANCH   5   6
HETATM    6  C   UNL     1      -9.107  11.973  67.091  1.00  0.00    -0.186 C  
BRANCH   6   7
HETATM    7  C   UNL     1      -9.019  13.491  66.970  1.00  0.00    -0.237 C  
BRANCH   7   8
HETATM    8  C   UNL     1      -9.864  14.209  68.018  1.00  0.00    -0.223 C  
BRANCH   8   9
HETATM    9  N   UNL     1     -11.036  15.021  67.396  1.00  0.00    -0.316 N  
HETATM   10  C   UNL     1     -10.510  15.961  66.311  1.00  0.00    -0.318 C  
HETATM   11  C   UNL     1     -12.075  14.071  66.798  1.00  0.00    -0.447 C  
BRANCH   9  12
HETATM   12  C   UNL     1     -11.665  15.839  68.559  1.00  0.00    -0.319 C  
BRANCH  12  13
HETATM   13  C   UNL     1     -10.734  15.970  69.760  1.00  0.00    -0.331 C  
BRANCH  13  14
HETATM   14  C   UNL     1     -11.357  15.423  71.043  1.00  0.00    -0.411 C  
BRANCH  14  15
HETATM   15  C   UNL     1     -12.876  15.550  70.945  1.00  0.00    -0.535 C  
BRANCH  15  16
HETATM   16  C   UNL     1     -13.568  15.207  72.257  1.00  0.00    -0.566 C  
BRANCH  16  17
HETATM   17  C   UNL     1     -13.264  13.764  72.653  1.00  0.00    -0.571 C  
BRANCH  17  18
HETATM   18  C   UNL     1     -13.431  12.818  71.469  1.00  0.00    -0.098 C  
HETATM   19  C   UNL     1     -13.107  11.386  71.861  1.00  0.00    -0.505 C  
ENDBRANCH  17  18
ENDBRANCH  16  17
ENDBRANCH  15  16
ENDBRANCH  14  15
ENDBRANCH  13  14
ENDBRANCH  12  13
ENDBRANCH   9  12
ENDBRANCH   8   9
ENDBRANCH   7   8
ENDBRANCH   6   7
ENDBRANCH   5   6
ENDBRANCH   4   5
ENDBRANCH   3   4
ENDBRANCH   2   3
TORSDOF 14
ENDMDL
MODEL      124
REMARK 921   NORMALIZED FREE ENERGY PREDICTED BY IDOCK:   -3.16 KCAL/MOL
REMARK 922        TOTAL FREE ENERGY PREDICTED BY IDOCK:   -7.49 KCAL/MOL
REMARK 923 INTER-LIGAND FREE ENERGY PREDICTED BY IDOCK:   -5.48 KCAL/MOL
REMARK 924 INTRA-LIGAND FREE ENERGY PREDICTED BY IDOCK:   -2.01 KCAL/MOL
REMARK 927      BINDING AFFINITY PREDICTED BY RF-SCORE:    0.00 PKD
ROOT
HETATM    1  C   UNL     1     -10.562   9.340  67.541  1.00  0.00    -0.329 C  
HETATM    2  C   UNL     1      -9.870   9.440  66.191  1.00  0.00    -0.356 C  
ENDROOT
BRANCH   2   3
HETATM    3  C   UNL     1      -9.178  10.788  66.027  1.00  0.00    -0.210 C  
BRANCH   3   4
HETATM    4  C   UNL     1      -7.657  10.639  66.069  1.00  0.00    -0.142 C  
BRANCH   4   5
HETATM    5  C   UNL     1      -7.076  11.503  67.178  1.00  0.00    -0.140 C  
BRANCH   5   6
HETATM    6  C   UNL     1      -8.135  12.384  67.840  1.00  0.00    -0.161 C  
BRANCH   6   7
HETATM    7  C   UNL     1      -7.726  13.846  67.684  1.00  0.00    -0.193 C  
BRANCH   7   8
HETATM    8  C   UNL     1      -8.580  14.784  68.532  1.00  0.00    -0.168 C  
BRANCH   8   9
HETATM    9  N   UNL     1      -9.165  15.972  67.717  1.00  0.00    -0.204 N  
HETATM   10  C   UNL     1     -10.187  16.737  68.559  1.00  0.00    -0.298 C  
HETATM   11  C   UNL     1      -8.043  16.915  67.282  1.00  0.00    -0.184 C  
BRANCH   9  12
HETATM   12  C   UNL     1      -9.854  15.348  66.471  1.00  0.00    -0.272 C  
BRANCH  12  13
HETATM   13  C   UNL     1     -11.299  14.937  66.736  1.00  0.00    -0.328 C  
BRANCH  13  14
HETATM   14  C   UNL     1     -11.528  13.442  66.529  1.00  0.00    -0.372 C  
BRANCH  14  15
HETATM   15  C   UNL     1     -11.851  12.802  67.879  1.00  0.00    -0.392 C  
BRANCH  15  16
HETATM   16  C   UNL     1     -12.160  13.840  68.949  1.00  0.00    -0.348 C  
BRANCH  16  17
HETATM   17  C   UNL     1     -12.104  13.201  70.335  1.00  0.00    -0.392 C  
BRANCH  17  18
HETATM   18  C   UNL     1     -12.043  11.681  70.243  1.00  0.00    -0.443 C  
HETATM   19  C   UNL     1     -12.842  11.031  71.361  1.00  0.00    -0.548 C  
ENDBRANCH  17  18
ENDBRANCH  16  17
ENDBRANCH  15  16
ENDBRANCH  14  15
ENDBRANCH  13  14
ENDBRANCH  12  13
ENDBRANCH   9  12
ENDBRANCH   8   9
ENDBRANCH   7   8
ENDBRANCH   6   7
ENDBRANCH   5   6
ENDBRANCH   4   5
ENDBRANCH   3   4
ENDBRANCH   2   3
TORSDOF 14
ENDMDL
MODEL      125
REMARK 921   NORMALIZED FREE ENERGY PREDICTED BY IDOCK:   -3.16 KCAL/MOL
REMARK 922        TOTAL FREE ENERGY PREDICTED BY IDOCK:   -7.47 KCAL/MOL
REMARK 923 INTER-LIGAND FREE ENERGY PREDICTED BY IDOCK:   -6.36 KCAL/MOL
REMARK 924 INTRA-LIGAND FREE ENERGY PREDICTED BY IDOCK:   -1.11 KCAL/MOL
REMARK 927      BINDING AFFINITY PREDICTED BY RF-SCORE:    0.00 PKD
ROOT
HETATM    1  C   UNL     1     -12.434   7.811  71.838  1.00  0.00    -0.343 C  
HETATM    2  C   UNL     1     -13.184   9.043  72.317  1.00  0.00    -0.519 C  
ENDROOT
BRANCH   2   3
HETATM    3  C   UNL     1     -12.767  10.280  71.530  1.00  0.00    -0.557 C  
BRANCH   3   4
HETATM    4  C   UNL     1     -11.475  10.032  70.752  1.00  0.00    -0.438 C  
BRANCH   4   5
HETATM    5  C   UNL     1     -11.496  10.805  69.442  1.00  0.00    -0.366 C  
BRANCH   5   6
HETATM    6  C   UNL     1     -11.824  12.284  69.648  1.00  0.00    -0.393 C  
BRANCH   6   7
HETATM    7  C   UNL     1     -11.085  13.103  68.594  1.00  0.00    -0.304 C  
BRANCH   7   8
HETATM    8  C   UNL     1     -12.032  13.748  67.587  1.00  0.00    -0.356 C  
BRANCH   8   9
HETATM    9  N   UNL     1     -11.517  13.649  66.123  1.00  0.00    -0.317 N  
HETATM   10  C   UNL     1     -12.523  14.289  65.166  1.00  0.00    -0.416 C  
HETATM   11  C   UNL     1     -10.162  14.346  65.994  1.00  0.00    -0.315 C  
BRANCH   9  12
HETATM   12  C   UNL     1     -11.371  12.132  65.815  1.00  0.00    -0.354 C  
BRANCH  12  13
HETATM   13  C   UNL     1     -10.004  11.775  65.239  1.00  0.00    -0.284 C  
BRANCH  13  14
HETATM   14  C   UNL     1      -9.868  10.284  64.942  1.00  0.00    -0.404 C  
BRANCH  14  15
HETATM   15  C   UNL     1     -10.119   9.501  66.230  1.00  0.00    -0.327 C  
BRANCH  15  16
HETATM   16  C   UNL     1      -9.281   8.232  66.305  1.00  0.00    -0.258 C  
BRANCH  16  17
HETATM   17  C   UNL     1      -8.286   8.187  65.147  1.00  0.00    -0.152 C  
BRANCH  17  18
HETATM   18  C   UNL     1      -7.854   6.757  64.842  1.00  0.00    -0.119 C  
HETATM   19  C   UNL     1      -8.775   5.751  65.513  1.00  0.00    -0.141 C  
ENDBRANCH  17  18
ENDBRANCH  16  17
ENDBRANCH  15  16
ENDBRANCH  14  15
ENDBRANCH  13  14
ENDBRANCH  12  13
ENDBRANCH   9  12
ENDBRANCH   8   9
ENDBRANCH   7   8
ENDBRANCH   6   7
ENDBRANCH   5   6
ENDBRANCH   4   5
ENDBRANCH   3   4
ENDBRANCH   2   3
TORSDOF 14
ENDMDL
MODEL      126
REMARK 921   NORMALIZED FREE ENERGY PREDICTED BY IDOCK:   -3.16 KCAL/MOL
REMARK 922        TOTAL FREE ENERGY PREDICTED BY IDOCK:   -7.47 KCAL/MOL
REMARK 923 INTER-LIGAND FREE ENERGY PREDICTED BY IDOCK:   -5.58 KCAL/MOL
REMARK 924 INTRA-LIGAND FREE ENERGY PREDICTED BY IDOCK:   -1.89 KCAL/MOL
REMARK 927      BINDING AFFINITY PREDICTED BY RF-SCORE:    0.00 PKD
ROOT
HETATM    1  C   UNL     1     -11.978  13.674  64.075  1.00  0.00    -0.478 C  
HETATM    2  C   UNL     1     -11.978  15.144  64.463  1.00  0.00    -0.326 C  
ENDROOT
BRANCH   2   3
HETATM    3  C   UNL     1     -10.606  15.581  64.962  1.00  0.00    -0.435 C  
BRANCH   3   4
HETATM    4  C   UNL     1     -10.724  16.468  66.201  1.00  0.00    -0.155 C  
BRANCH   4   5
HETATM    5  C   UNL     1     -10.382  17.908  65.849  1.00  0.00    -0.259 C  
BRANCH   5   6
HETATM    6  C   UNL     1     -10.724  18.877  66.981  1.00  0.00    -0.477 C  
BRANCH   6   7
HETATM    7  C   UNL     1      -9.569  19.859  67.152  1.00  0.00    -0.508 C  
BRANCH   7   8
HETATM    8  C   UNL     1      -8.610  19.442  68.264  1.00  0.00    -0.338 C  
BRANCH   8   9
HETATM    9  N   UNL     1      -7.129  19.377  67.792  1.00  0.00    -0.240 N  
HETATM   10  C   UNL     1      -7.057  19.469  66.268  1.00  0.00    -0.245 C  
HETATM   11  C   UNL     1      -6.327  20.518  68.419  1.00  0.00    -0.316 C  
BRANCH   9  12
HETATM   12  C   UNL     1      -6.578  18.006  68.275  1.00  0.00    -0.201 C  
BRANCH  12  13
HETATM   13  C   UNL     1      -7.535  16.851  67.995  1.00  0.00    -0.177 C  
BRANCH  13  14
HETATM   14  C   UNL     1      -7.781  15.985  69.227  1.00  0.00    -0.223 C  
BRANCH  14  15
HETATM   15  C   UNL     1      -7.665  14.515  68.826  1.00  0.00    -0.140 C  
BRANCH  15  16
HETATM   16  C   UNL     1      -8.319  14.232  67.481  1.00  0.00    -0.198 C  
BRANCH  16  17
HETATM   17  C   UNL     1      -9.323  13.088  67.612  1.00  0.00    -0.202 C  
BRANCH  17  18
HETATM   18  C   UNL     1     -10.621  13.562  68.258  1.00  0.00    -0.259 C  
HETATM   19  C   UNL     1     -11.822  12.845  67.665  1.00  0.00    -0.400 C  
ENDBRANCH  17  18
ENDBRANCH  16  17
ENDBRANCH  15  16
ENDBRANCH  14  15
ENDBRANCH  13  14
ENDBRANCH  12  13
ENDBRANCH   9  12
ENDBRANCH   8   9
ENDBRANCH   7   8
ENDBRANCH   6   7
ENDBRANCH   5   6
ENDBRANCH   4   5
ENDBRANCH   3   4
ENDBRANCH   2   3
TORSDOF 14
ENDMDL
MODEL      127
REMARK 921   NORMALIZED FREE ENERGY PREDICTED BY IDOCK:   -3.15 KCAL/MOL
REMARK 922        TOTAL FREE ENERGY PREDICTED BY IDOCK:   -7.46 KCAL/MOL
REMARK 923 INTER-LIGAND FREE ENERGY PREDICTED BY IDOCK:   -5.89 KCAL/MOL
REMARK 924 INTRA-LIGAND FREE ENERGY PREDICTED BY IDOCK:   -1.57 KCAL/MOL
REMARK 927      BINDING AFFINITY PREDICTED BY RF-SCORE:    0.00 PKD
ROOT
HETATM    1  C   UNL     1     -11.194  15.290  64.895  1.00  0.00    -0.422 C  
HETATM    2  C   UNL     1     -11.942  14.363  65.839  1.00  0.00    -0.367 C  
ENDROOT
BRANCH   2   3
HETATM    3  C   UNL     1     -12.697  13.287  65.068  1.00  0.00    -0.438 C  
BRANCH   3   4
HETATM    4  C   UNL     1     -12.134  13.118  63.657  1.00  0.00    -0.583 C  
BRANCH   4   5
HETATM    5  C   UNL     1     -11.564  11.718  63.484  1.00  0.00    -0.487 C  
BRANCH   5   6
HETATM    6  C   UNL     1     -10.120  11.617  63.978  1.00  0.00    -0.362 C  
BRANCH   6   7
HETATM    7  C   UNL     1     -10.034  10.503  65.017  1.00  0.00    -0.388 C  
BRANCH   7   8
HETATM    8  C   UNL     1      -9.000  10.797  66.100  1.00  0.00    -0.177 C  
BRANCH   8   9
HETATM    9  N   UNL     1      -9.637  11.328  67.416  1.00  0.00    -0.169 N  
HETATM   10  C   UNL     1     -11.107  10.917  67.493  1.00  0.00    -0.310 C  
HETATM   11  C   UNL     1      -8.881  10.776  68.626  1.00  0.00    -0.152 C  
BRANCH   9  12
HETATM   12  C   UNL     1      -9.512  12.876  67.367  1.00  0.00    -0.198 C  
BRANCH  12  13
HETATM   13  C   UNL     1      -8.064  13.355  67.399  1.00  0.00    -0.178 C  
BRANCH  13  14
HETATM   14  C   UNL     1      -7.887  14.626  68.225  1.00  0.00    -0.128 C  
BRANCH  14  15
HETATM   15  C   UNL     1      -8.701  15.748  67.581  1.00  0.00    -0.178 C  
BRANCH  15  16
HETATM   16  C   UNL     1      -9.392  16.626  68.616  1.00  0.00    -0.247 C  
BRANCH  16  17
HETATM   17  C   UNL     1     -10.864  16.238  68.738  1.00  0.00    -0.317 C  
BRANCH  17  18
HETATM   18  C   UNL     1     -11.096  15.305  69.921  1.00  0.00    -0.303 C  
HETATM   19  C   UNL     1     -11.691  16.054  71.101  1.00  0.00    -0.487 C  
ENDBRANCH  17  18
ENDBRANCH  16  17
ENDBRANCH  15  16
ENDBRANCH  14  15
ENDBRANCH  13  14
ENDBRANCH  12  13
ENDBRANCH   9  12
ENDBRANCH   8   9
ENDBRANCH   7   8
ENDBRANCH   6   7
ENDBRANCH   5   6
ENDBRANCH   4   5
ENDBRANCH   3   4
ENDBRANCH   2   3
TORSDOF 14
ENDMDL
MODEL      128
REMARK 921   NORMALIZED FREE ENERGY PREDICTED BY IDOCK:   -3.14 KCAL/MOL
REMARK 922        TOTAL FREE ENERGY PREDICTED BY IDOCK:   -7.45 KCAL/MOL
REMARK 923 INTER-LIGAND FREE ENERGY PREDICTED BY IDOCK:   -5.72 KCAL/MOL
REMARK 924 INTRA-LIGAND FREE ENERGY PREDICTED BY IDOCK:   -1.73 KCAL/MOL
REMARK 927      BINDING AFFINITY PREDICTED BY RF-SCORE:    0.00 PKD
ROOT
HETATM    1  C   UNL     1     -10.244   7.473  73.347  1.00  0.00    -0.399 C  
HETATM    2  C   UNL     1     -10.640   6.016  73.526  1.00  0.00    -0.284 C  
ENDROOT
BRANCH   2   3
HETATM    3  C   UNL     1     -11.007   5.379  72.191  1.00  0.00    -0.265 C  
BRANCH   3   4
HETATM    4  C   UNL     1     -11.809   6.344  71.319  1.00  0.00    -0.333 C  
BRANCH   4   5
HETATM    5  C   UNL     1     -11.339   6.259  69.874  1.00  0.00    -0.504 C  
BRANCH   5   6
HETATM    6  C   UNL     1      -9.874   5.838  69.766  1.00  0.00    -0.232 C  
BRANCH   6   7
HETATM    7  C   UNL     1      -9.202   6.671  68.679  1.00  0.00    -0.128 C  
BRANCH   7   8
HETATM    8  C   UNL     1      -8.960   8.113  69.115  1.00  0.00    -0.144 C  
BRANCH   8   9
HETATM    9  N   UNL     1      -9.562   9.153  68.127  1.00  0.00    -0.142 N  
HETATM   10  C   UNL     1      -8.478  10.123  67.658  1.00  0.00    -0.118 C  
HETATM   11  C   UNL     1     -10.175   8.439  66.922  1.00  0.00    -0.313 C  
BRANCH   9  12
HETATM   12  C   UNL     1     -10.663   9.916  68.916  1.00  0.00    -0.221 C  
BRANCH  12  13
HETATM   13  C   UNL     1     -10.455   9.861  70.426  1.00  0.00    -0.347 C  
BRANCH  13  14
HETATM   14  C   UNL     1     -11.719  10.220  71.203  1.00  0.00    -0.430 C  
BRANCH  14  15
HETATM   15  C   UNL     1     -12.481  11.298  70.432  1.00  0.00    -0.355 C  
BRANCH  15  16
HETATM   16  C   UNL     1     -12.629  12.583  71.235  1.00  0.00    -0.332 C  
BRANCH  16  17
HETATM   17  C   UNL     1     -12.337  13.794  70.350  1.00  0.00    -0.423 C  
BRANCH  17  18
HETATM   18  C   UNL     1     -11.859  13.367  68.967  1.00  0.00    -0.378 C  
HETATM   19  C   UNL     1     -11.745  14.562  68.034  1.00  0.00    -0.373 C  
ENDBRANCH  17  18
ENDBRANCH  16  17
ENDBRANCH  15  16
ENDBRANCH  14  15
ENDBRANCH  13  14
ENDBRANCH  12  13
ENDBRANCH   9  12
ENDBRANCH   8   9
ENDBRANCH   7   8
ENDBRANCH   6   7
ENDBRANCH   5   6
ENDBRANCH   4   5
ENDBRANCH   3   4
ENDBRANCH   2   3
TORSDOF 14
ENDMDL
MODEL      129
REMARK 921   NORMALIZED FREE ENERGY PREDICTED BY IDOCK:   -3.14 KCAL/MOL
REMARK 922        TOTAL FREE ENERGY PREDICTED BY IDOCK:   -7.45 KCAL/MOL
REMARK 923 INTER-LIGAND FREE ENERGY PREDICTED BY IDOCK:   -5.61 KCAL/MOL
REMARK 924 INTRA-LIGAND FREE ENERGY PREDICTED BY IDOCK:   -1.83 KCAL/MOL
REMARK 927      BINDING AFFINITY PREDICTED BY RF-SCORE:    0.00 PKD
ROOT
HETATM    1  C   UNL     1      -8.474   9.004  68.801  1.00  0.00    -0.131 C  
HETATM    2  C   UNL     1      -8.226  10.503  68.858  1.00  0.00    -0.141 C  
ENDROOT
BRANCH   2   3
HETATM    3  C   UNL     1      -6.988  10.885  68.054  1.00  0.00    -0.072 C  
BRANCH   3   4
HETATM    4  C   UNL     1      -7.215  12.176  67.268  1.00  0.00    -0.144 C  
BRANCH   4   5
HETATM    5  C   UNL     1      -8.111  13.119  68.056  1.00  0.00    -0.157 C  
BRANCH   5   6
HETATM    6  C   UNL     1      -8.449  14.387  67.272  1.00  0.00    -0.229 C  
BRANCH   6   7
HETATM    7  C   UNL     1      -9.946  14.398  66.978  1.00  0.00    -0.257 C  
BRANCH   7   8
HETATM    8  C   UNL     1     -10.290  13.681  65.676  1.00  0.00    -0.300 C  
BRANCH   8   9
HETATM    9  N   UNL     1     -11.255  12.479  65.884  1.00  0.00    -0.305 N  
HETATM   10  C   UNL     1     -12.331  12.472  64.799  1.00  0.00    -0.474 C  
HETATM   11  C   UNL     1     -10.475  11.164  65.848  1.00  0.00    -0.253 C  
BRANCH   9  12
HETATM   12  C   UNL     1     -11.903  12.679  67.283  1.00  0.00    -0.328 C  
BRANCH  12  13
HETATM   13  C   UNL     1     -11.771  11.450  68.178  1.00  0.00    -0.355 C  
BRANCH  13  14
HETATM   14  C   UNL     1     -11.654  11.814  69.656  1.00  0.00    -0.393 C  
BRANCH  14  15
HETATM   15  C   UNL     1     -12.355  10.738  70.484  1.00  0.00    -0.458 C  
BRANCH  15  16
HETATM   16  C   UNL     1     -11.386   9.677  70.987  1.00  0.00    -0.444 C  
BRANCH  16  17
HETATM   17  C   UNL     1     -12.073   8.781  72.017  1.00  0.00    -0.447 C  
BRANCH  17  18
HETATM   18  C   UNL     1     -12.388   7.408  71.434  1.00  0.00    -0.394 C  
HETATM   19  C   UNL     1     -11.454   7.073  70.283  1.00  0.00    -0.333 C  
ENDBRANCH  17  18
ENDBRANCH  16  17
ENDBRANCH  15  16
ENDBRANCH  14  15
ENDBRANCH  13  14
ENDBRANCH  12  13
ENDBRANCH   9  12
ENDBRANCH   8   9
ENDBRANCH   7   8
ENDBRANCH   6   7
ENDBRANCH   5   6
ENDBRANCH   4   5
ENDBRANCH   3   4
ENDBRANCH   2   3
TORSDOF 14
ENDMDL
MODEL      130
REMARK 921   NORMALIZED FREE ENERGY PREDICTED BY IDOCK:   -3.13 KCAL/MOL
REMARK 922        TOTAL FREE ENERGY PREDICTED BY IDOCK:   -7.43 KCAL/MOL
REMARK 923 INTER-LIGAND FREE ENERGY PREDICTED BY IDOCK:   -6.33 KCAL/MOL
REMARK 924 INTRA-LIGAND FREE ENERGY PREDICTED BY IDOCK:   -1.11 KCAL/MOL
REMARK 927      BINDING AFFINITY PREDICTED BY RF-SCORE:    0.00 PKD
ROOT
HETATM    1  C   UNL     1     -11.678   6.047  72.098  1.00  0.00    -0.335 C  
HETATM    2  C   UNL     1     -10.542   7.032  72.324  1.00  0.00    -0.242 C  
ENDROOT
BRANCH   2   3
HETATM    3  C   UNL     1     -11.048   8.470  72.294  1.00  0.00    -0.430 C  
BRANCH   3   4
HETATM    4  C   UNL     1     -12.566   8.520  72.127  1.00  0.00    -0.431 C  
BRANCH   4   5
HETATM    5  C   UNL     1     -12.960   9.720  71.278  1.00  0.00    -0.470 C  
BRANCH   5   6
HETATM    6  C   UNL     1     -11.743  10.481  70.752  1.00  0.00    -0.454 C  
BRANCH   6   7
HETATM    7  C   UNL     1     -12.226  11.705  69.980  1.00  0.00    -0.338 C  
BRANCH   7   8
HETATM    8  C   UNL     1     -11.576  11.819  68.604  1.00  0.00    -0.309 C  
BRANCH   8   9
HETATM    9  N   UNL     1     -10.941  13.216  68.349  1.00  0.00    -0.251 N  
HETATM   10  C   UNL     1     -11.616  13.892  67.155  1.00  0.00    -0.364 C  
HETATM   11  C   UNL     1     -11.087  14.095  69.592  1.00  0.00    -0.141 C  
BRANCH   9  12
HETATM   12  C   UNL     1      -9.438  12.963  68.045  1.00  0.00    -0.213 C  
BRANCH  12  13
HETATM   13  C   UNL     1      -9.133  11.499  67.747  1.00  0.00    -0.165 C  
BRANCH  13  14
HETATM   14  C   UNL     1      -8.319  11.321  66.467  1.00  0.00    -0.168 C  
BRANCH  14  15
HETATM   15  C   UNL     1      -8.952  10.209  65.632  1.00  0.00    -0.199 C  
BRANCH  15  16
HETATM   16  C   UNL     1     -10.333  10.591  65.117  1.00  0.00    -0.310 C  
BRANCH  16  17
HETATM   17  C   UNL     1     -10.234  11.128  63.691  1.00  0.00    -0.444 C  
BRANCH  17  18
HETATM   18  C   UNL     1     -10.812  12.535  63.587  1.00  0.00    -0.486 C  
HETATM   19  C   UNL     1     -12.307  12.535  63.862  1.00  0.00    -0.576 C  
ENDBRANCH  17  18
ENDBRANCH  16  17
ENDBRANCH  15  16
ENDBRANCH  14  15
ENDBRANCH  13  14
ENDBRANCH  12  13
ENDBRANCH   9  12
ENDBRANCH   8   9
ENDBRANCH   7   8
ENDBRANCH   6   7
ENDBRANCH   5   6
ENDBRANCH   4   5
ENDBRANCH   3   4
ENDBRANCH   2   3
TORSDOF 14
ENDMDL
MODEL      131
REMARK 921   NORMALIZED FREE ENERGY PREDICTED BY IDOCK:   -3.12 KCAL/MOL
REMARK 922        TOTAL FREE ENERGY PREDICTED BY IDOCK:   -7.42 KCAL/MOL
REMARK 923 INTER-LIGAND FREE ENERGY PREDICTED BY IDOCK:   -5.08 KCAL/MOL
REMARK 924 INTRA-LIGAND FREE ENERGY PREDICTED BY IDOCK:   -2.34 KCAL/MOL
REMARK 927      BINDING AFFINITY PREDICTED BY RF-SCORE:    0.00 PKD
ROOT
HETATM    1  C   UNL     1     -10.989   6.469  67.621  1.00  0.00    -0.426 C  
HETATM    2  C   UNL     1     -11.126   6.200  69.111  1.00  0.00    -0.448 C  
ENDROOT
BRANCH   2   3
HETATM    3  C   UNL     1     -10.085   5.193  69.585  1.00  0.00    -0.332 C  
BRANCH   3   4
HETATM    4  C   UNL     1     -10.140   5.012  71.102  1.00  0.00    -0.293 C  
BRANCH   4   5
HETATM    5  C   UNL     1     -11.156   5.969  71.708  1.00  0.00    -0.332 C  
BRANCH   5   6
HETATM    6  C   UNL     1     -10.903   6.215  73.195  1.00  0.00    -0.279 C  
BRANCH   6   7
HETATM    7  C   UNL     1     -10.111   7.510  73.351  1.00  0.00    -0.393 C  
BRANCH   7   8
HETATM    8  C   UNL     1      -8.716   7.274  73.921  1.00  0.00    -0.191 C  
BRANCH   8   9
HETATM    9  N   UNL     1      -7.584   7.637  72.917  1.00  0.00    -0.091 N  
HETATM   10  C   UNL     1      -6.513   8.478  73.611  1.00  0.00    -0.090 C  
HETATM   11  C   UNL     1      -6.955   6.363  72.350  1.00  0.00    -0.074 C  
BRANCH   9  12
HETATM   12  C   UNL     1      -8.257   8.454  71.779  1.00  0.00    -0.152 C  
BRANCH  12  13
HETATM   13  C   UNL     1      -7.997   7.866  70.395  1.00  0.00    -0.097 C  
BRANCH  13  14
HETATM   14  C   UNL     1      -8.117   8.909  69.286  1.00  0.00    -0.109 C  
BRANCH  14  15
HETATM   15  C   UNL     1      -9.137   9.964  69.712  1.00  0.00    -0.249 C  
BRANCH  15  16
HETATM   16  C   UNL     1     -10.485   9.770  69.031  1.00  0.00    -0.229 C  
BRANCH  16  17
HETATM   17  C   UNL     1     -11.581  10.489  69.816  1.00  0.00    -0.368 C  
BRANCH  17  18
HETATM   18  C   UNL     1     -11.714   9.925  71.226  1.00  0.00    -0.472 C  
HETATM   19  C   UNL     1     -13.131   9.445  71.493  1.00  0.00    -0.451 C  
ENDBRANCH  17  18
ENDBRANCH  16  17
ENDBRANCH  15  16
ENDBRANCH  14  15
ENDBRANCH  13  14
ENDBRANCH  12  13
ENDBRANCH   9  12
ENDBRANCH   8   9
ENDBRANCH   7   8
ENDBRANCH   6   7
ENDBRANCH   5   6
ENDBRANCH   4   5
ENDBRANCH   3   4
ENDBRANCH   2   3
TORSDOF 14
ENDMDL
MODEL      132
REMARK 921   NORMALIZED FREE ENERGY PREDICTED BY IDOCK:   -3.12 KCAL/MOL
REMARK 922        TOTAL FREE ENERGY PREDICTED BY IDOCK:   -7.41 KCAL/MOL
REMARK 923 INTER-LIGAND FREE ENERGY PREDICTED BY IDOCK:   -5.72 KCAL/MOL
REMARK 924 INTRA-LIGAND FREE ENERGY PREDICTED BY IDOCK:   -1.69 KCAL/MOL
REMARK 927      BINDING AFFINITY PREDICTED BY RF-SCORE:    0.00 PKD
ROOT
HETATM    1  C   UNL     1     -12.963  11.212  71.632  1.00  0.00    -0.548 C  
HETATM    2  C   UNL     1     -13.140   9.728  71.912  1.00  0.00    -0.544 C  
ENDROOT
BRANCH   2   3
HETATM    3  C   UNL     1     -11.793   9.032  72.060  1.00  0.00    -0.426 C  
BRANCH   3   4
HETATM    4  C   UNL     1     -10.772   9.583  71.064  1.00  0.00    -0.411 C  
BRANCH   4   5
HETATM    5  C   UNL     1     -10.039   8.440  70.378  1.00  0.00    -0.202 C  
BRANCH   5   6
HETATM    6  C   UNL     1     -10.416   8.314  68.902  1.00  0.00    -0.209 C  
BRANCH   6   7
HETATM    7  C   UNL     1      -9.137   8.272  68.071  1.00  0.00    -0.139 C  
BRANCH   7   8
HETATM    8  C   UNL     1      -9.220   9.155  66.829  1.00  0.00    -0.155 C  
BRANCH   8   9
HETATM    9  N   UNL     1      -8.369  10.452  66.952  1.00  0.00    -0.123 N  
HETATM   10  C   UNL     1      -7.639  10.478  68.294  1.00  0.00    -0.096 C  
HETATM   11  C   UNL     1      -7.356  10.525  65.809  1.00  0.00    -0.137 C  
BRANCH   9  12
HETATM   12  C   UNL     1      -9.368  11.639  66.859  1.00  0.00    -0.188 C  
BRANCH  12  13
HETATM   13  C   UNL     1     -10.018  11.972  68.199  1.00  0.00    -0.203 C  
BRANCH  13  14
HETATM   14  C   UNL     1     -11.539  12.067  68.102  1.00  0.00    -0.403 C  
BRANCH  14  15
HETATM   15  C   UNL     1     -11.941  13.541  68.125  1.00  0.00    -0.376 C  
BRANCH  15  16
HETATM   16  C   UNL     1     -12.376  14.041  66.754  1.00  0.00    -0.368 C  
BRANCH  16  17
HETATM   17  C   UNL     1     -11.209  14.733  66.051  1.00  0.00    -0.341 C  
BRANCH  17  18
HETATM   18  C   UNL     1     -10.926  14.099  64.693  1.00  0.00    -0.393 C  
HETATM   19  C   UNL     1     -11.994  13.080  64.330  1.00  0.00    -0.457 C  
ENDBRANCH  17  18
ENDBRANCH  16  17
ENDBRANCH  15  16
ENDBRANCH  14  15
ENDBRANCH  13  14
ENDBRANCH  12  13
ENDBRANCH   9  12
ENDBRANCH   8   9
ENDBRANCH   7   8
ENDBRANCH   6   7
ENDBRANCH   5   6
ENDBRANCH   4   5
ENDBRANCH   3   4
ENDBRANCH   2   3
TORSDOF 14
ENDMDL
MODEL      133
REMARK 921   NORMALIZED FREE ENERGY PREDICTED BY IDOCK:   -3.11 KCAL/MOL
REMARK 922        TOTAL FREE ENERGY PREDICTED BY IDOCK:   -7.39 KCAL/MOL
REMARK 923 INTER-LIGAND FREE ENERGY PREDICTED BY IDOCK:   -5.76 KCAL/MOL
REMARK 924 INTRA-LIGAND FREE ENERGY PREDICTED BY IDOCK:   -1.63 KCAL/MOL
REMARK 927      BINDING AFFINITY PREDICTED BY RF-SCORE:    0.00 PKD
ROOT
HETATM    1  C   UNL     1      -8.501  19.841  67.775  1.00  0.00    -0.359 C  
HETATM    2  C   UNL     1      -9.889  20.215  67.282  1.00  0.00    -0.580 C  
ENDROOT
BRANCH   2   3
HETATM    3  C   UNL     1     -10.728  18.973  67.007  1.00  0.00    -0.516 C  
BRANCH   3   4
HETATM    4  C   UNL     1     -10.211  17.770  67.794  1.00  0.00    -0.362 C  
BRANCH   4   5
HETATM    5  C   UNL     1     -10.609  16.477  67.097  1.00  0.00    -0.270 C  
BRANCH   5   6
HETATM    6  C   UNL     1     -10.088  16.410  65.662  1.00  0.00    -0.314 C  
BRANCH   6   7
HETATM    7  C   UNL     1     -10.948  15.427  64.873  1.00  0.00    -0.453 C  
BRANCH   7   8
HETATM    8  C   UNL     1     -10.413  14.000  64.941  1.00  0.00    -0.431 C  
BRANCH   8   9
HETATM    9  N   UNL     1     -11.477  12.936  64.545  1.00  0.00    -0.327 N  
HETATM   10  C   UNL     1     -12.521  12.797  65.653  1.00  0.00    -0.275 C  
HETATM   11  C   UNL     1     -12.160  13.337  63.237  1.00  0.00    -0.337 C  
BRANCH   9  12
HETATM   12  C   UNL     1     -10.707  11.598  64.360  1.00  0.00    -0.330 C  
BRANCH  12  13
HETATM   13  C   UNL     1      -9.359  11.588  65.074  1.00  0.00    -0.107 C  
BRANCH  13  14
HETATM   14  C   UNL     1      -9.441  10.967  66.466  1.00  0.00    -0.210 C  
BRANCH  14  15
HETATM   15  C   UNL     1      -8.470  11.701  67.390  1.00  0.00    -0.150 C  
BRANCH  15  16
HETATM   16  C   UNL     1      -9.192  12.565  68.414  1.00  0.00    -0.139 C  
BRANCH  16  17
HETATM   17  C   UNL     1      -8.681  14.003  68.345  1.00  0.00    -0.179 C  
BRANCH  17  18
HETATM   18  C   UNL     1      -7.444  14.110  67.459  1.00  0.00    -0.192 C  
HETATM   19  C   UNL     1      -6.928  15.538  67.408  1.00  0.00    -0.232 C  
ENDBRANCH  17  18
ENDBRANCH  16  17
ENDBRANCH  15  16
ENDBRANCH  14  15
ENDBRANCH  13  14
ENDBRANCH  12  13
ENDBRANCH   9  12
ENDBRANCH   8   9
ENDBRANCH   7   8
ENDBRANCH   6   7
ENDBRANCH   5   6
ENDBRANCH   4   5
ENDBRANCH   3   4
ENDBRANCH   2   3
TORSDOF 14
ENDMDL
MODEL      134
REMARK 921   NORMALIZED FREE ENERGY PREDICTED BY IDOCK:   -3.11 KCAL/MOL
REMARK 922        TOTAL FREE ENERGY PREDICTED BY IDOCK:   -7.38 KCAL/MOL
REMARK 923 INTER-LIGAND FREE ENERGY PREDICTED BY IDOCK:   -6.33 KCAL/MOL
REMARK 924 INTRA-LIGAND FREE ENERGY PREDICTED BY IDOCK:   -1.05 KCAL/MOL
REMARK 927      BINDING AFFINITY PREDICTED BY RF-SCORE:    0.00 PKD
ROOT
HETATM    1  C   UNL     1      -7.323  18.835  68.849  1.00  0.00    -0.325 C  
HETATM    2  C   UNL     1      -8.126  19.532  67.762  1.00  0.00    -0.331 C  
ENDROOT
BRANCH   2   3
HETATM    3  C   UNL     1      -9.575  19.726  68.190  1.00  0.00    -0.483 C  
BRANCH   3   4
HETATM    4  C   UNL     1     -10.539  19.110  67.177  1.00  0.00    -0.564 C  
BRANCH   4   5
HETATM    5  C   UNL     1     -10.561  17.596  67.327  1.00  0.00    -0.297 C  
BRANCH   5   6
HETATM    6  C   UNL     1     -10.092  16.882  66.059  1.00  0.00    -0.336 C  
BRANCH   6   7
HETATM    7  C   UNL     1     -10.523  15.420  66.131  1.00  0.00    -0.325 C  
BRANCH   7   8
HETATM    8  C   UNL     1     -11.525  15.163  67.252  1.00  0.00    -0.279 C  
BRANCH   8   9
HETATM    9  N   UNL     1     -11.186  13.894  68.086  1.00  0.00    -0.256 N  
HETATM   10  C   UNL     1      -9.726  13.935  68.538  1.00  0.00    -0.202 C  
HETATM   11  C   UNL     1     -12.104  13.806  69.306  1.00  0.00    -0.329 C  
BRANCH   9  12
HETATM   12  C   UNL     1     -11.425  12.678  67.147  1.00  0.00    -0.346 C  
BRANCH  12  13
HETATM   13  C   UNL     1     -10.266  11.686  67.159  1.00  0.00    -0.240 C  
BRANCH  13  14
HETATM   14  C   UNL     1     -10.703  10.275  66.768  1.00  0.00    -0.216 C  
BRANCH  14  15
HETATM   15  C   UNL     1     -10.594   9.370  67.994  1.00  0.00    -0.278 C  
BRANCH  15  16
HETATM   16  C   UNL     1      -9.743   9.990  69.095  1.00  0.00    -0.217 C  
BRANCH  16  17
HETATM   17  C   UNL     1     -10.405   9.777  70.455  1.00  0.00    -0.348 C  
BRANCH  17  18
HETATM   18  C   UNL     1     -11.749  10.491  70.535  1.00  0.00    -0.443 C  
HETATM   19  C   UNL     1     -12.614   9.908  71.640  1.00  0.00    -0.519 C  
ENDBRANCH  17  18
ENDBRANCH  16  17
ENDBRANCH  15  16
ENDBRANCH  14  15
ENDBRANCH  13  14
ENDBRANCH  12  13
ENDBRANCH   9  12
ENDBRANCH   8   9
ENDBRANCH   7   8
ENDBRANCH   6   7
ENDBRANCH   5   6
ENDBRANCH   4   5
ENDBRANCH   3   4
ENDBRANCH   2   3
TORSDOF 14
ENDMDL
MODEL      135
REMARK 921   NORMALIZED FREE ENERGY PREDICTED BY IDOCK:   -3.10 KCAL/MOL
REMARK 922        TOTAL FREE ENERGY PREDICTED BY IDOCK:   -7.37 KCAL/MOL
REMARK 923 INTER-LIGAND FREE ENERGY PREDICTED BY IDOCK:   -6.22 KCAL/MOL
REMARK 924 INTRA-LIGAND FREE ENERGY PREDICTED BY IDOCK:   -1.15 KCAL/MOL
REMARK 927      BINDING AFFINITY PREDICTED BY RF-SCORE:    0.00 PKD
ROOT
HETATM    1  C   UNL     1     -11.042   4.843  72.971  1.00  0.00    -0.368 C  
HETATM    2  C   UNL     1     -10.457   6.131  73.530  1.00  0.00    -0.279 C  
ENDROOT
BRANCH   2   3
HETATM    3  C   UNL     1     -11.056   7.350  72.839  1.00  0.00    -0.397 C  
BRANCH   3   4
HETATM    4  C   UNL     1     -12.120   6.944  71.821  1.00  0.00    -0.385 C  
BRANCH   4   5
HETATM    5  C   UNL     1     -13.153   8.051  71.671  1.00  0.00    -0.354 C  
BRANCH   5   6
HETATM    6  C   UNL     1     -12.575   9.429  71.994  1.00  0.00    -0.462 C  
BRANCH   6   7
HETATM    7  C   UNL     1     -12.221  10.132  70.688  1.00  0.00    -0.394 C  
BRANCH   7   8
HETATM    8  C   UNL     1     -10.731  10.056  70.370  1.00  0.00    -0.307 C  
BRANCH   8   9
HETATM    9  N   UNL     1     -10.432  10.154  68.847  1.00  0.00    -0.198 N  
HETATM   10  C   UNL     1      -9.088  10.845  68.617  1.00  0.00    -0.175 C  
HETATM   11  C   UNL     1     -10.409   8.758  68.224  1.00  0.00    -0.207 C  
BRANCH   9  12
HETATM   12  C   UNL     1     -11.583  10.998  68.230  1.00  0.00    -0.284 C  
BRANCH  12  13
HETATM   13  C   UNL     1     -11.076  12.160  67.382  1.00  0.00    -0.330 C  
BRANCH  13  14
HETATM   14  C   UNL     1     -11.843  13.454  67.648  1.00  0.00    -0.394 C  
BRANCH  14  15
HETATM   15  C   UNL     1     -11.833  13.732  69.150  1.00  0.00    -0.398 C  
BRANCH  15  16
HETATM   16  C   UNL     1     -11.869  15.222  69.460  1.00  0.00    -0.368 C  
BRANCH  16  17
HETATM   17  C   UNL     1     -10.504  15.691  69.958  1.00  0.00    -0.333 C  
BRANCH  17  18
HETATM   18  C   UNL     1      -9.660  16.250  68.819  1.00  0.00    -0.242 C  
HETATM   19  C   UNL     1     -10.525  16.972  67.799  1.00  0.00    -0.349 C  
ENDBRANCH  17  18
ENDBRANCH  16  17
ENDBRANCH  15  16
ENDBRANCH  14  15
ENDBRANCH  13  14
ENDBRANCH  12  13
ENDBRANCH   9  12
ENDBRANCH   8   9
ENDBRANCH   7   8
ENDBRANCH   6   7
ENDBRANCH   5   6
ENDBRANCH   4   5
ENDBRANCH   3   4
ENDBRANCH   2   3
TORSDOF 14
ENDMDL
MODEL      136
REMARK 921   NORMALIZED FREE ENERGY PREDICTED BY IDOCK:   -3.08 KCAL/MOL
REMARK 922        TOTAL FREE ENERGY PREDICTED BY IDOCK:   -7.34 KCAL/MOL
REMARK 923 INTER-LIGAND FREE ENERGY PREDICTED BY IDOCK:   -5.29 KCAL/MOL
REMARK 924 INTRA-LIGAND FREE ENERGY PREDICTED BY IDOCK:   -2.06 KCAL/MOL
REMARK 927      BINDING AFFINITY PREDICTED BY RF-SCORE:    0.00 PKD
ROOT
HETATM    1  C   UNL     1     -12.290  11.986  63.576  1.00  0.00    -0.661 C  
HETATM    2  C   UNL     1     -12.226  13.359  64.224  1.00  0.00    -0.450 C  
ENDROOT
BRANCH   2   3
HETATM    3  C   UNL     1     -10.785  13.768  64.504  1.00  0.00    -0.405 C  
BRANCH   3   4
HETATM    4  C   UNL     1     -10.468  13.696  65.997  1.00  0.00    -0.300 C  
BRANCH   4   5
HETATM    5  C   UNL     1     -11.671  14.150  66.811  1.00  0.00    -0.432 C  
BRANCH   5   6
HETATM    6  C   UNL     1     -11.805  13.379  68.124  1.00  0.00    -0.396 C  
BRANCH   6   7
HETATM    7  C   UNL     1     -11.802  11.884  67.818  1.00  0.00    -0.289 C  
BRANCH   7   8
HETATM    8  C   UNL     1     -11.429  11.041  69.034  1.00  0.00    -0.299 C  
BRANCH   8   9
HETATM    9  N   UNL     1     -10.323   9.991  68.725  1.00  0.00    -0.188 N  
HETATM   10  C   UNL     1     -10.357   8.870  69.763  1.00  0.00    -0.207 C  
HETATM   11  C   UNL     1     -10.528   9.409  67.326  1.00  0.00    -0.264 C  
BRANCH   9  12
HETATM   12  C   UNL     1      -8.969  10.751  68.796  1.00  0.00    -0.170 C  
BRANCH  12  13
HETATM   13  C   UNL     1      -8.345  10.979  67.423  1.00  0.00    -0.126 C  
BRANCH  13  14
HETATM   14  C   UNL     1      -7.393  12.172  67.405  1.00  0.00    -0.151 C  
BRANCH  14  15
HETATM   15  C   UNL     1      -7.869  13.197  68.434  1.00  0.00    -0.135 C  
BRANCH  15  16
HETATM   16  C   UNL     1      -6.776  14.187  68.809  1.00  0.00    -0.098 C  
BRANCH  16  17
HETATM   17  C   UNL     1      -7.394  15.475  69.352  1.00  0.00    -0.215 C  
BRANCH  17  18
HETATM   18  C   UNL     1      -8.908  15.479  69.177  1.00  0.00    -0.253 C  
HETATM   19  C   UNL     1      -9.373  16.735  68.458  1.00  0.00    -0.246 C  
ENDBRANCH  17  18
ENDBRANCH  16  17
ENDBRANCH  15  16
ENDBRANCH  14  15
ENDBRANCH  13  14
ENDBRANCH  12  13
ENDBRANCH   9  12
ENDBRANCH   8   9
ENDBRANCH   7   8
ENDBRANCH   6   7
ENDBRANCH   5   6
ENDBRANCH   4   5
ENDBRANCH   3   4
ENDBRANCH   2   3
TORSDOF 14
ENDMDL
MODEL      137
REMARK 921   NORMALIZED FREE ENERGY PREDICTED BY IDOCK:   -3.08 KCAL/MOL
REMARK 922        TOTAL FREE ENERGY PREDICTED BY IDOCK:   -7.34 KCAL/MOL
REMARK 923 INTER-LIGAND FREE ENERGY PREDICTED BY IDOCK:   -6.16 KCAL/MOL
REMARK 924 INTRA-LIGAND FREE ENERGY PREDICTED BY IDOCK:   -1.18 KCAL/MOL
REMARK 927      BINDING AFFINITY PREDICTED BY RF-SCORE:    0.00 PKD
ROOT
HETATM    1  C   UNL     1     -10.194   5.869  72.217  1.00  0.00    -0.222 C  
HETATM    2  C   UNL     1     -11.268   6.877  72.594  1.00  0.00    -0.297 C  
ENDROOT
BRANCH   2   3
HETATM    3  C   UNL     1     -10.779   8.305  72.384  1.00  0.00    -0.411 C  
BRANCH   3   4
HETATM    4  C   UNL     1     -11.844   9.161  71.700  1.00  0.00    -0.443 C  
BRANCH   4   5
HETATM    5  C   UNL     1     -11.292   9.757  70.414  1.00  0.00    -0.362 C  
BRANCH   5   6
HETATM    6  C   UNL     1     -12.273  10.728  69.758  1.00  0.00    -0.359 C  
BRANCH   6   7
HETATM    7  C   UNL     1     -11.669  11.228  68.449  1.00  0.00    -0.365 C  
BRANCH   7   8
HETATM    8  C   UNL     1     -10.551  12.242  68.674  1.00  0.00    -0.224 C  
BRANCH   8   9
HETATM    9  N   UNL     1      -9.353  12.046  67.702  1.00  0.00    -0.180 N  
HETATM   10  C   UNL     1      -8.220  11.300  68.406  1.00  0.00    -0.149 C  
HETATM   11  C   UNL     1      -9.800  11.262  66.467  1.00  0.00    -0.208 C  
BRANCH   9  12
HETATM   12  C   UNL     1      -8.886  13.471  67.292  1.00  0.00    -0.224 C  
BRANCH  12  13
HETATM   13  C   UNL     1      -9.590  14.573  68.079  1.00  0.00    -0.217 C  
BRANCH  13  14
HETATM   14  C   UNL     1     -10.222  15.625  67.171  1.00  0.00    -0.270 C  
BRANCH  14  15
HETATM   15  C   UNL     1     -10.925  14.918  66.013  1.00  0.00    -0.334 C  
BRANCH  15  16
HETATM   16  C   UNL     1     -12.267  14.330  66.428  1.00  0.00    -0.426 C  
BRANCH  16  17
HETATM   17  C   UNL     1     -12.881  13.549  65.268  1.00  0.00    -0.410 C  
BRANCH  17  18
HETATM   18  C   UNL     1     -11.866  13.320  64.154  1.00  0.00    -0.497 C  
HETATM   19  C   UNL     1     -12.032  11.942  63.535  1.00  0.00    -0.567 C  
ENDBRANCH  17  18
ENDBRANCH  16  17
ENDBRANCH  15  16
ENDBRANCH  14  15
ENDBRANCH  13  14
ENDBRANCH  12  13
ENDBRANCH   9  12
ENDBRANCH   8   9
ENDBRANCH   7   8
ENDBRANCH   6   7
ENDBRANCH   5   6
ENDBRANCH   4   5
ENDBRANCH   3   4
ENDBRANCH   2   3
TORSDOF 14
ENDMDL
MODEL      138
REMARK 921   NORMALIZED FREE ENERGY PREDICTED BY IDOCK:   -3.07 KCAL/MOL
REMARK 922        TOTAL FREE ENERGY PREDICTED BY IDOCK:   -7.32 KCAL/MOL
REMARK 923 INTER-LIGAND FREE ENERGY PREDICTED BY IDOCK:   -6.69 KCAL/MOL
REMARK 924 INTRA-LIGAND FREE ENERGY PREDICTED BY IDOCK:   -0.63 KCAL/MOL
REMARK 927      BINDING AFFINITY PREDICTED BY RF-SCORE:    0.00 PKD
ROOT
HETATM    1  C   UNL     1     -10.378   5.539  71.990  1.00  0.00    -0.265 C  
HETATM    2  C   UNL     1     -11.737   6.219  72.031  1.00  0.00    -0.374 C  
ENDROOT
BRANCH   2   3
HETATM    3  C   UNL     1     -12.001   6.996  70.746  1.00  0.00    -0.392 C  
BRANCH   3   4
HETATM    4  C   UNL     1     -10.990   6.632  69.660  1.00  0.00    -0.367 C  
BRANCH   4   5
HETATM    5  C   UNL     1     -10.383   7.894  69.064  1.00  0.00    -0.223 C  
BRANCH   5   6
HETATM    6  C   UNL     1     -10.566   7.963  67.548  1.00  0.00    -0.312 C  
BRANCH   6   7
HETATM    7  C   UNL     1     -10.218   9.371  67.075  1.00  0.00    -0.322 C  
BRANCH   7   8
HETATM    8  C   UNL     1     -11.022  10.445  67.802  1.00  0.00    -0.309 C  
BRANCH   8   9
HETATM    9  N   UNL     1     -10.746  11.877  67.261  1.00  0.00    -0.227 N  
HETATM   10  C   UNL     1      -9.291  12.266  67.519  1.00  0.00    -0.183 C  
HETATM   11  C   UNL     1     -11.041  11.938  65.761  1.00  0.00    -0.317 C  
BRANCH   9  12
HETATM   12  C   UNL     1     -11.703  12.827  68.034  1.00  0.00    -0.356 C  
BRANCH  12  13
HETATM   13  C   UNL     1     -11.110  14.215  68.252  1.00  0.00    -0.274 C  
BRANCH  13  14
HETATM   14  C   UNL     1     -12.009  15.106  69.106  1.00  0.00    -0.304 C  
BRANCH  14  15
HETATM   15  C   UNL     1     -11.973  14.604  70.548  1.00  0.00    -0.376 C  
BRANCH  15  16
HETATM   16  C   UNL     1     -13.354  14.212  71.056  1.00  0.00    -0.288 C  
BRANCH  16  17
HETATM   17  C   UNL     1     -13.370  14.199  72.584  1.00  0.00    -0.638 C  
BRANCH  17  18
HETATM   18  C   UNL     1     -12.159  14.927  73.157  1.00  0.00    -0.377 C  
HETATM   19  C   UNL     1     -12.534  15.723  74.396  1.00  0.00    -0.790 C  
ENDBRANCH  17  18
ENDBRANCH  16  17
ENDBRANCH  15  16
ENDBRANCH  14  15
ENDBRANCH  13  14
ENDBRANCH  12  13
ENDBRANCH   9  12
ENDBRANCH   8   9
ENDBRANCH   7   8
ENDBRANCH   6   7
ENDBRANCH   5   6
ENDBRANCH   4   5
ENDBRANCH   3   4
ENDBRANCH   2   3
TORSDOF 14
ENDMDL
MODEL      139
REMARK 921   NORMALIZED FREE ENERGY PREDICTED BY IDOCK:   -3.07 KCAL/MOL
REMARK 922        TOTAL FREE ENERGY PREDICTED BY IDOCK:   -7.32 KCAL/MOL
REMARK 923 INTER-LIGAND FREE ENERGY PREDICTED BY IDOCK:   -6.62 KCAL/MOL
REMARK 924 INTRA-LIGAND FREE ENERGY PREDICTED BY IDOCK:   -0.70 KCAL/MOL
REMARK 927      BINDING AFFINITY PREDICTED BY RF-SCORE:    0.00 PKD
ROOT
HETATM    1  C   UNL     1      -8.775   4.105  67.551  1.00  0.00    -0.117 C  
HETATM    2  C   UNL     1      -9.155   5.174  66.539  1.00  0.00    -0.127 C  
ENDROOT
BRANCH   2   3
HETATM    3  C   UNL     1     -10.653   5.451  66.569  1.00  0.00    -0.353 C  
BRANCH   3   4
HETATM    4  C   UNL     1     -10.958   6.780  67.259  1.00  0.00    -0.433 C  
BRANCH   4   5
HETATM    5  C   UNL     1     -10.006   7.858  66.763  1.00  0.00    -0.333 C  
BRANCH   5   6
HETATM    6  C   UNL     1     -10.469   9.262  67.154  1.00  0.00    -0.319 C  
BRANCH   6   7
HETATM    7  C   UNL     1     -10.211  10.208  65.985  1.00  0.00    -0.288 C  
BRANCH   7   8
HETATM    8  C   UNL     1     -10.866  11.571  66.184  1.00  0.00    -0.278 C  
BRANCH   8   9
HETATM    9  N   UNL     1     -11.084  12.338  64.848  1.00  0.00    -0.302 N  
HETATM   10  C   UNL     1     -10.416  11.589  63.695  1.00  0.00    -0.427 C  
HETATM   11  C   UNL     1     -12.580  12.491  64.568  1.00  0.00    -0.421 C  
BRANCH   9  12
HETATM   12  C   UNL     1     -10.429  13.735  65.034  1.00  0.00    -0.402 C  
BRANCH  12  13
HETATM   13  C   UNL     1     -10.182  14.082  66.499  1.00  0.00    -0.279 C  
BRANCH  13  14
HETATM   14  C   UNL     1     -11.223  15.052  67.052  1.00  0.00    -0.328 C  
BRANCH  14  15
HETATM   15  C   UNL     1     -11.852  14.439  68.303  1.00  0.00    -0.361 C  
BRANCH  15  16
HETATM   16  C   UNL     1     -11.108  14.830  69.572  1.00  0.00    -0.302 C  
BRANCH  16  17
HETATM   17  C   UNL     1     -11.916  14.425  70.803  1.00  0.00    -0.391 C  
BRANCH  17  18
HETATM   18  C   UNL     1     -13.072  15.388  71.049  1.00  0.00    -0.565 C  
HETATM   19  C   UNL     1     -13.886  14.970  72.263  1.00  0.00    -0.596 C  
ENDBRANCH  17  18
ENDBRANCH  16  17
ENDBRANCH  15  16
ENDBRANCH  14  15
ENDBRANCH  13  14
ENDBRANCH  12  13
ENDBRANCH   9  12
ENDBRANCH   8   9
ENDBRANCH   7   8
ENDBRANCH   6   7
ENDBRANCH   5   6
ENDBRANCH   4   5
ENDBRANCH   3   4
ENDBRANCH   2   3
TORSDOF 14
ENDMDL
MODEL      140
REMARK 921   NORMALIZED FREE ENERGY PREDICTED BY IDOCK:   -3.07 KCAL/MOL
REMARK 922        TOTAL FREE ENERGY PREDICTED BY IDOCK:   -7.32 KCAL/MOL
REMARK 923 INTER-LIGAND FREE ENERGY PREDICTED BY IDOCK:   -6.55 KCAL/MOL
REMARK 924 INTRA-LIGAND FREE ENERGY PREDICTED BY IDOCK:   -0.77 KCAL/MOL
REMARK 927      BINDING AFFINITY PREDICTED BY RF-SCORE:    0.00 PKD
ROOT
HETATM    1  C   UNL     1      -9.946   8.948  71.824  1.00  0.00    -0.397 C  
HETATM    2  C   UNL     1     -11.327   8.743  71.222  1.00  0.00    -0.357 C  
ENDROOT
BRANCH   2   3
HETATM    3  C   UNL     1     -12.273   9.868  71.623  1.00  0.00    -0.482 C  
BRANCH   3   4
HETATM    4  C   UNL     1     -12.342  10.947  70.543  1.00  0.00    -0.463 C  
BRANCH   4   5
HETATM    5  C   UNL     1     -12.664  12.296  71.168  1.00  0.00    -0.340 C  
BRANCH   5   6
HETATM    6  C   UNL     1     -12.154  13.462  70.322  1.00  0.00    -0.419 C  
BRANCH   6   7
HETATM    7  C   UNL     1     -11.901  12.965  68.902  1.00  0.00    -0.352 C  
BRANCH   7   8
HETATM    8  C   UNL     1     -10.673  13.613  68.269  1.00  0.00    -0.254 C  
BRANCH   8   9
HETATM    9  N   UNL     1     -10.977  14.266  66.890  1.00  0.00    -0.299 N  
HETATM   10  C   UNL     1      -9.948  13.814  65.854  1.00  0.00    -0.293 C  
HETATM   11  C   UNL     1     -12.383  13.882  66.425  1.00  0.00    -0.426 C  
BRANCH   9  12
HETATM   12  C   UNL     1     -10.885  15.802  67.105  1.00  0.00    -0.289 C  
BRANCH  12  13
HETATM   13  C   UNL     1     -10.276  16.532  65.912  1.00  0.00    -0.368 C  
BRANCH  13  14
HETATM   14  C   UNL     1      -9.282  17.612  66.333  1.00  0.00    -0.263 C  
BRANCH  14  15
HETATM   15  C   UNL     1      -7.875  17.017  66.320  1.00  0.00    -0.346 C  
BRANCH  15  16
HETATM   16  C   UNL     1      -6.822  18.018  66.777  1.00  0.00    -0.228 C  
BRANCH  16  17
HETATM   17  C   UNL     1      -6.860  18.167  68.297  1.00  0.00    -0.229 C  
BRANCH  17  18
HETATM   18  C   UNL     1      -7.250  19.583  68.706  1.00  0.00    -0.391 C  
HETATM   19  C   UNL     1      -6.490  20.617  67.890  1.00  0.00    -0.355 C  
ENDBRANCH  17  18
ENDBRANCH  16  17
ENDBRANCH  15  16
ENDBRANCH  14  15
ENDBRANCH  13  14
ENDBRANCH  12  13
ENDBRANCH   9  12
ENDBRANCH   8   9
ENDBRANCH   7   8
ENDBRANCH   6   7
ENDBRANCH   5   6
ENDBRANCH   4   5
ENDBRANCH   3   4
ENDBRANCH   2   3
TORSDOF 14
ENDMDL
MODEL      141
REMARK 921   NORMALIZED FREE ENERGY PREDICTED BY IDOCK:   -3.06 KCAL/MOL
REMARK 922        TOTAL FREE ENERGY PREDICTED BY IDOCK:   -7.30 KCAL/MOL
REMARK 923 INTER-LIGAND FREE ENERGY PREDICTED BY IDOCK:   -5.95 KCAL/MOL
REMARK 924 INTRA-LIGAND FREE ENERGY PREDICTED BY IDOCK:   -1.35 KCAL/MOL
REMARK 927      BINDING AFFINITY PREDICTED BY RF-SCORE:    0.00 PKD
ROOT
HETATM    1  C   UNL     1     -12.528   9.830  71.257  1.00  0.00    -0.461 C  
HETATM    2  C   UNL     1     -12.548   8.674  72.245  1.00  0.00    -0.457 C  
ENDROOT
BRANCH   2   3
HETATM    3  C   UNL     1     -12.847   7.355  71.542  1.00  0.00    -0.416 C  
BRANCH   3   4
HETATM    4  C   UNL     1     -11.824   6.283  71.917  1.00  0.00    -0.359 C  
BRANCH   4   5
HETATM    5  C   UNL     1     -10.649   6.318  70.951  1.00  0.00    -0.293 C  
BRANCH   5   6
HETATM    6  C   UNL     1     -11.074   6.715  69.537  1.00  0.00    -0.378 C  
BRANCH   6   7
HETATM    7  C   UNL     1     -10.021   7.651  68.952  1.00  0.00    -0.178 C  
BRANCH   7   8
HETATM    8  C   UNL     1     -10.555   8.467  67.779  1.00  0.00    -0.175 C  
BRANCH   8   9
HETATM    9  N   UNL     1      -9.976   9.910  67.733  1.00  0.00    -0.158 N  
HETATM   10  C   UNL     1      -9.493  10.329  69.121  1.00  0.00    -0.215 C  
HETATM   11  C   UNL     1      -8.816   9.980  66.738  1.00  0.00    -0.132 C  
BRANCH   9  12
HETATM   12  C   UNL     1     -11.137  10.831  67.266  1.00  0.00    -0.270 C  
BRANCH  12  13
HETATM   13  C   UNL     1     -10.706  11.832  66.198  1.00  0.00    -0.320 C  
BRANCH  13  14
HETATM   14  C   UNL     1     -11.894  12.453  65.467  1.00  0.00    -0.469 C  
BRANCH  14  15
HETATM   15  C   UNL     1     -12.209  13.807  66.103  1.00  0.00    -0.499 C  
BRANCH  15  16
HETATM   16  C   UNL     1     -10.950  14.558  66.513  1.00  0.00    -0.321 C  
BRANCH  16  17
HETATM   17  C   UNL     1     -11.128  15.167  67.902  1.00  0.00    -0.322 C  
BRANCH  17  18
HETATM   18  C   UNL     1     -12.274  14.502  68.656  1.00  0.00    -0.158 C  
HETATM   19  C   UNL     1     -11.751  13.546  69.716  1.00  0.00    -0.363 C  
ENDBRANCH  17  18
ENDBRANCH  16  17
ENDBRANCH  15  16
ENDBRANCH  14  15
ENDBRANCH  13  14
ENDBRANCH  12  13
ENDBRANCH   9  12
ENDBRANCH   8   9
ENDBRANCH   7   8
ENDBRANCH   6   7
ENDBRANCH   5   6
ENDBRANCH   4   5
ENDBRANCH   3   4
ENDBRANCH   2   3
TORSDOF 14
ENDMDL
MODEL      142
REMARK 921   NORMALIZED FREE ENERGY PREDICTED BY IDOCK:   -3.04 KCAL/MOL
REMARK 922        TOTAL FREE ENERGY PREDICTED BY IDOCK:   -7.27 KCAL/MOL
REMARK 923 INTER-LIGAND FREE ENERGY PREDICTED BY IDOCK:   -5.90 KCAL/MOL
REMARK 924 INTRA-LIGAND FREE ENERGY PREDICTED BY IDOCK:   -1.37 KCAL/MOL
REMARK 927      BINDING AFFINITY PREDICTED BY RF-SCORE:    0.00 PKD
ROOT
HETATM    1  C   UNL     1     -11.192  14.696  69.674  1.00  0.00    -0.307 C  
HETATM    2  C   UNL     1     -11.660  16.033  69.122  1.00  0.00    -0.337 C  
ENDROOT
BRANCH   2   3
HETATM    3  C   UNL     1     -10.500  17.014  69.004  1.00  0.00    -0.337 C  
BRANCH   3   4
HETATM    4  C   UNL     1     -10.619  17.863  67.738  1.00  0.00    -0.399 C  
BRANCH   4   5
HETATM    5  C   UNL     1      -9.675  17.340  66.665  1.00  0.00    -0.295 C  
BRANCH   5   6
HETATM    6  C   UNL     1     -10.403  16.507  65.610  1.00  0.00    -0.342 C  
BRANCH   6   7
HETATM    7  C   UNL     1      -9.940  15.058  65.722  1.00  0.00    -0.376 C  
BRANCH   7   8
HETATM    8  C   UNL     1     -10.542  14.169  64.638  1.00  0.00    -0.368 C  
BRANCH   8   9
HETATM    9  N   UNL     1     -11.054  12.807  65.189  1.00  0.00    -0.285 N  
HETATM   10  C   UNL     1     -12.582  12.764  65.151  1.00  0.00    -0.444 C  
HETATM   11  C   UNL     1     -10.482  11.656  64.360  1.00  0.00    -0.322 C  
BRANCH   9  12
HETATM   12  C   UNL     1     -10.549  12.713  66.656  1.00  0.00    -0.248 C  
BRANCH  12  13
HETATM   13  C   UNL     1     -11.553  12.036  67.584  1.00  0.00    -0.392 C  
BRANCH  13  14
HETATM   14  C   UNL     1     -10.941  10.865  68.350  1.00  0.00    -0.288 C  
BRANCH  14  15
HETATM   15  C   UNL     1      -9.481  10.710  67.927  1.00  0.00    -0.168 C  
BRANCH  15  16
HETATM   16  C   UNL     1      -9.135   9.272  67.565  1.00  0.00    -0.133 C  
BRANCH  16  17
HETATM   17  C   UNL     1     -10.088   8.756  66.489  1.00  0.00    -0.349 C  
BRANCH  17  18
HETATM   18  C   UNL     1     -10.734   7.439  66.907  1.00  0.00    -0.324 C  
HETATM   19  C   UNL     1     -10.128   6.917  68.199  1.00  0.00    -0.187 C  
ENDBRANCH  17  18
ENDBRANCH  16  17
ENDBRANCH  15  16
ENDBRANCH  14  15
ENDBRANCH  13  14
ENDBRANCH  12  13
ENDBRANCH   9  12
ENDBRANCH   8   9
ENDBRANCH   7   8
ENDBRANCH   6   7
ENDBRANCH   5   6
ENDBRANCH   4   5
ENDBRANCH   3   4
ENDBRANCH   2   3
TORSDOF 14
ENDMDL
MODEL      143
REMARK 921   NORMALIZED FREE ENERGY PREDICTED BY IDOCK:   -3.04 KCAL/MOL
REMARK 922        TOTAL FREE ENERGY PREDICTED BY IDOCK:   -7.27 KCAL/MOL
REMARK 923 INTER-LIGAND FREE ENERGY PREDICTED BY IDOCK:   -6.28 KCAL/MOL
REMARK 924 INTRA-LIGAND FREE ENERGY PREDICTED BY IDOCK:   -0.99 KCAL/MOL
REMARK 927      BINDING AFFINITY PREDICTED BY RF-SCORE:    0.00 PKD
ROOT
HETATM    1  C   UNL     1      -9.820   3.581  71.553  1.00  0.00    -0.219 C  
HETATM    2  C   UNL     1     -10.382   3.557  72.966  1.00  0.00    -0.245 C  
ENDROOT
BRANCH   2   3
HETATM    3  C   UNL     1     -11.312   4.740  73.207  1.00  0.00    -0.408 C  
BRANCH   3   4
HETATM    4  C   UNL     1     -10.672   6.050  72.748  1.00  0.00    -0.269 C  
BRANCH   4   5
HETATM    5  C   UNL     1     -11.735   6.986  72.190  1.00  0.00    -0.321 C  
BRANCH   5   6
HETATM    6  C   UNL     1     -12.036   6.707  70.718  1.00  0.00    -0.412 C  
BRANCH   6   7
HETATM    7  C   UNL     1     -10.754   6.889  69.911  1.00  0.00    -0.278 C  
BRANCH   7   8
HETATM    8  C   UNL     1     -10.439   8.357  69.642  1.00  0.00    -0.221 C  
BRANCH   8   9
HETATM    9  N   UNL     1     -10.110   8.641  68.148  1.00  0.00    -0.189 N  
HETATM   10  C   UNL     1      -8.601   8.790  67.959  1.00  0.00    -0.134 C  
HETATM   11  C   UNL     1     -10.633   7.504  67.269  1.00  0.00    -0.324 C  
BRANCH   9  12
HETATM   12  C   UNL     1     -10.831   9.971  67.789  1.00  0.00    -0.282 C  
BRANCH  12  13
HETATM   13  C   UNL     1     -11.466  10.646  69.000  1.00  0.00    -0.342 C  
BRANCH  13  14
HETATM   14  C   UNL     1     -11.801  12.113  68.741  1.00  0.00    -0.356 C  
BRANCH  14  15
HETATM   15  C   UNL     1     -11.736  12.375  67.237  1.00  0.00    -0.419 C  
BRANCH  15  16
HETATM   16  C   UNL     1     -12.022  13.830  66.893  1.00  0.00    -0.460 C  
BRANCH  16  17
HETATM   17  C   UNL     1     -12.690  13.926  65.522  1.00  0.00    -0.536 C  
BRANCH  17  18
HETATM   18  C   UNL     1     -11.868  14.779  64.563  1.00  0.00    -0.428 C  
HETATM   19  C   UNL     1     -10.707  15.448  65.282  1.00  0.00    -0.439 C  
ENDBRANCH  17  18
ENDBRANCH  16  17
ENDBRANCH  15  16
ENDBRANCH  14  15
ENDBRANCH  13  14
ENDBRANCH  12  13
ENDBRANCH   9  12
ENDBRANCH   8   9
ENDBRANCH   7   8
ENDBRANCH   6   7
ENDBRANCH   5   6
ENDBRANCH   4   5
ENDBRANCH   3   4
ENDBRANCH   2   3
TORSDOF 14
ENDMDL
MODEL      144
REMARK 921   NORMALIZED FREE ENERGY PREDICTED BY IDOCK:   -3.04 KCAL/MOL
REMARK 922        TOTAL FREE ENERGY PREDICTED BY IDOCK:   -7.26 KCAL/MOL
REMARK 923 INTER-LIGAND FREE ENERGY PREDICTED BY IDOCK:   -6.14 KCAL/MOL
REMARK 924 INTRA-LIGAND FREE ENERGY PREDICTED BY IDOCK:   -1.13 KCAL/MOL
REMARK 927      BINDING AFFINITY PREDICTED BY RF-SCORE:    0.00 PKD
ROOT
HETATM    1  C   UNL     1     -10.477  14.767  68.740  1.00  0.00    -0.250 C  
HETATM    2  C   UNL     1     -11.469  13.669  69.090  1.00  0.00    -0.346 C  
ENDROOT
BRANCH   2   3
HETATM    3  C   UNL     1     -11.866  12.873  67.852  1.00  0.00    -0.388 C  
BRANCH   3   4
HETATM    4  C   UNL     1     -11.953  13.772  66.619  1.00  0.00    -0.469 C  
BRANCH   4   5
HETATM    5  C   UNL     1     -12.389  12.961  65.408  1.00  0.00    -0.538 C  
BRANCH   5   6
HETATM    6  C   UNL     1     -11.337  12.966  64.299  1.00  0.00    -0.417 C  
BRANCH   6   7
HETATM    7  C   UNL     1     -10.056  12.333  64.834  1.00  0.00    -0.274 C  
BRANCH   7   8
HETATM    8  C   UNL     1      -9.924  10.865  64.442  1.00  0.00    -0.322 C  
BRANCH   8   9
HETATM    9  N   UNL     1      -9.080  10.041  65.457  1.00  0.00    -0.173 N  
HETATM   10  C   UNL     1      -8.065   9.171  64.716  1.00  0.00    -0.140 C  
HETATM   11  C   UNL     1      -8.353  10.980  66.420  1.00  0.00    -0.165 C  
BRANCH   9  12
HETATM   12  C   UNL     1     -10.087   9.149  66.237  1.00  0.00    -0.249 C  
BRANCH  12  13
HETATM   13  C   UNL     1     -10.493   9.750  67.579  1.00  0.00    -0.309 C  
BRANCH  13  14
HETATM   14  C   UNL     1     -10.290   8.778  68.739  1.00  0.00    -0.234 C  
BRANCH  14  15
HETATM   15  C   UNL     1      -9.540   9.498  69.858  1.00  0.00    -0.250 C  
BRANCH  15  16
HETATM   16  C   UNL     1     -10.100   9.164  71.234  1.00  0.00    -0.388 C  
BRANCH  16  17
HETATM   17  C   UNL     1     -11.618   9.333  71.242  1.00  0.00    -0.419 C  
BRANCH  17  18
HETATM   18  C   UNL     1     -12.304   8.150  71.916  1.00  0.00    -0.371 C  
HETATM   19  C   UNL     1     -13.808   8.193  71.701  1.00  0.00    -0.434 C  
ENDBRANCH  17  18
ENDBRANCH  16  17
ENDBRANCH  15  16
ENDBRANCH  14  15
ENDBRANCH  13  14
ENDBRANCH  12  13
ENDBRANCH   9  12
ENDBRANCH   8   9
ENDBRANCH   7   8
ENDBRANCH   6   7
ENDBRANCH   5   6
ENDBRANCH   4   5
ENDBRANCH   3   4
ENDBRANCH   2   3
TORSDOF 14
ENDMDL
MODEL      145
REMARK 921   NORMALIZED FREE ENERGY PREDICTED BY IDOCK:   -3.04 KCAL/MOL
REMARK 922        TOTAL FREE ENERGY PREDICTED BY IDOCK:   -7.26 KCAL/MOL
REMARK 923 INTER-LIGAND FREE ENERGY PREDICTED BY IDOCK:   -6.10 KCAL/MOL
REMARK 924 INTRA-LIGAND FREE ENERGY PREDICTED BY IDOCK:   -1.16 KCAL/MOL
REMARK 927      BINDING AFFINITY PREDICTED BY RF-SCORE:    0.00 PKD
ROOT
HETATM    1  C   UNL     1     -10.943   9.920  68.109  1.00  0.00    -0.261 C  
HETATM    2  C   UNL     1     -10.214   9.736  66.787  1.00  0.00    -0.300 C  
ENDROOT
BRANCH   2   3
HETATM    3  C   UNL     1      -9.353  10.950  66.462  1.00  0.00    -0.195 C  
BRANCH   3   4
HETATM    4  C   UNL     1      -7.865  10.613  66.549  1.00  0.00    -0.140 C  
BRANCH   4   5
HETATM    5  C   UNL     1      -7.125  11.703  67.312  1.00  0.00    -0.134 C  
BRANCH   5   6
HETATM    6  C   UNL     1      -8.076  12.619  68.081  1.00  0.00    -0.164 C  
BRANCH   6   7
HETATM    7  C   UNL     1      -7.816  14.062  67.659  1.00  0.00    -0.185 C  
BRANCH   7   8
HETATM    8  C   UNL     1      -8.690  15.057  68.419  1.00  0.00    -0.175 C  
BRANCH   8   9
HETATM    9  N   UNL     1      -9.653  15.848  67.488  1.00  0.00    -0.220 N  
HETATM   10  C   UNL     1     -10.163  17.101  68.201  1.00  0.00    -0.332 C  
HETATM   11  C   UNL     1      -8.932  16.243  66.199  1.00  0.00    -0.339 C  
BRANCH   9  12
HETATM   12  C   UNL     1     -10.836  14.891  67.169  1.00  0.00    -0.311 C  
BRANCH  12  13
HETATM   13  C   UNL     1     -11.951  14.961  68.208  1.00  0.00    -0.245 C  
BRANCH  13  14
HETATM   14  C   UNL     1     -11.928  13.776  69.170  1.00  0.00    -0.403 C  
BRANCH  14  15
HETATM   15  C   UNL     1     -12.183  14.288  70.587  1.00  0.00    -0.427 C  
BRANCH  15  16
HETATM   16  C   UNL     1     -13.198  13.433  71.334  1.00  0.00    -0.329 C  
BRANCH  16  17
HETATM   17  C   UNL     1     -13.477  14.029  72.712  1.00  0.00    -0.576 C  
BRANCH  17  18
HETATM   18  C   UNL     1     -12.835  15.403  72.862  1.00  0.00    -0.550 C  
HETATM   19  C   UNL     1     -12.349  15.629  74.285  1.00  0.00    -0.813 C  
ENDBRANCH  17  18
ENDBRANCH  16  17
ENDBRANCH  15  16
ENDBRANCH  14  15
ENDBRANCH  13  14
ENDBRANCH  12  13
ENDBRANCH   9  12
ENDBRANCH   8   9
ENDBRANCH   7   8
ENDBRANCH   6   7
ENDBRANCH   5   6
ENDBRANCH   4   5
ENDBRANCH   3   4
ENDBRANCH   2   3
TORSDOF 14
ENDMDL
MODEL      146
REMARK 921   NORMALIZED FREE ENERGY PREDICTED BY IDOCK:   -3.04 KCAL/MOL
REMARK 922        TOTAL FREE ENERGY PREDICTED BY IDOCK:   -7.26 KCAL/MOL
REMARK 923 INTER-LIGAND FREE ENERGY PREDICTED BY IDOCK:   -5.81 KCAL/MOL
REMARK 924 INTRA-LIGAND FREE ENERGY PREDICTED BY IDOCK:   -1.44 KCAL/MOL
REMARK 927      BINDING AFFINITY PREDICTED BY RF-SCORE:    0.00 PKD
ROOT
HETATM    1  C   UNL     1      -8.675  11.080  62.358  1.00  0.00    -0.356 C  
HETATM    2  C   UNL     1      -9.963  10.832  63.127  1.00  0.00    -0.341 C  
ENDROOT
BRANCH   2   3
HETATM    3  C   UNL     1     -10.642  12.144  63.501  1.00  0.00    -0.501 C  
BRANCH   3   4
HETATM    4  C   UNL     1     -12.158  12.050  63.336  1.00  0.00    -0.597 C  
BRANCH   4   5
HETATM    5  C   UNL     1     -12.855  12.612  64.567  1.00  0.00    -0.356 C  
BRANCH   5   6
HETATM    6  C   UNL     1     -12.392  14.031  64.896  1.00  0.00    -0.447 C  
BRANCH   6   7
HETATM    7  C   UNL     1     -12.240  14.159  66.409  1.00  0.00    -0.473 C  
BRANCH   7   8
HETATM    8  C   UNL     1     -11.840  12.842  67.068  1.00  0.00    -0.374 C  
BRANCH   8   9
HETATM    9  N   UNL     1     -10.585  12.978  67.977  1.00  0.00    -0.229 N  
HETATM   10  C   UNL     1      -9.382  13.436  67.151  1.00  0.00    -0.240 C  
HETATM   11  C   UNL     1     -10.854  13.982  69.099  1.00  0.00    -0.206 C  
BRANCH   9  12
HETATM   12  C   UNL     1     -10.323  11.566  68.572  1.00  0.00    -0.210 C  
BRANCH  12  13
HETATM   13  C   UNL     1     -11.197  10.487  67.941  1.00  0.00    -0.358 C  
BRANCH  13  14
HETATM   14  C   UNL     1     -10.398   9.248  67.544  1.00  0.00    -0.323 C  
BRANCH  14  15
HETATM   15  C   UNL     1      -9.299   9.663  66.567  1.00  0.00    -0.212 C  
BRANCH  15  16
HETATM   16  C   UNL     1      -8.864   8.515  65.667  1.00  0.00    -0.214 C  
BRANCH  16  17
HETATM   17  C   UNL     1      -8.904   7.197  66.438  1.00  0.00    -0.161 C  
BRANCH  17  18
HETATM   18  C   UNL     1      -7.596   6.949  67.180  1.00  0.00    -0.107 C  
HETATM   19  C   UNL     1      -7.795   5.977  68.331  1.00  0.00    -0.106 C  
ENDBRANCH  17  18
ENDBRANCH  16  17
ENDBRANCH  15  16
ENDBRANCH  14  15
ENDBRANCH  13  14
ENDBRANCH  12  13
ENDBRANCH   9  12
ENDBRANCH   8   9
ENDBRANCH   7   8
ENDBRANCH   6   7
ENDBRANCH   5   6
ENDBRANCH   4   5
ENDBRANCH   3   4
ENDBRANCH   2   3
TORSDOF 14
ENDMDL
MODEL      147
REMARK 921   NORMALIZED FREE ENERGY PREDICTED BY IDOCK:   -3.03 KCAL/MOL
REMARK 922        TOTAL FREE ENERGY PREDICTED BY IDOCK:   -7.25 KCAL/MOL
REMARK 923 INTER-LIGAND FREE ENERGY PREDICTED BY IDOCK:   -6.04 KCAL/MOL
REMARK 924 INTRA-LIGAND FREE ENERGY PREDICTED BY IDOCK:   -1.21 KCAL/MOL
REMARK 927      BINDING AFFINITY PREDICTED BY RF-SCORE:    0.00 PKD
ROOT
HETATM    1  C   UNL     1      -7.425  18.934  68.638  1.00  0.00    -0.355 C  
HETATM    2  C   UNL     1      -8.460  19.715  67.844  1.00  0.00    -0.356 C  
ENDROOT
BRANCH   2   3
HETATM    3  C   UNL     1      -9.864  19.470  68.383  1.00  0.00    -0.521 C  
BRANCH   3   4
HETATM    4  C   UNL     1     -10.774  18.876  67.308  1.00  0.00    -0.523 C  
BRANCH   4   5
HETATM    5  C   UNL     1     -10.565  17.372  67.217  1.00  0.00    -0.284 C  
BRANCH   5   6
HETATM    6  C   UNL     1     -10.041  16.942  65.847  1.00  0.00    -0.302 C  
BRANCH   6   7
HETATM    7  C   UNL     1     -10.860  15.752  65.358  1.00  0.00    -0.376 C  
BRANCH   7   8
HETATM    8  C   UNL     1     -11.513  14.985  66.504  1.00  0.00    -0.239 C  
BRANCH   8   9
HETATM    9  N   UNL     1     -11.008  13.518  66.615  1.00  0.00    -0.286 N  
HETATM   10  C   UNL     1      -9.493  13.495  66.817  1.00  0.00    -0.269 C  
HETATM   11  C   UNL     1     -11.697  12.811  67.783  1.00  0.00    -0.359 C  
BRANCH   9  12
HETATM   12  C   UNL     1     -11.383  12.826  65.274  1.00  0.00    -0.303 C  
BRANCH  12  13
HETATM   13  C   UNL     1     -10.161  12.430  64.451  1.00  0.00    -0.342 C  
BRANCH  13  14
HETATM   14  C   UNL     1     -10.463  11.308  63.461  1.00  0.00    -0.457 C  
BRANCH  14  15
HETATM   15  C   UNL     1      -9.513  10.142  63.735  1.00  0.00    -0.330 C  
BRANCH  15  16
HETATM   16  C   UNL     1      -8.470  10.485  64.789  1.00  0.00    -0.150 C  
BRANCH  16  17
HETATM   17  C   UNL     1      -8.469   9.431  65.894  1.00  0.00    -0.135 C  
BRANCH  17  18
HETATM   18  C   UNL     1      -9.299   9.882  67.091  1.00  0.00    -0.170 C  
HETATM   19  C   UNL     1     -10.628   9.145  67.146  1.00  0.00    -0.286 C  
ENDBRANCH  17  18
ENDBRANCH  16  17
ENDBRANCH  15  16
ENDBRANCH  14  15
ENDBRANCH  13  14
ENDBRANCH  12  13
ENDBRANCH   9  12
ENDBRANCH   8   9
ENDBRANCH   7   8
ENDBRANCH   6   7
ENDBRANCH   5   6
ENDBRANCH   4   5
ENDBRANCH   3   4
ENDBRANCH   2   3
TORSDOF 14
ENDMDL
MODEL      148
REMARK 921   NORMALIZED FREE ENERGY PREDICTED BY IDOCK:   -3.03 KCAL/MOL
REMARK 922        TOTAL FREE ENERGY PREDICTED BY IDOCK:   -7.24 KCAL/MOL
REMARK 923 INTER-LIGAND FREE ENERGY PREDICTED BY IDOCK:   -5.86 KCAL/MOL
REMARK 924 INTRA-LIGAND FREE ENERGY PREDICTED BY IDOCK:   -1.38 KCAL/MOL
REMARK 927      BINDING AFFINITY PREDICTED BY RF-SCORE:    0.00 PKD
ROOT
HETATM    1  C   UNL     1      -9.981   7.964  72.879  1.00  0.00    -0.360 C  
HETATM    2  C   UNL     1     -10.735   6.708  73.287  1.00  0.00    -0.315 C  
ENDROOT
BRANCH   2   3
HETATM    3  C   UNL     1     -10.967   5.794  72.090  1.00  0.00    -0.311 C  
BRANCH   3   4
HETATM    4  C   UNL     1     -11.778   6.498  71.003  1.00  0.00    -0.402 C  
BRANCH   4   5
HETATM    5  C   UNL     1     -11.259   6.110  69.626  1.00  0.00    -0.488 C  
BRANCH   5   6
HETATM    6  C   UNL     1      -9.756   5.830  69.633  1.00  0.00    -0.208 C  
BRANCH   6   7
HETATM    7  C   UNL     1      -9.091   6.695  68.566  1.00  0.00    -0.128 C  
BRANCH   7   8
HETATM    8  C   UNL     1      -9.153   8.182  68.899  1.00  0.00    -0.147 C  
BRANCH   8   9
HETATM    9  N   UNL     1      -9.019   9.090  67.643  1.00  0.00    -0.124 N  
HETATM   10  C   UNL     1      -7.548   9.246  67.260  1.00  0.00    -0.091 C  
HETATM   11  C   UNL     1      -9.798   8.486  66.473  1.00  0.00    -0.272 C  
BRANCH   9  12
HETATM   12  C   UNL     1      -9.624  10.468  68.034  1.00  0.00    -0.148 C  
BRANCH  12  13
HETATM   13  C   UNL     1     -10.660  10.965  67.032  1.00  0.00    -0.307 C  
BRANCH  13  14
HETATM   14  C   UNL     1     -11.648  11.949  67.654  1.00  0.00    -0.382 C  
BRANCH  14  15
HETATM   15  C   UNL     1     -11.101  12.407  69.006  1.00  0.00    -0.288 C  
BRANCH  15  16
HETATM   16  C   UNL     1     -12.128  12.263  70.121  1.00  0.00    -0.364 C  
BRANCH  16  17
HETATM   17  C   UNL     1     -12.048  10.866  70.734  1.00  0.00    -0.469 C  
BRANCH  17  18
HETATM   18  C   UNL     1     -13.081  10.687  71.841  1.00  0.00    -0.563 C  
HETATM   19  C   UNL     1     -13.595   9.257  71.885  1.00  0.00    -0.494 C  
ENDBRANCH  17  18
ENDBRANCH  16  17
ENDBRANCH  15  16
ENDBRANCH  14  15
ENDBRANCH  13  14
ENDBRANCH  12  13
ENDBRANCH   9  12
ENDBRANCH   8   9
ENDBRANCH   7   8
ENDBRANCH   6   7
ENDBRANCH   5   6
ENDBRANCH   4   5
ENDBRANCH   3   4
ENDBRANCH   2   3
TORSDOF 14
ENDMDL
MODEL      149
REMARK 921   NORMALIZED FREE ENERGY PREDICTED BY IDOCK:   -3.02 KCAL/MOL
REMARK 922        TOTAL FREE ENERGY PREDICTED BY IDOCK:   -7.23 KCAL/MOL
REMARK 923 INTER-LIGAND FREE ENERGY PREDICTED BY IDOCK:   -6.10 KCAL/MOL
REMARK 924 INTRA-LIGAND FREE ENERGY PREDICTED BY IDOCK:   -1.14 KCAL/MOL
REMARK 927      BINDING AFFINITY PREDICTED BY RF-SCORE:    0.00 PKD
ROOT
HETATM    1  C   UNL     1     -11.757   6.187  72.080  1.00  0.00    -0.361 C  
HETATM    2  C   UNL     1     -12.654   7.220  71.415  1.00  0.00    -0.423 C  
ENDROOT
BRANCH   2   3
HETATM    3  C   UNL     1     -12.320   8.627  71.894  1.00  0.00    -0.414 C  
BRANCH   3   4
HETATM    4  C   UNL     1     -10.812   8.873  71.883  1.00  0.00    -0.433 C  
BRANCH   4   5
HETATM    5  C   UNL     1     -10.432   9.749  70.698  1.00  0.00    -0.358 C  
BRANCH   5   6
HETATM    6  C   UNL     1      -8.989   9.520  70.249  1.00  0.00    -0.288 C  
BRANCH   6   7
HETATM    7  C   UNL     1      -9.001   8.862  68.872  1.00  0.00    -0.137 C  
BRANCH   7   8
HETATM    8  C   UNL     1      -9.055   9.882  67.739  1.00  0.00    -0.131 C  
BRANCH   8   9
HETATM    9  N   UNL     1     -10.276   9.678  66.798  1.00  0.00    -0.239 N  
HETATM   10  C   UNL     1      -9.911  10.071  65.367  1.00  0.00    -0.314 C  
HETATM   11  C   UNL     1     -10.730   8.218  66.835  1.00  0.00    -0.109 C  
BRANCH   9  12
HETATM   12  C   UNL     1     -11.403  10.602  67.339  1.00  0.00    -0.105 C  
BRANCH  12  13
HETATM   13  C   UNL     1     -11.381  11.992  66.709  1.00  0.00    -0.398 C  
BRANCH  13  14
HETATM   14  C   UNL     1     -11.437  13.106  67.752  1.00  0.00    -0.352 C  
BRANCH  14  15
HETATM   15  C   UNL     1     -11.312  12.485  69.142  1.00  0.00    -0.331 C  
BRANCH  15  16
HETATM   16  C   UNL     1     -12.306  13.080  70.130  1.00  0.00    -0.270 C  
BRANCH  16  17
HETATM   17  C   UNL     1     -11.858  14.478  70.552  1.00  0.00    -0.372 C  
BRANCH  17  18
HETATM   18  C   UNL     1     -12.413  14.848  71.923  1.00  0.00    -0.403 C  
HETATM   19  C   UNL     1     -13.307  13.746  72.468  1.00  0.00    -0.656 C  
ENDBRANCH  17  18
ENDBRANCH  16  17
ENDBRANCH  15  16
ENDBRANCH  14  15
ENDBRANCH  13  14
ENDBRANCH  12  13
ENDBRANCH   9  12
ENDBRANCH   8   9
ENDBRANCH   7   8
ENDBRANCH   6   7
ENDBRANCH   5   6
ENDBRANCH   4   5
ENDBRANCH   3   4
ENDBRANCH   2   3
TORSDOF 14
ENDMDL
MODEL      150
REMARK 921   NORMALIZED FREE ENERGY PREDICTED BY IDOCK:   -3.02 KCAL/MOL
REMARK 922        TOTAL FREE ENERGY PREDICTED BY IDOCK:   -7.22 KCAL/MOL
REMARK 923 INTER-LIGAND FREE ENERGY PREDICTED BY IDOCK:   -5.91 KCAL/MOL
REMARK 924 INTRA-LIGAND FREE ENERGY PREDICTED BY IDOCK:   -1.31 KCAL/MOL
REMARK 927      BINDING AFFINITY PREDICTED BY RF-SCORE:    0.00 PKD
ROOT
HETATM    1  C   UNL     1     -12.186  12.165  63.564  1.00  0.00    -0.670 C  
HETATM    2  C   UNL     1     -12.143  13.457  64.364  1.00  0.00    -0.468 C  
ENDROOT
BRANCH   2   3
HETATM    3  C   UNL     1     -10.706  13.896  64.622  1.00  0.00    -0.422 C  
BRANCH   3   4
HETATM    4  C   UNL     1     -10.186  13.339  65.946  1.00  0.00    -0.295 C  
BRANCH   4   5
HETATM    5  C   UNL     1     -11.291  13.356  66.992  1.00  0.00    -0.346 C  
BRANCH   5   6
HETATM    6  C   UNL     1     -11.394  12.030  67.746  1.00  0.00    -0.370 C  
BRANCH   6   7
HETATM    7  C   UNL     1     -10.976  10.899  66.811  1.00  0.00    -0.248 C  
BRANCH   7   8
HETATM    8  C   UNL     1     -10.900   9.552  67.523  1.00  0.00    -0.170 C  
BRANCH   8   9
HETATM    9  N   UNL     1      -9.524   8.850  67.343  1.00  0.00    -0.141 N  
HETATM   10  C   UNL     1      -9.678   7.602  66.474  1.00  0.00    -0.181 C  
HETATM   11  C   UNL     1      -8.524   9.811  66.699  1.00  0.00    -0.124 C  
BRANCH   9  12
HETATM   12  C   UNL     1      -9.046   8.457  68.769  1.00  0.00    -0.143 C  
BRANCH  12  13
HETATM   13  C   UNL     1      -9.162   9.603  69.770  1.00  0.00    -0.237 C  
BRANCH  13  14
HETATM   14  C   UNL     1      -9.608   9.129  71.151  1.00  0.00    -0.347 C  
BRANCH  14  15
HETATM   15  C   UNL     1     -10.684   8.057  70.979  1.00  0.00    -0.245 C  
BRANCH  15  16
HETATM   16  C   UNL     1     -11.440   7.787  72.273  1.00  0.00    -0.384 C  
BRANCH  16  17
HETATM   17  C   UNL     1     -12.848   8.374  72.193  1.00  0.00    -0.385 C  
BRANCH  17  18
HETATM   18  C   UNL     1     -13.003   9.281  70.978  1.00  0.00    -0.176 C  
HETATM   19  C   UNL     1     -12.857  10.744  71.364  1.00  0.00    -0.557 C  
ENDBRANCH  17  18
ENDBRANCH  16  17
ENDBRANCH  15  16
ENDBRANCH  14  15
ENDBRANCH  13  14
ENDBRANCH  12  13
ENDBRANCH   9  12
ENDBRANCH   8   9
ENDBRANCH   7   8
ENDBRANCH   6   7
ENDBRANCH   5   6
ENDBRANCH   4   5
ENDBRANCH   3   4
ENDBRANCH   2   3
TORSDOF 14
ENDMDL
MODEL      151
REMARK 921   NORMALIZED FREE ENERGY PREDICTED BY IDOCK:   -3.01 KCAL/MOL
REMARK 922        TOTAL FREE ENERGY PREDICTED BY IDOCK:   -7.22 KCAL/MOL
REMARK 923 INTER-LIGAND FREE ENERGY PREDICTED BY IDOCK:   -6.15 KCAL/MOL
REMARK 924 INTRA-LIGAND FREE ENERGY PREDICTED BY IDOCK:   -1.06 KCAL/MOL
REMARK 927      BINDING AFFINITY PREDICTED BY RF-SCORE:    0.00 PKD
ROOT
HETATM    1  C   UNL     1     -12.754  15.649  70.822  1.00  0.00    -0.483 C  
HETATM    2  C   UNL     1     -13.322  15.465  72.221  1.00  0.00    -0.548 C  
ENDROOT
BRANCH   2   3
HETATM    3  C   UNL     1     -13.565  13.992  72.526  1.00  0.00    -0.670 C  
BRANCH   3   4
HETATM    4  C   UNL     1     -13.301  13.121  71.298  1.00  0.00    -0.117 C  
BRANCH   4   5
HETATM    5  C   UNL     1     -12.989  11.694  71.725  1.00  0.00    -0.483 C  
BRANCH   5   6
HETATM    6  C   UNL     1     -12.014  11.005  70.771  1.00  0.00    -0.436 C  
BRANCH   6   7
HETATM    7  C   UNL     1     -11.811  11.895  69.548  1.00  0.00    -0.395 C  
BRANCH   7   8
HETATM    8  C   UNL     1     -10.440  11.702  68.908  1.00  0.00    -0.175 C  
BRANCH   8   9
HETATM    9  N   UNL     1     -10.490  11.717  67.354  1.00  0.00    -0.206 N  
HETATM   10  C   UNL     1     -10.421  10.291  66.810  1.00  0.00    -0.214 C  
HETATM   11  C   UNL     1     -11.777  12.392  66.876  1.00  0.00    -0.362 C  
BRANCH   9  12
HETATM   12  C   UNL     1      -9.252  12.533  66.886  1.00  0.00    -0.211 C  
BRANCH  12  13
HETATM   13  C   UNL     1      -9.157  13.900  67.554  1.00  0.00    -0.201 C  
BRANCH  13  14
HETATM   14  C   UNL     1      -7.732  14.242  67.983  1.00  0.00    -0.141 C  
BRANCH  14  15
HETATM   15  C   UNL     1      -7.581  15.762  68.020  1.00  0.00    -0.134 C  
BRANCH  15  16
HETATM   16  C   UNL     1      -8.695  16.433  68.812  1.00  0.00    -0.246 C  
BRANCH  16  17
HETATM   17  C   UNL     1      -8.818  17.901  68.409  1.00  0.00    -0.293 C  
BRANCH  17  18
HETATM   18  C   UNL     1      -9.503  18.050  67.056  1.00  0.00    -0.273 C  
HETATM   19  C   UNL     1     -10.598  19.103  67.108  1.00  0.00    -0.564 C  
ENDBRANCH  17  18
ENDBRANCH  16  17
ENDBRANCH  15  16
ENDBRANCH  14  15
ENDBRANCH  13  14
ENDBRANCH  12  13
ENDBRANCH   9  12
ENDBRANCH   8   9
ENDBRANCH   7   8
ENDBRANCH   6   7
ENDBRANCH   5   6
ENDBRANCH   4   5
ENDBRANCH   3   4
ENDBRANCH   2   3
TORSDOF 14
ENDMDL
MODEL      152
REMARK 921   NORMALIZED FREE ENERGY PREDICTED BY IDOCK:   -3.01 KCAL/MOL
REMARK 922        TOTAL FREE ENERGY PREDICTED BY IDOCK:   -7.21 KCAL/MOL
REMARK 923 INTER-LIGAND FREE ENERGY PREDICTED BY IDOCK:   -6.49 KCAL/MOL
REMARK 924 INTRA-LIGAND FREE ENERGY PREDICTED BY IDOCK:   -0.73 KCAL/MOL
REMARK 927      BINDING AFFINITY PREDICTED BY RF-SCORE:    0.00 PKD
ROOT
HETATM    1  C   UNL     1      -9.010   4.707  63.850  1.00  0.00    -0.113 C  
HETATM    2  C   UNL     1      -9.645   4.424  65.202  1.00  0.00    -0.183 C  
ENDROOT
BRANCH   2   3
HETATM    3  C   UNL     1      -9.413   5.577  66.170  1.00  0.00    -0.166 C  
BRANCH   3   4
HETATM    4  C   UNL     1     -10.630   5.801  67.067  1.00  0.00    -0.373 C  
BRANCH   4   5
HETATM    5  C   UNL     1     -10.734   7.269  67.454  1.00  0.00    -0.358 C  
BRANCH   5   6
HETATM    6  C   UNL     1      -9.556   8.090  66.930  1.00  0.00    -0.265 C  
BRANCH   6   7
HETATM    7  C   UNL     1     -10.060   9.473  66.531  1.00  0.00    -0.326 C  
BRANCH   7   8
HETATM    8  C   UNL     1     -10.900  10.125  67.625  1.00  0.00    -0.290 C  
BRANCH   8   9
HETATM    9  N   UNL     1     -10.761  11.674  67.651  1.00  0.00    -0.198 N  
HETATM   10  C   UNL     1      -9.288  12.074  67.571  1.00  0.00    -0.179 C  
HETATM   11  C   UNL     1     -11.530  12.291  66.481  1.00  0.00    -0.381 C  
BRANCH   9  12
HETATM   12  C   UNL     1     -11.374  12.144  69.001  1.00  0.00    -0.276 C  
BRANCH  12  13
HETATM   13  C   UNL     1     -11.972  13.545  68.923  1.00  0.00    -0.378 C  
BRANCH  13  14
HETATM   14  C   UNL     1     -11.088  14.595  69.592  1.00  0.00    -0.284 C  
BRANCH  14  15
HETATM   15  C   UNL     1     -11.663  14.915  70.972  1.00  0.00    -0.376 C  
BRANCH  15  16
HETATM   16  C   UNL     1     -13.183  14.841  70.994  1.00  0.00    -0.435 C  
BRANCH  16  17
HETATM   17  C   UNL     1     -13.710  15.218  72.377  1.00  0.00    -0.622 C  
BRANCH  17  18
HETATM   18  C   UNL     1     -12.666  14.958  73.457  1.00  0.00    -0.629 C  
HETATM   19  C   UNL     1     -12.510  16.163  74.371  1.00  0.00    -0.655 C  
ENDBRANCH  17  18
ENDBRANCH  16  17
ENDBRANCH  15  16
ENDBRANCH  14  15
ENDBRANCH  13  14
ENDBRANCH  12  13
ENDBRANCH   9  12
ENDBRANCH   8   9
ENDBRANCH   7   8
ENDBRANCH   6   7
ENDBRANCH   5   6
ENDBRANCH   4   5
ENDBRANCH   3   4
ENDBRANCH   2   3
TORSDOF 14
ENDMDL
MODEL      153
REMARK 921   NORMALIZED FREE ENERGY PREDICTED BY IDOCK:   -3.01 KCAL/MOL
REMARK 922        TOTAL FREE ENERGY PREDICTED BY IDOCK:   -7.20 KCAL/MOL
REMARK 923 INTER-LIGAND FREE ENERGY PREDICTED BY IDOCK:   -5.05 KCAL/MOL
REMARK 924 INTRA-LIGAND FREE ENERGY PREDICTED BY IDOCK:   -2.15 KCAL/MOL
REMARK 927      BINDING AFFINITY PREDICTED BY RF-SCORE:    0.00 PKD
ROOT
HETATM    1  C   UNL     1     -11.606  13.626  69.493  1.00  0.00    -0.361 C  
HETATM    2  C   UNL     1     -11.781  15.058  69.015  1.00  0.00    -0.351 C  
ENDROOT
BRANCH   2   3
HETATM    3  C   UNL     1     -10.448  15.795  68.985  1.00  0.00    -0.225 C  
BRANCH   3   4
HETATM    4  C   UNL     1     -10.370  16.753  67.797  1.00  0.00    -0.318 C  
BRANCH   4   5
HETATM    5  C   UNL     1      -9.460  16.180  66.720  1.00  0.00    -0.256 C  
BRANCH   5   6
HETATM    6  C   UNL     1     -10.242  15.694  65.500  1.00  0.00    -0.414 C  
BRANCH   6   7
HETATM    7  C   UNL     1     -10.261  14.169  65.504  1.00  0.00    -0.371 C  
BRANCH   7   8
HETATM    8  C   UNL     1     -10.878  13.590  64.234  1.00  0.00    -0.322 C  
BRANCH   8   9
HETATM    9  N   UNL     1     -11.575  12.220  64.471  1.00  0.00    -0.340 N  
HETATM   10  C   UNL     1     -12.085  12.129  65.909  1.00  0.00    -0.049 C  
HETATM   11  C   UNL     1     -12.740  12.048  63.495  1.00  0.00    -0.443 C  
BRANCH   9  12
HETATM   12  C   UNL     1     -10.495  11.132  64.213  1.00  0.00    -0.362 C  
BRANCH  12  13
HETATM   13  C   UNL     1     -10.021  10.454  65.495  1.00  0.00    -0.348 C  
BRANCH  13  14
HETATM   14  C   UNL     1      -8.499  10.351  65.572  1.00  0.00    -0.171 C  
BRANCH  14  15
HETATM   15  C   UNL     1      -8.061  10.610  67.012  1.00  0.00    -0.120 C  
BRANCH  15  16
HETATM   16  C   UNL     1      -8.916  11.669  67.693  1.00  0.00    -0.166 C  
BRANCH  16  17
HETATM   17  C   UNL     1      -8.030  12.659  68.447  1.00  0.00    -0.134 C  
BRANCH  17  18
HETATM   18  C   UNL     1      -7.104  13.409  67.496  1.00  0.00    -0.154 C  
HETATM   19  C   UNL     1      -6.457  14.599  68.186  1.00  0.00    -0.142 C  
ENDBRANCH  17  18
ENDBRANCH  16  17
ENDBRANCH  15  16
ENDBRANCH  14  15
ENDBRANCH  13  14
ENDBRANCH  12  13
ENDBRANCH   9  12
ENDBRANCH   8   9
ENDBRANCH   7   8
ENDBRANCH   6   7
ENDBRANCH   5   6
ENDBRANCH   4   5
ENDBRANCH   3   4
ENDBRANCH   2   3
TORSDOF 14
ENDMDL
MODEL      154
REMARK 921   NORMALIZED FREE ENERGY PREDICTED BY IDOCK:   -3.00 KCAL/MOL
REMARK 922        TOTAL FREE ENERGY PREDICTED BY IDOCK:   -7.19 KCAL/MOL
REMARK 923 INTER-LIGAND FREE ENERGY PREDICTED BY IDOCK:   -6.29 KCAL/MOL
REMARK 924 INTRA-LIGAND FREE ENERGY PREDICTED BY IDOCK:   -0.90 KCAL/MOL
REMARK 927      BINDING AFFINITY PREDICTED BY RF-SCORE:    0.00 PKD
ROOT
HETATM    1  C   UNL     1      -6.613  17.239  66.325  1.00  0.00    -0.248 C  
HETATM    2  C   UNL     1      -7.298  18.596  66.298  1.00  0.00    -0.287 C  
ENDROOT
BRANCH   2   3
HETATM    3  C   UNL     1      -8.609  18.565  67.074  1.00  0.00    -0.273 C  
BRANCH   3   4
HETATM    4  C   UNL     1      -8.401  18.034  68.492  1.00  0.00    -0.313 C  
BRANCH   4   5
HETATM    5  C   UNL     1      -9.389  16.914  68.782  1.00  0.00    -0.260 C  
BRANCH   5   6
HETATM    6  C   UNL     1     -10.718  17.112  68.055  1.00  0.00    -0.372 C  
BRANCH   6   7
HETATM    7  C   UNL     1     -11.234  15.751  67.595  1.00  0.00    -0.246 C  
BRANCH   7   8
HETATM    8  C   UNL     1     -10.542  14.594  68.310  1.00  0.00    -0.235 C  
BRANCH   8   9
HETATM    9  N   UNL     1     -10.677  13.246  67.547  1.00  0.00    -0.248 N  
HETATM   10  C   UNL     1     -11.899  13.278  66.629  1.00  0.00    -0.395 C  
HETATM   11  C   UNL     1      -9.417  12.980  66.722  1.00  0.00    -0.250 C  
BRANCH   9  12
HETATM   12  C   UNL     1     -10.848  12.146  68.632  1.00  0.00    -0.235 C  
BRANCH  12  13
HETATM   13  C   UNL     1     -11.818  12.551  69.737  1.00  0.00    -0.380 C  
BRANCH  13  14
HETATM   14  C   UNL     1     -12.277  11.361  70.577  1.00  0.00    -0.478 C  
BRANCH  14  15
HETATM   15  C   UNL     1     -11.358  10.174  70.290  1.00  0.00    -0.387 C  
BRANCH  15  16
HETATM   16  C   UNL     1     -11.135   9.308  71.522  1.00  0.00    -0.443 C  
BRANCH  16  17
HETATM   17  C   UNL     1     -12.470   8.787  72.050  1.00  0.00    -0.452 C  
BRANCH  17  18
HETATM   18  C   UNL     1     -12.849   7.466  71.391  1.00  0.00    -0.408 C  
HETATM   19  C   UNL     1     -11.704   6.469  71.462  1.00  0.00    -0.376 C  
ENDBRANCH  17  18
ENDBRANCH  16  17
ENDBRANCH  15  16
ENDBRANCH  14  15
ENDBRANCH  13  14
ENDBRANCH  12  13
ENDBRANCH   9  12
ENDBRANCH   8   9
ENDBRANCH   7   8
ENDBRANCH   6   7
ENDBRANCH   5   6
ENDBRANCH   4   5
ENDBRANCH   3   4
ENDBRANCH   2   3
TORSDOF 14
ENDMDL
MODEL      155
REMARK 921   NORMALIZED FREE ENERGY PREDICTED BY IDOCK:   -3.00 KCAL/MOL
REMARK 922        TOTAL FREE ENERGY PREDICTED BY IDOCK:   -7.18 KCAL/MOL
REMARK 923 INTER-LIGAND FREE ENERGY PREDICTED BY IDOCK:   -5.18 KCAL/MOL
REMARK 924 INTRA-LIGAND FREE ENERGY PREDICTED BY IDOCK:   -2.00 KCAL/MOL
REMARK 927      BINDING AFFINITY PREDICTED BY RF-SCORE:    0.00 PKD
ROOT
HETATM    1  C   UNL     1      -7.565   5.097  71.641  1.00  0.00    -0.101 C  
HETATM    2  C   UNL     1      -8.715   4.213  72.096  1.00  0.00    -0.120 C  
ENDROOT
BRANCH   2   3
HETATM    3  C   UNL     1      -9.489   4.862  73.238  1.00  0.00    -0.134 C  
BRANCH   3   4
HETATM    4  C   UNL     1     -10.697   5.640  72.716  1.00  0.00    -0.283 C  
BRANCH   4   5
HETATM    5  C   UNL     1     -10.717   7.040  73.312  1.00  0.00    -0.373 C  
BRANCH   5   6
HETATM    6  C   UNL     1     -10.046   8.066  72.399  1.00  0.00    -0.332 C  
BRANCH   6   7
HETATM    7  C   UNL     1     -10.199   7.610  70.951  1.00  0.00    -0.202 C  
BRANCH   7   8
HETATM    8  C   UNL     1      -9.221   8.311  70.013  1.00  0.00    -0.151 C  
BRANCH   8   9
HETATM    9  N   UNL     1      -9.536   8.057  68.511  1.00  0.00    -0.153 N  
HETATM   10  C   UNL     1      -8.310   8.372  67.655  1.00  0.00    -0.130 C  
HETATM   11  C   UNL     1      -9.956   6.602  68.301  1.00  0.00    -0.144 C  
BRANCH   9  12
HETATM   12  C   UNL     1     -10.708   9.011  68.145  1.00  0.00    -0.109 C  
BRANCH  12  13
HETATM   13  C   UNL     1     -10.444  10.457  68.554  1.00  0.00    -0.210 C  
BRANCH  13  14
HETATM   14  C   UNL     1     -11.708  11.168  69.032  1.00  0.00    -0.408 C  
BRANCH  14  15
HETATM   15  C   UNL     1     -11.878  10.914  70.530  1.00  0.00    -0.457 C  
BRANCH  15  16
HETATM   16  C   UNL     1     -13.281  10.438  70.878  1.00  0.00    -0.321 C  
BRANCH  16  17
HETATM   17  C   UNL     1     -13.246   9.562  72.128  1.00  0.00    -0.539 C  
BRANCH  17  18
HETATM   18  C   UNL     1     -14.387   8.551  72.129  1.00  0.00    -0.529 C  
HETATM   19  C   UNL     1     -13.952   7.232  71.511  1.00  0.00    -0.486 C  
ENDBRANCH  17  18
ENDBRANCH  16  17
ENDBRANCH  15  16
ENDBRANCH  14  15
ENDBRANCH  13  14
ENDBRANCH  12  13
ENDBRANCH   9  12
ENDBRANCH   8   9
ENDBRANCH   7   8
ENDBRANCH   6   7
ENDBRANCH   5   6
ENDBRANCH   4   5
ENDBRANCH   3   4
ENDBRANCH   2   3
TORSDOF 14
ENDMDL
MODEL      156
REMARK 921   NORMALIZED FREE ENERGY PREDICTED BY IDOCK:   -2.99 KCAL/MOL
REMARK 922        TOTAL FREE ENERGY PREDICTED BY IDOCK:   -7.17 KCAL/MOL
REMARK 923 INTER-LIGAND FREE ENERGY PREDICTED BY IDOCK:   -6.21 KCAL/MOL
REMARK 924 INTRA-LIGAND FREE ENERGY PREDICTED BY IDOCK:   -0.96 KCAL/MOL
REMARK 927      BINDING AFFINITY PREDICTED BY RF-SCORE:    0.00 PKD
ROOT
HETATM    1  C   UNL     1     -10.659   7.656  72.802  1.00  0.00    -0.381 C  
HETATM    2  C   UNL     1     -12.013   8.047  72.232  1.00  0.00    -0.412 C  
ENDROOT
BRANCH   2   3
HETATM    3  C   UNL     1     -12.536   6.981  71.276  1.00  0.00    -0.430 C  
BRANCH   3   4
HETATM    4  C   UNL     1     -11.389   6.277  70.552  1.00  0.00    -0.428 C  
BRANCH   4   5
HETATM    5  C   UNL     1     -11.300   6.764  69.113  1.00  0.00    -0.188 C  
BRANCH   5   6
HETATM    6  C   UNL     1     -10.594   5.758  68.204  1.00  0.00    -0.286 C  
BRANCH   6   7
HETATM    7  C   UNL     1      -9.947   6.511  67.046  1.00  0.00    -0.216 C  
BRANCH   7   8
HETATM    8  C   UNL     1     -10.412   7.962  66.963  1.00  0.00    -0.349 C  
BRANCH   8   9
HETATM    9  N   UNL     1      -9.245   8.957  66.704  1.00  0.00    -0.159 N  
HETATM   10  C   UNL     1      -7.932   8.378  67.229  1.00  0.00    -0.105 C  
HETATM   11  C   UNL     1      -9.122   9.245  65.207  1.00  0.00    -0.215 C  
BRANCH   9  12
HETATM   12  C   UNL     1      -9.605  10.260  67.472  1.00  0.00    -0.156 C  
BRANCH  12  13
HETATM   13  C   UNL     1     -10.750  11.032  66.824  1.00  0.00    -0.319 C  
BRANCH  13  14
HETATM   14  C   UNL     1     -11.549  11.849  67.836  1.00  0.00    -0.393 C  
BRANCH  14  15
HETATM   15  C   UNL     1     -11.165  13.321  67.692  1.00  0.00    -0.307 C  
BRANCH  15  16
HETATM   16  C   UNL     1     -12.113  14.077  66.771  1.00  0.00    -0.480 C  
BRANCH  16  17
HETATM   17  C   UNL     1     -11.407  14.429  65.462  1.00  0.00    -0.334 C  
BRANCH  17  18
HETATM   18  C   UNL     1     -12.278  14.096  64.256  1.00  0.00    -0.449 C  
HETATM   19  C   UNL     1     -11.838  12.794  63.606  1.00  0.00    -0.603 C  
ENDBRANCH  17  18
ENDBRANCH  16  17
ENDBRANCH  15  16
ENDBRANCH  14  15
ENDBRANCH  13  14
ENDBRANCH  12  13
ENDBRANCH   9  12
ENDBRANCH   8   9
ENDBRANCH   7   8
ENDBRANCH   6   7
ENDBRANCH   5   6
ENDBRANCH   4   5
ENDBRANCH   3   4
ENDBRANCH   2   3
TORSDOF 14
ENDMDL
MODEL      157
REMARK 921   NORMALIZED FREE ENERGY PREDICTED BY IDOCK:   -2.97 KCAL/MOL
REMARK 922        TOTAL FREE ENERGY PREDICTED BY IDOCK:   -7.14 KCAL/MOL
REMARK 923 INTER-LIGAND FREE ENERGY PREDICTED BY IDOCK:   -5.67 KCAL/MOL
REMARK 924 INTRA-LIGAND FREE ENERGY PREDICTED BY IDOCK:   -1.47 KCAL/MOL
REMARK 927      BINDING AFFINITY PREDICTED BY RF-SCORE:    0.00 PKD
ROOT
HETATM    1  C   UNL     1      -8.151  14.860  67.499  1.00  0.00    -0.200 C  
HETATM    2  C   UNL     1      -8.712  15.652  66.329  1.00  0.00    -0.325 C  
ENDROOT
BRANCH   2   3
HETATM    3  C   UNL     1      -7.901  16.919  66.085  1.00  0.00    -0.277 C  
BRANCH   3   4
HETATM    4  C   UNL     1      -8.421  18.082  66.930  1.00  0.00    -0.262 C  
BRANCH   4   5
HETATM    5  C   UNL     1      -9.939  18.030  67.016  1.00  0.00    -0.330 C  
BRANCH   5   6
HETATM    6  C   UNL     1     -10.452  18.388  68.410  1.00  0.00    -0.280 C  
BRANCH   6   7
HETATM    7  C   UNL     1     -10.457  17.128  69.271  1.00  0.00    -0.267 C  
BRANCH   7   8
HETATM    8  C   UNL     1     -11.582  16.169  68.893  1.00  0.00    -0.298 C  
BRANCH   8   9
HETATM    9  N   UNL     1     -11.925  15.162  70.028  1.00  0.00    -0.314 N  
HETATM   10  C   UNL     1     -10.967  15.348  71.204  1.00  0.00    -0.225 C  
HETATM   11  C   UNL     1     -13.366  15.368  70.496  1.00  0.00    -0.125 C  
BRANCH   9  12
HETATM   12  C   UNL     1     -11.758  13.743  69.416  1.00  0.00    -0.325 C  
BRANCH  12  13
HETATM   13  C   UNL     1     -11.896  13.733  67.897  1.00  0.00    -0.413 C  
BRANCH  13  14
HETATM   14  C   UNL     1     -11.621  12.357  67.295  1.00  0.00    -0.435 C  
BRANCH  14  15
HETATM   15  C   UNL     1     -10.684  11.591  68.228  1.00  0.00    -0.247 C  
BRANCH  15  16
HETATM   16  C   UNL     1     -10.869  10.083  68.119  1.00  0.00    -0.303 C  
BRANCH  16  17
HETATM   17  C   UNL     1     -10.724   9.434  69.494  1.00  0.00    -0.238 C  
BRANCH  17  18
HETATM   18  C   UNL     1     -11.397  10.271  70.576  1.00  0.00    -0.422 C  
HETATM   19  C   UNL     1     -12.576   9.531  71.188  1.00  0.00    -0.383 C  
ENDBRANCH  17  18
ENDBRANCH  16  17
ENDBRANCH  15  16
ENDBRANCH  14  15
ENDBRANCH  13  14
ENDBRANCH  12  13
ENDBRANCH   9  12
ENDBRANCH   8   9
ENDBRANCH   7   8
ENDBRANCH   6   7
ENDBRANCH   5   6
ENDBRANCH   4   5
ENDBRANCH   3   4
ENDBRANCH   2   3
TORSDOF 14
ENDMDL
MODEL      158
REMARK 921   NORMALIZED FREE ENERGY PREDICTED BY IDOCK:   -2.95 KCAL/MOL
REMARK 922        TOTAL FREE ENERGY PREDICTED BY IDOCK:   -7.10 KCAL/MOL
REMARK 923 INTER-LIGAND FREE ENERGY PREDICTED BY IDOCK:   -6.08 KCAL/MOL
REMARK 924 INTRA-LIGAND FREE ENERGY PREDICTED BY IDOCK:   -1.03 KCAL/MOL
REMARK 927      BINDING AFFINITY PREDICTED BY RF-SCORE:    0.00 PKD
ROOT
HETATM    1  C   UNL     1     -11.986  16.043  72.539  1.00  0.00    -0.649 C  
HETATM    2  C   UNL     1     -12.381  15.681  71.116  1.00  0.00    -0.482 C  
ENDROOT
BRANCH   2   3
HETATM    3  C   UNL     1     -12.751  14.206  71.007  1.00  0.00    -0.433 C  
BRANCH   3   4
HETATM    4  C   UNL     1     -12.035  13.541  69.832  1.00  0.00    -0.416 C  
BRANCH   4   5
HETATM    5  C   UNL     1     -11.969  14.496  68.649  1.00  0.00    -0.320 C  
BRANCH   5   6
HETATM    6  C   UNL     1     -12.120  13.771  67.312  1.00  0.00    -0.393 C  
BRANCH   6   7
HETATM    7  C   UNL     1     -10.768  13.186  66.915  1.00  0.00    -0.270 C  
BRANCH   7   8
HETATM    8  C   UNL     1     -10.901  11.845  66.200  1.00  0.00    -0.292 C  
BRANCH   8   9
HETATM    9  N   UNL     1     -10.129  10.700  66.917  1.00  0.00    -0.206 N  
HETATM   10  C   UNL     1      -9.764   9.603  65.916  1.00  0.00    -0.275 C  
HETATM   11  C   UNL     1      -8.860  11.249  67.570  1.00  0.00    -0.140 C  
BRANCH   9  12
HETATM   12  C   UNL     1     -11.091  10.139  68.002  1.00  0.00    -0.240 C  
BRANCH  12  13
HETATM   13  C   UNL     1     -10.366   9.731  69.281  1.00  0.00    -0.230 C  
BRANCH  13  14
HETATM   14  C   UNL     1     -11.280   9.000  70.262  1.00  0.00    -0.232 C  
BRANCH  14  15
HETATM   15  C   UNL     1     -10.697   9.131  71.668  1.00  0.00    -0.441 C  
BRANCH  15  16
HETATM   16  C   UNL     1     -10.296   7.784  72.253  1.00  0.00    -0.294 C  
BRANCH  16  17
HETATM   17  C   UNL     1     -11.360   6.734  71.937  1.00  0.00    -0.306 C  
BRANCH  17  18
HETATM   18  C   UNL     1     -10.740   5.486  71.318  1.00  0.00    -0.288 C  
HETATM   19  C   UNL     1      -9.241   5.438  71.567  1.00  0.00    -0.169 C  
ENDBRANCH  17  18
ENDBRANCH  16  17
ENDBRANCH  15  16
ENDBRANCH  14  15
ENDBRANCH  13  14
ENDBRANCH  12  13
ENDBRANCH   9  12
ENDBRANCH   8   9
ENDBRANCH   7   8
ENDBRANCH   6   7
ENDBRANCH   5   6
ENDBRANCH   4   5
ENDBRANCH   3   4
ENDBRANCH   2   3
TORSDOF 14
ENDMDL
MODEL      159
REMARK 921   NORMALIZED FREE ENERGY PREDICTED BY IDOCK:   -2.95 KCAL/MOL
REMARK 922        TOTAL FREE ENERGY PREDICTED BY IDOCK:   -7.10 KCAL/MOL
REMARK 923 INTER-LIGAND FREE ENERGY PREDICTED BY IDOCK:   -5.01 KCAL/MOL
REMARK 924 INTRA-LIGAND FREE ENERGY PREDICTED BY IDOCK:   -2.09 KCAL/MOL
REMARK 927      BINDING AFFINITY PREDICTED BY RF-SCORE:    0.00 PKD
ROOT
HETATM    1  C   UNL     1     -10.269  10.355  65.694  1.00  0.00    -0.308 C  
HETATM    2  C   UNL     1      -9.734   8.989  66.094  1.00  0.00    -0.354 C  
ENDROOT
BRANCH   2   3
HETATM    3  C   UNL     1     -10.475   8.443  67.308  1.00  0.00    -0.373 C  
BRANCH   3   4
HETATM    4  C   UNL     1     -10.185   6.956  67.512  1.00  0.00    -0.249 C  
BRANCH   4   5
HETATM    5  C   UNL     1     -11.160   6.365  68.520  1.00  0.00    -0.385 C  
BRANCH   5   6
HETATM    6  C   UNL     1     -10.448   5.578  69.620  1.00  0.00    -0.379 C  
BRANCH   6   7
HETATM    7  C   UNL     1     -10.912   6.100  70.976  1.00  0.00    -0.354 C  
BRANCH   7   8
HETATM    8  C   UNL     1     -12.134   7.007  70.865  1.00  0.00    -0.357 C  
BRANCH   8   9
HETATM    9  N   UNL     1     -11.927   8.388  71.549  1.00  0.00    -0.288 N  
HETATM   10  C   UNL     1     -11.630   9.458  70.499  1.00  0.00    -0.235 C  
HETATM   11  C   UNL     1     -13.177   8.774  72.343  1.00  0.00    -0.394 C  
BRANCH   9  12
HETATM   12  C   UNL     1     -10.714   8.222  72.507  1.00  0.00    -0.341 C  
BRANCH  12  13
HETATM   13  C   UNL     1      -9.429   8.821  71.944  1.00  0.00    -0.362 C  
BRANCH  13  14
HETATM   14  C   UNL     1      -8.181   8.097  72.443  1.00  0.00    -0.206 C  
BRANCH  14  15
HETATM   15  C   UNL     1      -7.225   7.898  71.267  1.00  0.00    -0.059 C  
BRANCH  15  16
HETATM   16  C   UNL     1      -7.868   8.262  69.935  1.00  0.00    -0.102 C  
BRANCH  16  17
HETATM   17  C   UNL     1      -6.802   8.359  68.845  1.00  0.00    -0.061 C  
BRANCH  17  18
HETATM   18  C   UNL     1      -6.799   9.739  68.195  1.00  0.00    -0.069 C  
HETATM   19  C   UNL     1      -7.805  10.662  68.864  1.00  0.00    -0.129 C  
ENDBRANCH  17  18
ENDBRANCH  16  17
ENDBRANCH  15  16
ENDBRANCH  14  15
ENDBRANCH  13  14
ENDBRANCH  12  13
ENDBRANCH   9  12
ENDBRANCH   8   9
ENDBRANCH   7   8
ENDBRANCH   6   7
ENDBRANCH   5   6
ENDBRANCH   4   5
ENDBRANCH   3   4
ENDBRANCH   2   3
TORSDOF 14
ENDMDL
MODEL      160
REMARK 921   NORMALIZED FREE ENERGY PREDICTED BY IDOCK:   -2.94 KCAL/MOL
REMARK 922        TOTAL FREE ENERGY PREDICTED BY IDOCK:   -7.09 KCAL/MOL
REMARK 923 INTER-LIGAND FREE ENERGY PREDICTED BY IDOCK:   -6.22 KCAL/MOL
REMARK 924 INTRA-LIGAND FREE ENERGY PREDICTED BY IDOCK:   -0.86 KCAL/MOL
REMARK 927      BINDING AFFINITY PREDICTED BY RF-SCORE:    0.00 PKD
ROOT
HETATM    1  C   UNL     1     -10.729   5.236  72.105  1.00  0.00    -0.271 C  
HETATM    2  C   UNL     1     -11.781   6.332  72.166  1.00  0.00    -0.368 C  
ENDROOT
BRANCH   2   3
HETATM    3  C   UNL     1     -12.113   6.853  70.773  1.00  0.00    -0.400 C  
BRANCH   3   4
HETATM    4  C   UNL     1     -11.142   6.301  69.729  1.00  0.00    -0.473 C  
BRANCH   4   5
HETATM    5  C   UNL     1     -10.506   7.443  68.950  1.00  0.00    -0.213 C  
BRANCH   5   6
HETATM    6  C   UNL     1     -10.713   7.300  67.442  1.00  0.00    -0.358 C  
BRANCH   6   7
HETATM    7  C   UNL     1     -10.043   8.477  66.740  1.00  0.00    -0.369 C  
BRANCH   7   8
HETATM    8  C   UNL     1     -10.654   9.817  67.139  1.00  0.00    -0.229 C  
BRANCH   8   9
HETATM    9  N   UNL     1     -10.143  10.998  66.266  1.00  0.00    -0.227 N  
HETATM   10  C   UNL     1      -8.636  11.175  66.448  1.00  0.00    -0.172 C  
HETATM   11  C   UNL     1     -10.459  10.738  64.792  1.00  0.00    -0.265 C  
BRANCH   9  12
HETATM   12  C   UNL     1     -10.897  12.264  66.760  1.00  0.00    -0.253 C  
BRANCH  12  13
HETATM   13  C   UNL     1     -12.136  12.578  65.927  1.00  0.00    -0.420 C  
BRANCH  13  14
HETATM   14  C   UNL     1     -12.357  14.078  65.751  1.00  0.00    -0.506 C  
BRANCH  14  15
HETATM   15  C   UNL     1     -11.306  14.620  64.784  1.00  0.00    -0.398 C  
BRANCH  15  16
HETATM   16  C   UNL     1     -10.878  16.039  65.133  1.00  0.00    -0.411 C  
BRANCH  16  17
HETATM   17  C   UNL     1      -9.910  16.022  66.315  1.00  0.00    -0.331 C  
BRANCH  17  18
HETATM   18  C   UNL     1     -10.531  16.665  67.550  1.00  0.00    -0.317 C  
HETATM   19  C   UNL     1     -10.623  15.672  68.697  1.00  0.00    -0.243 C  
ENDBRANCH  17  18
ENDBRANCH  16  17
ENDBRANCH  15  16
ENDBRANCH  14  15
ENDBRANCH  13  14
ENDBRANCH  12  13
ENDBRANCH   9  12
ENDBRANCH   8   9
ENDBRANCH   7   8
ENDBRANCH   6   7
ENDBRANCH   5   6
ENDBRANCH   4   5
ENDBRANCH   3   4
ENDBRANCH   2   3
TORSDOF 14
ENDMDL
MODEL      161
REMARK 921   NORMALIZED FREE ENERGY PREDICTED BY IDOCK:   -2.94 KCAL/MOL
REMARK 922        TOTAL FREE ENERGY PREDICTED BY IDOCK:   -7.08 KCAL/MOL
REMARK 923 INTER-LIGAND FREE ENERGY PREDICTED BY IDOCK:   -6.00 KCAL/MOL
REMARK 924 INTRA-LIGAND FREE ENERGY PREDICTED BY IDOCK:   -1.08 KCAL/MOL
REMARK 927      BINDING AFFINITY PREDICTED BY RF-SCORE:    0.00 PKD
ROOT
HETATM    1  C   UNL     1      -7.006  20.275  67.247  1.00  0.00    -0.308 C  
HETATM    2  C   UNL     1      -6.754  20.256  68.746  1.00  0.00    -0.275 C  
ENDROOT
BRANCH   2   3
HETATM    3  C   UNL     1      -5.638  19.281  69.103  1.00  0.00    -0.223 C  
BRANCH   3   4
HETATM    4  C   UNL     1      -5.415  18.262  67.986  1.00  0.00    -0.158 C  
BRANCH   4   5
HETATM    5  C   UNL     1      -5.259  16.867  68.573  1.00  0.00    -0.123 C  
BRANCH   5   6
HETATM    6  C   UNL     1      -6.537  16.381  69.257  1.00  0.00    -0.206 C  
BRANCH   6   7
HETATM    7  C   UNL     1      -7.699  16.512  68.277  1.00  0.00    -0.176 C  
BRANCH   7   8
HETATM    8  C   UNL     1      -8.886  15.634  68.661  1.00  0.00    -0.201 C  
BRANCH   8   9
HETATM    9  N   UNL     1     -10.201  16.444  68.850  1.00  0.00    -0.242 N  
HETATM   10  C   UNL     1     -10.849  16.092  70.189  1.00  0.00    -0.346 C  
HETATM   11  C   UNL     1      -9.907  17.944  68.796  1.00  0.00    -0.352 C  
BRANCH   9  12
HETATM   12  C   UNL     1     -11.135  16.039  67.676  1.00  0.00    -0.243 C  
BRANCH  12  13
HETATM   13  C   UNL     1     -10.783  14.679  67.082  1.00  0.00    -0.292 C  
BRANCH  13  14
HETATM   14  C   UNL     1     -11.881  13.642  67.304  1.00  0.00    -0.429 C  
BRANCH  14  15
HETATM   15  C   UNL     1     -12.282  13.053  65.952  1.00  0.00    -0.493 C  
BRANCH  15  16
HETATM   16  C   UNL     1     -11.840  13.929  64.788  1.00  0.00    -0.414 C  
BRANCH  16  17
HETATM   17  C   UNL     1     -12.052  13.195  63.466  1.00  0.00    -0.585 C  
BRANCH  17  18
HETATM   18  C   UNL     1     -11.531  11.764  63.536  1.00  0.00    -0.489 C  
HETATM   19  C   UNL     1     -10.019  11.723  63.389  1.00  0.00    -0.446 C  
ENDBRANCH  17  18
ENDBRANCH  16  17
ENDBRANCH  15  16
ENDBRANCH  14  15
ENDBRANCH  13  14
ENDBRANCH  12  13
ENDBRANCH   9  12
ENDBRANCH   8   9
ENDBRANCH   7   8
ENDBRANCH   6   7
ENDBRANCH   5   6
ENDBRANCH   4   5
ENDBRANCH   3   4
ENDBRANCH   2   3
TORSDOF 14
ENDMDL
MODEL      162
REMARK 921   NORMALIZED FREE ENERGY PREDICTED BY IDOCK:   -2.94 KCAL/MOL
REMARK 922        TOTAL FREE ENERGY PREDICTED BY IDOCK:   -7.07 KCAL/MOL
REMARK 923 INTER-LIGAND FREE ENERGY PREDICTED BY IDOCK:   -5.35 KCAL/MOL
REMARK 924 INTRA-LIGAND FREE ENERGY PREDICTED BY IDOCK:   -1.72 KCAL/MOL
REMARK 927      BINDING AFFINITY PREDICTED BY RF-SCORE:    0.00 PKD
ROOT
HETATM    1  C   UNL     1     -10.970   6.880  67.114  1.00  0.00    -0.427 C  
HETATM    2  C   UNL     1     -10.089   8.080  66.806  1.00  0.00    -0.357 C  
ENDROOT
BRANCH   2   3
HETATM    3  C   UNL     1      -8.855   7.665  66.014  1.00  0.00    -0.186 C  
BRANCH   3   4
HETATM    4  C   UNL     1      -8.540   8.674  64.910  1.00  0.00    -0.163 C  
BRANCH   4   5
HETATM    5  C   UNL     1      -9.204  10.009  65.215  1.00  0.00    -0.268 C  
BRANCH   5   6
HETATM    6  C   UNL     1      -9.771  10.673  63.960  1.00  0.00    -0.373 C  
BRANCH   6   7
HETATM    7  C   UNL     1     -11.111  11.315  64.307  1.00  0.00    -0.293 C  
BRANCH   7   8
HETATM    8  C   UNL     1     -11.273  12.698  63.682  1.00  0.00    -0.466 C  
BRANCH   8   9
HETATM    9  N   UNL     1     -11.437  13.825  64.742  1.00  0.00    -0.341 N  
HETATM   10  C   UNL     1     -10.077  14.440  65.072  1.00  0.00    -0.286 C  
HETATM   11  C   UNL     1     -12.381  14.907  64.217  1.00  0.00    -0.277 C  
BRANCH   9  12
HETATM   12  C   UNL     1     -12.043  13.151  66.005  1.00  0.00    -0.436 C  
BRANCH  12  13
HETATM   13  C   UNL     1     -12.037  14.067  67.225  1.00  0.00    -0.405 C  
BRANCH  13  14
HETATM   14  C   UNL     1     -11.248  13.479  68.392  1.00  0.00    -0.309 C  
BRANCH  14  15
HETATM   15  C   UNL     1     -10.872  12.036  68.055  1.00  0.00    -0.254 C  
BRANCH  15  16
HETATM   16  C   UNL     1      -9.468  11.682  68.525  1.00  0.00    -0.175 C  
BRANCH  16  17
HETATM   17  C   UNL     1      -8.432  12.498  67.755  1.00  0.00    -0.171 C  
BRANCH  17  18
HETATM   18  C   UNL     1      -7.540  13.295  68.700  1.00  0.00    -0.094 C  
HETATM   19  C   UNL     1      -6.135  12.718  68.744  1.00  0.00    -0.071 C  
ENDBRANCH  17  18
ENDBRANCH  16  17
ENDBRANCH  15  16
ENDBRANCH  14  15
ENDBRANCH  13  14
ENDBRANCH  12  13
ENDBRANCH   9  12
ENDBRANCH   8   9
ENDBRANCH   7   8
ENDBRANCH   6   7
ENDBRANCH   5   6
ENDBRANCH   4   5
ENDBRANCH   3   4
ENDBRANCH   2   3
TORSDOF 14
ENDMDL
MODEL      163
REMARK 921   NORMALIZED FREE ENERGY PREDICTED BY IDOCK:   -2.93 KCAL/MOL
REMARK 922        TOTAL FREE ENERGY PREDICTED BY IDOCK:   -7.07 KCAL/MOL
REMARK 923 INTER-LIGAND FREE ENERGY PREDICTED BY IDOCK:   -6.24 KCAL/MOL
REMARK 924 INTRA-LIGAND FREE ENERGY PREDICTED BY IDOCK:   -0.83 KCAL/MOL
REMARK 927      BINDING AFFINITY PREDICTED BY RF-SCORE:    0.00 PKD
ROOT
HETATM    1  C   UNL     1     -10.699  19.567  67.307  1.00  0.00    -0.604 C  
HETATM    2  C   UNL     1     -10.643  18.059  67.489  1.00  0.00    -0.402 C  
ENDROOT
BRANCH   2   3
HETATM    3  C   UNL     1      -9.816  17.684  68.713  1.00  0.00    -0.334 C  
BRANCH   3   4
HETATM    4  C   UNL     1     -10.042  16.225  69.109  1.00  0.00    -0.264 C  
BRANCH   4   5
HETATM    5  C   UNL     1     -11.494  16.009  69.510  1.00  0.00    -0.326 C  
BRANCH   5   6
HETATM    6  C   UNL     1     -12.105  14.784  68.830  1.00  0.00    -0.240 C  
BRANCH   6   7
HETATM    7  C   UNL     1     -11.140  14.282  67.761  1.00  0.00    -0.294 C  
BRANCH   7   8
HETATM    8  C   UNL     1     -11.564  12.938  67.178  1.00  0.00    -0.363 C  
BRANCH   8   9
HETATM    9  N   UNL     1     -10.835  11.734  67.840  1.00  0.00    -0.201 N  
HETATM   10  C   UNL     1     -10.455  10.700  66.781  1.00  0.00    -0.247 C  
HETATM   11  C   UNL     1      -9.579  12.216  68.568  1.00  0.00    -0.133 C  
BRANCH   9  12
HETATM   12  C   UNL     1     -11.840  11.121  68.855  1.00  0.00    -0.337 C  
BRANCH  12  13
HETATM   13  C   UNL     1     -11.162  10.246  69.904  1.00  0.00    -0.360 C  
BRANCH  13  14
HETATM   14  C   UNL     1     -11.922  10.226  71.228  1.00  0.00    -0.457 C  
BRANCH  14  15
HETATM   15  C   UNL     1     -11.571   8.942  71.978  1.00  0.00    -0.435 C  
BRANCH  15  16
HETATM   16  C   UNL     1     -11.821   7.698  71.136  1.00  0.00    -0.314 C  
BRANCH  16  17
HETATM   17  C   UNL     1     -12.023   6.482  72.039  1.00  0.00    -0.372 C  
BRANCH  17  18
HETATM   18  C   UNL     1     -10.706   5.756  72.293  1.00  0.00    -0.282 C  
HETATM   19  C   UNL     1     -10.320   5.821  73.762  1.00  0.00    -0.272 C  
ENDBRANCH  17  18
ENDBRANCH  16  17
ENDBRANCH  15  16
ENDBRANCH  14  15
ENDBRANCH  13  14
ENDBRANCH  12  13
ENDBRANCH   9  12
ENDBRANCH   8   9
ENDBRANCH   7   8
ENDBRANCH   6   7
ENDBRANCH   5   6
ENDBRANCH   4   5
ENDBRANCH   3   4
ENDBRANCH   2   3
TORSDOF 14
ENDMDL
MODEL      164
REMARK 921   NORMALIZED FREE ENERGY PREDICTED BY IDOCK:   -2.93 KCAL/MOL
REMARK 922        TOTAL FREE ENERGY PREDICTED BY IDOCK:   -7.06 KCAL/MOL
REMARK 923 INTER-LIGAND FREE ENERGY PREDICTED BY IDOCK:   -5.50 KCAL/MOL
REMARK 924 INTRA-LIGAND FREE ENERGY PREDICTED BY IDOCK:   -1.56 KCAL/MOL
REMARK 927      BINDING AFFINITY PREDICTED BY RF-SCORE:    0.00 PKD
ROOT
HETATM    1  C   UNL     1      -7.560   9.497  69.048  1.00  0.00    -0.075 C  
HETATM    2  C   UNL     1      -7.821  10.982  68.852  1.00  0.00    -0.138 C  
ENDROOT
BRANCH   2   3
HETATM    3  C   UNL     1      -6.606  11.679  68.253  1.00  0.00    -0.059 C  
BRANCH   3   4
HETATM    4  C   UNL     1      -7.022  12.783  67.283  1.00  0.00    -0.087 C  
BRANCH   4   5
HETATM    5  C   UNL     1      -8.172  13.589  67.868  1.00  0.00    -0.168 C  
BRANCH   5   6
HETATM    6  C   UNL     1      -8.544  14.785  66.992  1.00  0.00    -0.260 C  
BRANCH   6   7
HETATM    7  C   UNL     1     -10.023  14.687  66.629  1.00  0.00    -0.281 C  
BRANCH   7   8
HETATM    8  C   UNL     1     -10.265  13.810  65.404  1.00  0.00    -0.326 C  
BRANCH   8   9
HETATM    9  N   UNL     1     -11.179  12.589  65.706  1.00  0.00    -0.307 N  
HETATM   10  C   UNL     1     -12.266  12.467  64.639  1.00  0.00    -0.453 C  
HETATM   11  C   UNL     1     -10.347  11.306  65.746  1.00  0.00    -0.258 C  
BRANCH   9  12
HETATM   12  C   UNL     1     -11.818  12.856  67.098  1.00  0.00    -0.362 C  
BRANCH  12  13
HETATM   13  C   UNL     1     -11.741  11.649  68.026  1.00  0.00    -0.351 C  
BRANCH  13  14
HETATM   14  C   UNL     1     -11.406  12.039  69.464  1.00  0.00    -0.298 C  
BRANCH  14  15
HETATM   15  C   UNL     1     -12.648  11.834  70.331  1.00  0.00    -0.186 C  
BRANCH  15  16
HETATM   16  C   UNL     1     -12.839  12.960  71.338  1.00  0.00    -0.377 C  
BRANCH  16  17
HETATM   17  C   UNL     1     -12.369  14.286  70.742  1.00  0.00    -0.427 C  
BRANCH  17  18
HETATM   18  C   UNL     1     -13.430  15.370  70.896  1.00  0.00    -0.427 C  
HETATM   19  C   UNL     1     -14.007  15.377  72.302  1.00  0.00    -0.661 C  
ENDBRANCH  17  18
ENDBRANCH  16  17
ENDBRANCH  15  16
ENDBRANCH  14  15
ENDBRANCH  13  14
ENDBRANCH  12  13
ENDBRANCH   9  12
ENDBRANCH   8   9
ENDBRANCH   7   8
ENDBRANCH   6   7
ENDBRANCH   5   6
ENDBRANCH   4   5
ENDBRANCH   3   4
ENDBRANCH   2   3
TORSDOF 14
ENDMDL
MODEL      165
REMARK 921   NORMALIZED FREE ENERGY PREDICTED BY IDOCK:   -2.93 KCAL/MOL
REMARK 922        TOTAL FREE ENERGY PREDICTED BY IDOCK:   -7.06 KCAL/MOL
REMARK 923 INTER-LIGAND FREE ENERGY PREDICTED BY IDOCK:   -5.37 KCAL/MOL
REMARK 924 INTRA-LIGAND FREE ENERGY PREDICTED BY IDOCK:   -1.69 KCAL/MOL
REMARK 927      BINDING AFFINITY PREDICTED BY RF-SCORE:    0.00 PKD
ROOT
HETATM    1  C   UNL     1     -11.622   8.660  71.968  1.00  0.00    -0.440 C  
HETATM    2  C   UNL     1     -10.219   8.972  71.473  1.00  0.00    -0.414 C  
ENDROOT
BRANCH   2   3
HETATM    3  C   UNL     1     -10.259   9.832  70.215  1.00  0.00    -0.346 C  
BRANCH   3   4
HETATM    4  C   UNL     1      -9.652   9.097  69.021  1.00  0.00    -0.156 C  
BRANCH   4   5
HETATM    5  C   UNL     1     -10.750   8.657  68.063  1.00  0.00    -0.137 C  
BRANCH   5   6
HETATM    6  C   UNL     1     -10.239   7.671  67.013  1.00  0.00    -0.371 C  
BRANCH   6   7
HETATM    7  C   UNL     1      -8.798   8.028  66.662  1.00  0.00    -0.166 C  
BRANCH   7   8
HETATM    8  C   UNL     1      -8.644   8.467  65.209  1.00  0.00    -0.165 C  
BRANCH   8   9
HETATM    9  N   UNL     1      -8.125   9.927  65.070  1.00  0.00    -0.133 N  
HETATM   10  C   UNL     1      -7.032  10.199  66.103  1.00  0.00    -0.113 C  
HETATM   11  C   UNL     1      -7.577  10.159  63.661  1.00  0.00    -0.139 C  
BRANCH   9  12
HETATM   12  C   UNL     1      -9.349  10.851  65.327  1.00  0.00    -0.213 C  
BRANCH  12  13
HETATM   13  C   UNL     1      -9.105  11.859  66.446  1.00  0.00    -0.208 C  
BRANCH  13  14
HETATM   14  C   UNL     1     -10.394  12.270  67.153  1.00  0.00    -0.234 C  
BRANCH  14  15
HETATM   15  C   UNL     1     -10.568  13.783  67.019  1.00  0.00    -0.278 C  
BRANCH  15  16
HETATM   16  C   UNL     1     -11.201  14.174  65.691  1.00  0.00    -0.308 C  
BRANCH  16  17
HETATM   17  C   UNL     1     -12.634  13.649  65.615  1.00  0.00    -0.531 C  
BRANCH  17  18
HETATM   18  C   UNL     1     -12.780  12.591  64.527  1.00  0.00    -0.440 C  
HETATM   19  C   UNL     1     -11.883  12.899  63.339  1.00  0.00    -0.576 C  
ENDBRANCH  17  18
ENDBRANCH  16  17
ENDBRANCH  15  16
ENDBRANCH  14  15
ENDBRANCH  13  14
ENDBRANCH  12  13
ENDBRANCH   9  12
ENDBRANCH   8   9
ENDBRANCH   7   8
ENDBRANCH   6   7
ENDBRANCH   5   6
ENDBRANCH   4   5
ENDBRANCH   3   4
ENDBRANCH   2   3
TORSDOF 14
ENDMDL
MODEL      166
REMARK 921   NORMALIZED FREE ENERGY PREDICTED BY IDOCK:   -2.91 KCAL/MOL
REMARK 922        TOTAL FREE ENERGY PREDICTED BY IDOCK:   -7.03 KCAL/MOL
REMARK 923 INTER-LIGAND FREE ENERGY PREDICTED BY IDOCK:   -5.85 KCAL/MOL
REMARK 924 INTRA-LIGAND FREE ENERGY PREDICTED BY IDOCK:   -1.18 KCAL/MOL
REMARK 927      BINDING AFFINITY PREDICTED BY RF-SCORE:    0.00 PKD
ROOT
HETATM    1  C   UNL     1     -12.368  15.428  64.308  1.00  0.00    -0.077 C  
HETATM    2  C   UNL     1     -11.468  14.208  64.419  1.00  0.00    -0.344 C  
ENDROOT
BRANCH   2   3
HETATM    3  C   UNL     1     -12.278  12.952  64.718  1.00  0.00    -0.499 C  
BRANCH   3   4
HETATM    4  C   UNL     1     -11.982  11.847  63.705  1.00  0.00    -0.578 C  
BRANCH   4   5
HETATM    5  C   UNL     1     -10.484  11.747  63.461  1.00  0.00    -0.500 C  
BRANCH   5   6
HETATM    6  C   UNL     1      -9.893  10.451  64.016  1.00  0.00    -0.355 C  
BRANCH   6   7
HETATM    7  C   UNL     1      -9.090  10.775  65.272  1.00  0.00    -0.217 C  
BRANCH   7   8
HETATM    8  C   UNL     1      -9.654  10.092  66.515  1.00  0.00    -0.187 C  
BRANCH   8   9
HETATM    9  N   UNL     1      -9.973  11.093  67.662  1.00  0.00    -0.172 N  
HETATM   10  C   UNL     1      -9.639  12.519  67.226  1.00  0.00    -0.205 C  
HETATM   11  C   UNL     1     -11.451  11.001  68.044  1.00  0.00    -0.290 C  
BRANCH   9  12
HETATM   12  C   UNL     1      -9.082  10.675  68.866  1.00  0.00    -0.176 C  
BRANCH  12  13
HETATM   13  C   UNL     1      -8.499   9.274  68.712  1.00  0.00    -0.129 C  
BRANCH  13  14
HETATM   14  C   UNL     1      -8.620   8.448  69.991  1.00  0.00    -0.131 C  
BRANCH  14  15
HETATM   15  C   UNL     1      -9.427   9.245  71.016  1.00  0.00    -0.313 C  
BRANCH  15  16
HETATM   16  C   UNL     1     -10.379   8.362  71.811  1.00  0.00    -0.333 C  
BRANCH  16  17
HETATM   17  C   UNL     1     -11.739   8.297  71.119  1.00  0.00    -0.308 C  
BRANCH  17  18
HETATM   18  C   UNL     1     -12.823   8.954  71.965  1.00  0.00    -0.456 C  
HETATM   19  C   UNL     1     -12.912  10.445  71.680  1.00  0.00    -0.581 C  
ENDBRANCH  17  18
ENDBRANCH  16  17
ENDBRANCH  15  16
ENDBRANCH  14  15
ENDBRANCH  13  14
ENDBRANCH  12  13
ENDBRANCH   9  12
ENDBRANCH   8   9
ENDBRANCH   7   8
ENDBRANCH   6   7
ENDBRANCH   5   6
ENDBRANCH   4   5
ENDBRANCH   3   4
ENDBRANCH   2   3
TORSDOF 14
ENDMDL
MODEL      167
REMARK 921   NORMALIZED FREE ENERGY PREDICTED BY IDOCK:   -2.91 KCAL/MOL
REMARK 922        TOTAL FREE ENERGY PREDICTED BY IDOCK:   -7.03 KCAL/MOL
REMARK 923 INTER-LIGAND FREE ENERGY PREDICTED BY IDOCK:   -5.32 KCAL/MOL
REMARK 924 INTRA-LIGAND FREE ENERGY PREDICTED BY IDOCK:   -1.71 KCAL/MOL
REMARK 927      BINDING AFFINITY PREDICTED BY RF-SCORE:    0.00 PKD
ROOT
HETATM    1  C   UNL     1     -10.143  15.020  66.035  1.00  0.00    -0.322 C  
HETATM    2  C   UNL     1     -10.446  13.821  66.919  1.00  0.00    -0.272 C  
ENDROOT
BRANCH   2   3
HETATM    3  C   UNL     1     -11.924  13.454  66.860  1.00  0.00    -0.437 C  
BRANCH   3   4
HETATM    4  C   UNL     1     -12.525  13.793  65.496  1.00  0.00    -0.548 C  
BRANCH   4   5
HETATM    5  C   UNL     1     -12.463  12.579  64.580  1.00  0.00    -0.539 C  
BRANCH   5   6
HETATM    6  C   UNL     1     -11.269  12.635  63.627  1.00  0.00    -0.525 C  
BRANCH   6   7
HETATM    7  C   UNL     1     -10.609  11.260  63.587  1.00  0.00    -0.453 C  
BRANCH   7   8
HETATM    8  C   UNL     1      -9.414  11.215  62.638  1.00  0.00    -0.276 C  
BRANCH   8   9
HETATM    9  N   UNL     1      -8.335  10.183  63.074  1.00  0.00    -0.158 N  
HETATM   10  C   UNL     1      -8.660   8.805  62.497  1.00  0.00    -0.170 C  
HETATM   11  C   UNL     1      -6.954  10.633  62.595  1.00  0.00    -0.044 C  
BRANCH   9  12
HETATM   12  C   UNL     1      -8.376  10.139  64.627  1.00  0.00    -0.166 C  
BRANCH  12  13
HETATM   13  C   UNL     1      -8.643   8.740  65.173  1.00  0.00    -0.209 C  
BRANCH  13  14
HETATM   14  C   UNL     1      -9.741   8.727  66.233  1.00  0.00    -0.342 C  
BRANCH  14  15
HETATM   15  C   UNL     1      -9.913  10.144  66.780  1.00  0.00    -0.266 C  
BRANCH  15  16
HETATM   16  C   UNL     1     -10.402  10.149  68.222  1.00  0.00    -0.215 C  
BRANCH  16  17
HETATM   17  C   UNL     1      -9.225  10.344  69.177  1.00  0.00    -0.202 C  
BRANCH  17  18
HETATM   18  C   UNL     1      -7.985  10.832  68.436  1.00  0.00    -0.124 C  
HETATM   19  C   UNL     1      -6.861   9.812  68.518  1.00  0.00    -0.056 C  
ENDBRANCH  17  18
ENDBRANCH  16  17
ENDBRANCH  15  16
ENDBRANCH  14  15
ENDBRANCH  13  14
ENDBRANCH  12  13
ENDBRANCH   9  12
ENDBRANCH   8   9
ENDBRANCH   7   8
ENDBRANCH   6   7
ENDBRANCH   5   6
ENDBRANCH   4   5
ENDBRANCH   3   4
ENDBRANCH   2   3
TORSDOF 14
ENDMDL
MODEL      168
REMARK 921   NORMALIZED FREE ENERGY PREDICTED BY IDOCK:   -2.91 KCAL/MOL
REMARK 922        TOTAL FREE ENERGY PREDICTED BY IDOCK:   -7.03 KCAL/MOL
REMARK 923 INTER-LIGAND FREE ENERGY PREDICTED BY IDOCK:   -5.64 KCAL/MOL
REMARK 924 INTRA-LIGAND FREE ENERGY PREDICTED BY IDOCK:   -1.39 KCAL/MOL
REMARK 927      BINDING AFFINITY PREDICTED BY RF-SCORE:    0.00 PKD
ROOT
HETATM    1  C   UNL     1      -9.910   4.756  70.473  1.00  0.00    -0.301 C  
HETATM    2  C   UNL     1      -9.619   6.245  70.369  1.00  0.00    -0.183 C  
ENDROOT
BRANCH   2   3
HETATM    3  C   UNL     1     -10.679   7.063  71.097  1.00  0.00    -0.253 C  
BRANCH   3   4
HETATM    4  C   UNL     1     -11.206   8.195  70.215  1.00  0.00    -0.182 C  
BRANCH   4   5
HETATM    5  C   UNL     1     -10.772   9.541  70.775  1.00  0.00    -0.391 C  
BRANCH   5   6
HETATM    6  C   UNL     1     -11.114  10.696  69.834  1.00  0.00    -0.364 C  
BRANCH   6   7
HETATM    7  C   UNL     1     -11.073  10.187  68.396  1.00  0.00    -0.273 C  
BRANCH   7   8
HETATM    8  C   UNL     1      -9.909  10.775  67.603  1.00  0.00    -0.171 C  
BRANCH   8   9
HETATM    9  N   UNL     1      -9.507   9.900  66.382  1.00  0.00    -0.173 N  
HETATM   10  C   UNL     1      -8.005  10.019  66.120  1.00  0.00    -0.113 C  
HETATM   11  C   UNL     1      -9.874   8.438  66.638  1.00  0.00    -0.273 C  
BRANCH   9  12
HETATM   12  C   UNL     1     -10.309  10.449  65.169  1.00  0.00    -0.190 C  
BRANCH  12  13
HETATM   13  C   UNL     1      -9.837  11.830  64.723  1.00  0.00    -0.238 C  
BRANCH  13  14
HETATM   14  C   UNL     1     -10.969  12.676  64.146  1.00  0.00    -0.427 C  
BRANCH  14  15
HETATM   15  C   UNL     1     -12.217  12.481  65.007  1.00  0.00    -0.519 C  
BRANCH  15  16
HETATM   16  C   UNL     1     -12.767  13.800  65.530  1.00  0.00    -0.530 C  
BRANCH  16  17
HETATM   17  C   UNL     1     -11.777  14.436  66.503  1.00  0.00    -0.404 C  
BRANCH  17  18
HETATM   18  C   UNL     1     -11.968  13.902  67.918  1.00  0.00    -0.393 C  
HETATM   19  C   UNL     1     -10.779  14.247  68.800  1.00  0.00    -0.262 C  
ENDBRANCH  17  18
ENDBRANCH  16  17
ENDBRANCH  15  16
ENDBRANCH  14  15
ENDBRANCH  13  14
ENDBRANCH  12  13
ENDBRANCH   9  12
ENDBRANCH   8   9
ENDBRANCH   7   8
ENDBRANCH   6   7
ENDBRANCH   5   6
ENDBRANCH   4   5
ENDBRANCH   3   4
ENDBRANCH   2   3
TORSDOF 14
ENDMDL
MODEL      169
REMARK 921   NORMALIZED FREE ENERGY PREDICTED BY IDOCK:   -2.91 KCAL/MOL
REMARK 922        TOTAL FREE ENERGY PREDICTED BY IDOCK:   -7.03 KCAL/MOL
REMARK 923 INTER-LIGAND FREE ENERGY PREDICTED BY IDOCK:   -5.63 KCAL/MOL
REMARK 924 INTRA-LIGAND FREE ENERGY PREDICTED BY IDOCK:   -1.40 KCAL/MOL
REMARK 927      BINDING AFFINITY PREDICTED BY RF-SCORE:    0.00 PKD
ROOT
HETATM    1  C   UNL     1      -7.573  10.377  69.576  1.00  0.00    -0.158 C  
HETATM    2  C   UNL     1      -8.991  10.002  69.975  1.00  0.00    -0.121 C  
ENDROOT
BRANCH   2   3
HETATM    3  C   UNL     1      -8.994   8.858  70.981  1.00  0.00    -0.298 C  
BRANCH   3   4
HETATM    4  C   UNL     1     -10.285   8.843  71.799  1.00  0.00    -0.414 C  
BRANCH   4   5
HETATM    5  C   UNL     1     -11.373   8.089  71.049  1.00  0.00    -0.294 C  
BRANCH   5   6
HETATM    6  C   UNL     1     -11.123   6.581  71.031  1.00  0.00    -0.339 C  
BRANCH   6   7
HETATM    7  C   UNL     1     -11.167   6.093  69.586  1.00  0.00    -0.488 C  
BRANCH   7   8
HETATM    8  C   UNL     1     -10.039   5.117  69.265  1.00  0.00    -0.213 C  
BRANCH   8   9
HETATM    9  N   UNL     1      -9.362   5.405  67.895  1.00  0.00    -0.110 N  
HETATM   10  C   UNL     1      -8.043   4.640  67.787  1.00  0.00    -0.096 C  
HETATM   11  C   UNL     1     -10.293   4.995  66.752  1.00  0.00    -0.244 C  
BRANCH   9  12
HETATM   12  C   UNL     1      -9.102   6.937  67.850  1.00  0.00    -0.122 C  
BRANCH  12  13
HETATM   13  C   UNL     1      -9.738   7.610  66.638  1.00  0.00    -0.283 C  
BRANCH  13  14
HETATM   14  C   UNL     1     -10.357   8.963  66.980  1.00  0.00    -0.340 C  
BRANCH  14  15
HETATM   15  C   UNL     1      -9.830  10.008  65.997  1.00  0.00    -0.321 C  
BRANCH  15  16
HETATM   16  C   UNL     1     -10.483  11.368  66.197  1.00  0.00    -0.303 C  
BRANCH  16  17
HETATM   17  C   UNL     1     -10.292  12.233  64.953  1.00  0.00    -0.319 C  
BRANCH  17  18
HETATM   18  C   UNL     1     -10.986  11.622  63.741  1.00  0.00    -0.495 C  
HETATM   19  C   UNL     1     -12.336  12.275  63.495  1.00  0.00    -0.670 C  
ENDBRANCH  17  18
ENDBRANCH  16  17
ENDBRANCH  15  16
ENDBRANCH  14  15
ENDBRANCH  13  14
ENDBRANCH  12  13
ENDBRANCH   9  12
ENDBRANCH   8   9
ENDBRANCH   7   8
ENDBRANCH   6   7
ENDBRANCH   5   6
ENDBRANCH   4   5
ENDBRANCH   3   4
ENDBRANCH   2   3
TORSDOF 14
ENDMDL
MODEL      170
REMARK 921   NORMALIZED FREE ENERGY PREDICTED BY IDOCK:   -2.89 KCAL/MOL
REMARK 922        TOTAL FREE ENERGY PREDICTED BY IDOCK:   -6.99 KCAL/MOL
REMARK 923 INTER-LIGAND FREE ENERGY PREDICTED BY IDOCK:   -5.65 KCAL/MOL
REMARK 924 INTRA-LIGAND FREE ENERGY PREDICTED BY IDOCK:   -1.34 KCAL/MOL
REMARK 927      BINDING AFFINITY PREDICTED BY RF-SCORE:    0.00 PKD
ROOT
HETATM    1  C   UNL     1     -10.926   5.975  67.924  1.00  0.00    -0.334 C  
HETATM    2  C   UNL     1     -11.354   6.207  69.364  1.00  0.00    -0.401 C  
ENDROOT
BRANCH   2   3
HETATM    3  C   UNL     1     -10.499   5.394  70.329  1.00  0.00    -0.355 C  
BRANCH   3   4
HETATM    4  C   UNL     1     -10.838   5.723  71.782  1.00  0.00    -0.311 C  
BRANCH   4   5
HETATM    5  C   UNL     1     -11.696   6.977  71.849  1.00  0.00    -0.333 C  
BRANCH   5   6
HETATM    6  C   UNL     1     -11.014   8.105  72.624  1.00  0.00    -0.440 C  
BRANCH   6   7
HETATM    7  C   UNL     1     -10.490   9.136  71.629  1.00  0.00    -0.403 C  
BRANCH   7   8
HETATM    8  C   UNL     1      -9.050   8.858  71.206  1.00  0.00    -0.253 C  
BRANCH   8   9
HETATM    9  N   UNL     1      -8.744   9.331  69.756  1.00  0.00    -0.147 N  
HETATM   10  C   UNL     1      -7.815  10.545  69.782  1.00  0.00    -0.034 C  
HETATM   11  C   UNL     1      -8.096   8.199  68.959  1.00  0.00    -0.115 C  
BRANCH   9  12
HETATM   12  C   UNL     1     -10.113   9.715  69.125  1.00  0.00    -0.189 C  
BRANCH  12  13
HETATM   13  C   UNL     1     -10.015  10.911  68.184  1.00  0.00    -0.188 C  
BRANCH  13  14
HETATM   14  C   UNL     1     -10.993  12.024  68.552  1.00  0.00    -0.280 C  
BRANCH  14  15
HETATM   15  C   UNL     1     -11.810  12.391  67.314  1.00  0.00    -0.357 C  
BRANCH  15  16
HETATM   16  C   UNL     1     -11.988  13.895  67.165  1.00  0.00    -0.455 C  
BRANCH  16  17
HETATM   17  C   UNL     1     -11.048  14.634  68.116  1.00  0.00    -0.285 C  
BRANCH  17  18
HETATM   18  C   UNL     1     -11.803  15.654  68.961  1.00  0.00    -0.379 C  
HETATM   19  C   UNL     1     -12.276  15.039  70.268  1.00  0.00    -0.390 C  
ENDBRANCH  17  18
ENDBRANCH  16  17
ENDBRANCH  15  16
ENDBRANCH  14  15
ENDBRANCH  13  14
ENDBRANCH  12  13
ENDBRANCH   9  12
ENDBRANCH   8   9
ENDBRANCH   7   8
ENDBRANCH   6   7
ENDBRANCH   5   6
ENDBRANCH   4   5
ENDBRANCH   3   4
ENDBRANCH   2   3
TORSDOF 14
ENDMDL
MODEL      171
REMARK 921   NORMALIZED FREE ENERGY PREDICTED BY IDOCK:   -2.89 KCAL/MOL
REMARK 922        TOTAL FREE ENERGY PREDICTED BY IDOCK:   -6.99 KCAL/MOL
REMARK 923 INTER-LIGAND FREE ENERGY PREDICTED BY IDOCK:   -5.27 KCAL/MOL
REMARK 924 INTRA-LIGAND FREE ENERGY PREDICTED BY IDOCK:   -1.71 KCAL/MOL
REMARK 927      BINDING AFFINITY PREDICTED BY RF-SCORE:    0.00 PKD
ROOT
HETATM    1  C   UNL     1     -10.838   7.377  73.165  1.00  0.00    -0.435 C  
HETATM    2  C   UNL     1      -9.531   8.121  72.943  1.00  0.00    -0.345 C  
ENDROOT
BRANCH   2   3
HETATM    3  C   UNL     1      -9.546   8.876  71.620  1.00  0.00    -0.363 C  
BRANCH   3   4
HETATM    4  C   UNL     1     -10.103   8.008  70.493  1.00  0.00    -0.195 C  
BRANCH   4   5
HETATM    5  C   UNL     1      -9.022   7.075  69.966  1.00  0.00    -0.142 C  
BRANCH   5   6
HETATM    6  C   UNL     1      -8.037   7.793  69.045  1.00  0.00    -0.125 C  
BRANCH   6   7
HETATM    7  C   UNL     1      -8.824   8.550  67.978  1.00  0.00    -0.142 C  
BRANCH   7   8
HETATM    8  C   UNL     1      -7.944   9.496  67.167  1.00  0.00    -0.102 C  
BRANCH   8   9
HETATM    9  N   UNL     1      -8.519  10.939  67.090  1.00  0.00    -0.126 N  
HETATM   10  C   UNL     1      -7.402  11.963  67.294  1.00  0.00    -0.146 C  
HETATM   11  C   UNL     1      -9.190  11.167  65.735  1.00  0.00    -0.215 C  
BRANCH   9  12
HETATM   12  C   UNL     1      -9.567  11.052  68.232  1.00  0.00    -0.171 C  
BRANCH  12  13
HETATM   13  C   UNL     1     -10.299  12.391  68.234  1.00  0.00    -0.232 C  
BRANCH  13  14
HETATM   14  C   UNL     1     -11.760  12.257  68.657  1.00  0.00    -0.377 C  
BRANCH  14  15
HETATM   15  C   UNL     1     -11.846  11.274  69.823  1.00  0.00    -0.437 C  
BRANCH  15  16
HETATM   16  C   UNL     1     -12.418  11.917  71.079  1.00  0.00    -0.390 C  
BRANCH  16  17
HETATM   17  C   UNL     1     -13.345  10.939  71.797  1.00  0.00    -0.413 C  
BRANCH  17  18
HETATM   18  C   UNL     1     -13.169   9.519  71.271  1.00  0.00    -0.400 C  
HETATM   19  C   UNL     1     -14.138   8.561  71.943  1.00  0.00    -0.519 C  
ENDBRANCH  17  18
ENDBRANCH  16  17
ENDBRANCH  15  16
ENDBRANCH  14  15
ENDBRANCH  13  14
ENDBRANCH  12  13
ENDBRANCH   9  12
ENDBRANCH   8   9
ENDBRANCH   7   8
ENDBRANCH   6   7
ENDBRANCH   5   6
ENDBRANCH   4   5
ENDBRANCH   3   4
ENDBRANCH   2   3
TORSDOF 14
ENDMDL
MODEL      172
REMARK 921   NORMALIZED FREE ENERGY PREDICTED BY IDOCK:   -2.89 KCAL/MOL
REMARK 922        TOTAL FREE ENERGY PREDICTED BY IDOCK:   -6.98 KCAL/MOL
REMARK 923 INTER-LIGAND FREE ENERGY PREDICTED BY IDOCK:   -5.59 KCAL/MOL
REMARK 924 INTRA-LIGAND FREE ENERGY PREDICTED BY IDOCK:   -1.40 KCAL/MOL
REMARK 927      BINDING AFFINITY PREDICTED BY RF-SCORE:    0.00 PKD
ROOT
HETATM    1  C   UNL     1     -11.743  15.717  72.103  1.00  0.00    -0.573 C  
HETATM    2  C   UNL     1     -11.919  15.381  70.631  1.00  0.00    -0.396 C  
ENDROOT
BRANCH   2   3
HETATM    3  C   UNL     1     -12.520  13.991  70.453  1.00  0.00    -0.418 C  
BRANCH   3   4
HETATM    4  C   UNL     1     -11.700  13.155  69.472  1.00  0.00    -0.382 C  
BRANCH   4   5
HETATM    5  C   UNL     1     -11.960  11.673  69.701  1.00  0.00    -0.390 C  
BRANCH   5   6
HETATM    6  C   UNL     1     -10.697  10.830  69.526  1.00  0.00    -0.268 C  
BRANCH   6   7
HETATM    7  C   UNL     1     -10.507  10.532  68.042  1.00  0.00    -0.232 C  
BRANCH   7   8
HETATM    8  C   UNL     1      -9.069  10.146  67.705  1.00  0.00    -0.130 C  
BRANCH   8   9
HETATM    9  N   UNL     1      -8.445  11.045  66.601  1.00  0.00    -0.147 N  
HETATM   10  C   UNL     1      -7.614  10.198  65.638  1.00  0.00    -0.144 C  
HETATM   11  C   UNL     1      -9.547  11.774  65.831  1.00  0.00    -0.230 C  
BRANCH   9  12
HETATM   12  C   UNL     1      -7.537  12.071  67.336  1.00  0.00    -0.151 C  
BRANCH  12  13
HETATM   13  C   UNL     1      -8.314  13.267  67.879  1.00  0.00    -0.163 C  
BRANCH  13  14
HETATM   14  C   UNL     1      -7.711  14.600  67.444  1.00  0.00    -0.226 C  
BRANCH  14  15
HETATM   15  C   UNL     1      -8.831  15.634  67.336  1.00  0.00    -0.204 C  
BRANCH  15  16
HETATM   16  C   UNL     1      -9.562  15.553  66.003  1.00  0.00    -0.380 C  
BRANCH  16  17
HETATM   17  C   UNL     1     -11.050  15.294  66.232  1.00  0.00    -0.273 C  
BRANCH  17  18
HETATM   18  C   UNL     1     -11.698  14.662  65.005  1.00  0.00    -0.385 C  
HETATM   19  C   UNL     1     -12.693  13.585  65.405  1.00  0.00    -0.495 C  
ENDBRANCH  17  18
ENDBRANCH  16  17
ENDBRANCH  15  16
ENDBRANCH  14  15
ENDBRANCH  13  14
ENDBRANCH  12  13
ENDBRANCH   9  12
ENDBRANCH   8   9
ENDBRANCH   7   8
ENDBRANCH   6   7
ENDBRANCH   5   6
ENDBRANCH   4   5
ENDBRANCH   3   4
ENDBRANCH   2   3
TORSDOF 14
ENDMDL
MODEL      173
REMARK 921   NORMALIZED FREE ENERGY PREDICTED BY IDOCK:   -2.88 KCAL/MOL
REMARK 922        TOTAL FREE ENERGY PREDICTED BY IDOCK:   -6.98 KCAL/MOL
REMARK 923 INTER-LIGAND FREE ENERGY PREDICTED BY IDOCK:   -5.81 KCAL/MOL
REMARK 924 INTRA-LIGAND FREE ENERGY PREDICTED BY IDOCK:   -1.17 KCAL/MOL
REMARK 927      BINDING AFFINITY PREDICTED BY RF-SCORE:    0.00 PKD
ROOT
HETATM    1  C   UNL     1      -7.367  10.144  69.937  1.00  0.00    -0.169 C  
HETATM    2  C   UNL     1      -8.356   9.225  70.636  1.00  0.00    -0.245 C  
ENDROOT
BRANCH   2   3
HETATM    3  C   UNL     1      -8.245   7.799  70.111  1.00  0.00    -0.123 C  
BRANCH   3   4
HETATM    4  C   UNL     1      -9.620   7.227  69.765  1.00  0.00    -0.162 C  
BRANCH   4   5
HETATM    5  C   UNL     1     -10.437   8.255  68.996  1.00  0.00    -0.212 C  
BRANCH   5   6
HETATM    6  C   UNL     1     -10.729   7.808  67.564  1.00  0.00    -0.265 C  
BRANCH   6   7
HETATM    7  C   UNL     1      -9.736   8.487  66.626  1.00  0.00    -0.318 C  
BRANCH   7   8
HETATM    8  C   UNL     1     -10.230   9.845  66.137  1.00  0.00    -0.207 C  
BRANCH   8   9
HETATM    9  N   UNL     1      -9.197  10.575  65.232  1.00  0.00    -0.187 N  
HETATM   10  C   UNL     1      -7.875  10.754  65.979  1.00  0.00    -0.149 C  
HETATM   11  C   UNL     1      -8.963   9.775  63.950  1.00  0.00    -0.243 C  
BRANCH   9  12
HETATM   12  C   UNL     1      -9.816  11.960  64.894  1.00  0.00    -0.199 C  
BRANCH  12  13
HETATM   13  C   UNL     1     -10.425  12.010  63.496  1.00  0.00    -0.505 C  
BRANCH  13  14
HETATM   14  C   UNL     1     -11.762  12.746  63.468  1.00  0.00    -0.597 C  
BRANCH  14  15
HETATM   15  C   UNL     1     -12.404  12.652  64.852  1.00  0.00    -0.563 C  
BRANCH  15  16
HETATM   16  C   UNL     1     -12.749  14.022  65.421  1.00  0.00    -0.499 C  
BRANCH  16  17
HETATM   17  C   UNL     1     -12.115  14.195  66.800  1.00  0.00    -0.474 C  
BRANCH  17  18
HETATM   18  C   UNL     1     -10.882  15.089  66.735  1.00  0.00    -0.318 C  
HETATM   19  C   UNL     1     -10.787  15.795  65.392  1.00  0.00    -0.376 C  
ENDBRANCH  17  18
ENDBRANCH  16  17
ENDBRANCH  15  16
ENDBRANCH  14  15
ENDBRANCH  13  14
ENDBRANCH  12  13
ENDBRANCH   9  12
ENDBRANCH   8   9
ENDBRANCH   7   8
ENDBRANCH   6   7
ENDBRANCH   5   6
ENDBRANCH   4   5
ENDBRANCH   3   4
ENDBRANCH   2   3
TORSDOF 14
ENDMDL
MODEL      174
REMARK 921   NORMALIZED FREE ENERGY PREDICTED BY IDOCK:   -2.88 KCAL/MOL
REMARK 922        TOTAL FREE ENERGY PREDICTED BY IDOCK:   -6.97 KCAL/MOL
REMARK 923 INTER-LIGAND FREE ENERGY PREDICTED BY IDOCK:   -5.45 KCAL/MOL
REMARK 924 INTRA-LIGAND FREE ENERGY PREDICTED BY IDOCK:   -1.52 KCAL/MOL
REMARK 927      BINDING AFFINITY PREDICTED BY RF-SCORE:    0.00 PKD
ROOT
HETATM    1  C   UNL     1     -10.650  10.752  66.878  1.00  0.00    -0.312 C  
HETATM    2  C   UNL     1     -11.081  10.580  68.326  1.00  0.00    -0.340 C  
ENDROOT
BRANCH   2   3
HETATM    3  C   UNL     1     -10.861  11.862  69.120  1.00  0.00    -0.196 C  
BRANCH   3   4
HETATM    4  C   UNL     1     -12.019  12.123  70.083  1.00  0.00    -0.394 C  
BRANCH   4   5
HETATM    5  C   UNL     1     -12.778  10.832  70.354  1.00  0.00    -0.346 C  
BRANCH   5   6
HETATM    6  C   UNL     1     -13.044  10.619  71.844  1.00  0.00    -0.563 C  
BRANCH   6   7
HETATM    7  C   UNL     1     -12.824   9.146  72.177  1.00  0.00    -0.486 C  
BRANCH   7   8
HETATM    8  C   UNL     1     -12.027   8.418  71.098  1.00  0.00    -0.272 C  
BRANCH   8   9
HETATM    9  N   UNL     1     -10.690   7.827  71.630  1.00  0.00    -0.217 N  
HETATM   10  C   UNL     1      -9.567   8.856  71.492  1.00  0.00    -0.292 C  
HETATM   11  C   UNL     1     -10.841   7.419  73.096  1.00  0.00    -0.386 C  
BRANCH   9  12
HETATM   12  C   UNL     1     -10.386   6.579  70.755  1.00  0.00    -0.204 C  
BRANCH  12  13
HETATM   13  C   UNL     1     -11.445   6.336  69.684  1.00  0.00    -0.425 C  
BRANCH  13  14
HETATM   14  C   UNL     1     -10.835   6.082  68.307  1.00  0.00    -0.366 C  
BRANCH  14  15
HETATM   15  C   UNL     1      -9.716   7.097  68.071  1.00  0.00    -0.152 C  
BRANCH  15  16
HETATM   16  C   UNL     1      -9.522   7.406  66.593  1.00  0.00    -0.240 C  
BRANCH  16  17
HETATM   17  C   UNL     1      -8.033   7.471  66.259  1.00  0.00    -0.109 C  
BRANCH  17  18
HETATM   18  C   UNL     1      -7.652   8.831  65.686  1.00  0.00    -0.086 C  
HETATM   19  C   UNL     1      -6.309   8.772  64.978  1.00  0.00    -0.064 C  
ENDBRANCH  17  18
ENDBRANCH  16  17
ENDBRANCH  15  16
ENDBRANCH  14  15
ENDBRANCH  13  14
ENDBRANCH  12  13
ENDBRANCH   9  12
ENDBRANCH   8   9
ENDBRANCH   7   8
ENDBRANCH   6   7
ENDBRANCH   5   6
ENDBRANCH   4   5
ENDBRANCH   3   4
ENDBRANCH   2   3
TORSDOF 14
ENDMDL
MODEL      175
REMARK 921   NORMALIZED FREE ENERGY PREDICTED BY IDOCK:   -2.88 KCAL/MOL
REMARK 922        TOTAL FREE ENERGY PREDICTED BY IDOCK:   -6.97 KCAL/MOL
REMARK 923 INTER-LIGAND FREE ENERGY PREDICTED BY IDOCK:   -6.13 KCAL/MOL
REMARK 924 INTRA-LIGAND FREE ENERGY PREDICTED BY IDOCK:   -0.84 KCAL/MOL
REMARK 927      BINDING AFFINITY PREDICTED BY RF-SCORE:    0.00 PKD
ROOT
HETATM    1  C   UNL     1     -12.206  13.315  63.614  1.00  0.00    -0.522 C  
HETATM    2  C   UNL     1     -11.778  11.866  63.437  1.00  0.00    -0.500 C  
ENDROOT
BRANCH   2   3
HETATM    3  C   UNL     1     -10.264  11.753  63.306  1.00  0.00    -0.452 C  
BRANCH   3   4
HETATM    4  C   UNL     1      -9.748  10.462  63.941  1.00  0.00    -0.367 C  
BRANCH   4   5
HETATM    5  C   UNL     1      -9.958  10.499  65.448  1.00  0.00    -0.353 C  
BRANCH   5   6
HETATM    6  C   UNL     1      -9.074  11.543  66.129  1.00  0.00    -0.217 C  
BRANCH   6   7
HETATM    7  C   UNL     1      -8.316  10.875  67.272  1.00  0.00    -0.123 C  
BRANCH   7   8
HETATM    8  C   UNL     1      -8.664   9.396  67.416  1.00  0.00    -0.125 C  
BRANCH   8   9
HETATM    9  N   UNL     1      -9.362   9.069  68.767  1.00  0.00    -0.140 N  
HETATM   10  C   UNL     1      -8.649   9.782  69.916  1.00  0.00    -0.218 C  
HETATM   11  C   UNL     1     -10.828   9.501  68.720  1.00  0.00    -0.142 C  
BRANCH   9  12
HETATM   12  C   UNL     1      -9.263   7.528  68.946  1.00  0.00    -0.142 C  
BRANCH  12  13
HETATM   13  C   UNL     1     -10.565   6.808  68.608  1.00  0.00    -0.263 C  
BRANCH  13  14
HETATM   14  C   UNL     1     -11.004   5.847  69.710  1.00  0.00    -0.452 C  
BRANCH  14  15
HETATM   15  C   UNL     1     -11.999   6.565  70.621  1.00  0.00    -0.345 C  
BRANCH  15  16
HETATM   16  C   UNL     1     -11.608   6.468  72.090  1.00  0.00    -0.349 C  
BRANCH  16  17
HETATM   17  C   UNL     1     -11.333   7.860  72.655  1.00  0.00    -0.468 C  
BRANCH  17  18
HETATM   18  C   UNL     1     -11.921   8.947  71.763  1.00  0.00    -0.429 C  
HETATM   19  C   UNL     1     -13.258   9.432  72.299  1.00  0.00    -0.528 C  
ENDBRANCH  17  18
ENDBRANCH  16  17
ENDBRANCH  15  16
ENDBRANCH  14  15
ENDBRANCH  13  14
ENDBRANCH  12  13
ENDBRANCH   9  12
ENDBRANCH   8   9
ENDBRANCH   7   8
ENDBRANCH   6   7
ENDBRANCH   5   6
ENDBRANCH   4   5
ENDBRANCH   3   4
ENDBRANCH   2   3
TORSDOF 14
ENDMDL
MODEL      176
REMARK 921   NORMALIZED FREE ENERGY PREDICTED BY IDOCK:   -2.88 KCAL/MOL
REMARK 922        TOTAL FREE ENERGY PREDICTED BY IDOCK:   -6.97 KCAL/MOL
REMARK 923 INTER-LIGAND FREE ENERGY PREDICTED BY IDOCK:   -4.85 KCAL/MOL
REMARK 924 INTRA-LIGAND FREE ENERGY PREDICTED BY IDOCK:   -2.12 KCAL/MOL
REMARK 927      BINDING AFFINITY PREDICTED BY RF-SCORE:    0.00 PKD
ROOT
HETATM    1  C   UNL     1      -7.543  14.863  67.291  1.00  0.00    -0.213 C  
HETATM    2  C   UNL     1      -8.798  15.661  67.607  1.00  0.00    -0.181 C  
ENDROOT
BRANCH   2   3
HETATM    3  C   UNL     1     -10.053  14.835  67.351  1.00  0.00    -0.231 C  
BRANCH   3   4
HETATM    4  C   UNL     1     -10.186  13.700  68.366  1.00  0.00    -0.245 C  
BRANCH   4   5
HETATM    5  C   UNL     1     -11.606  13.649  68.912  1.00  0.00    -0.362 C  
BRANCH   5   6
HETATM    6  C   UNL     1     -12.107  12.216  69.085  1.00  0.00    -0.224 C  
BRANCH   6   7
HETATM    7  C   UNL     1     -10.910  11.303  69.334  1.00  0.00    -0.239 C  
BRANCH   7   8
HETATM    8  C   UNL     1     -11.033   9.969  68.602  1.00  0.00    -0.204 C  
BRANCH   8   9
HETATM    9  N   UNL     1      -9.928   8.953  69.009  1.00  0.00    -0.184 N  
HETATM   10  C   UNL     1      -9.297   9.364  70.339  1.00  0.00    -0.268 C  
HETATM   11  C   UNL     1     -10.523   7.549  69.129  1.00  0.00    -0.215 C  
BRANCH   9  12
HETATM   12  C   UNL     1      -8.865   8.989  67.875  1.00  0.00    -0.129 C  
BRANCH  12  13
HETATM   13  C   UNL     1      -9.361   9.703  66.621  1.00  0.00    -0.200 C  
BRANCH  13  14
HETATM   14  C   UNL     1      -8.554  10.961  66.308  1.00  0.00    -0.164 C  
BRANCH  14  15
HETATM   15  C   UNL     1      -9.334  11.808  65.303  1.00  0.00    -0.058 C  
BRANCH  15  16
HETATM   16  C   UNL     1     -10.715  11.235  65.017  1.00  0.00    -0.322 C  
BRANCH  16  17
HETATM   17  C   UNL     1     -11.787  12.297  65.254  1.00  0.00    -0.411 C  
BRANCH  17  18
HETATM   18  C   UNL     1     -11.968  13.185  64.028  1.00  0.00    -0.524 C  
HETATM   19  C   UNL     1     -12.190  14.634  64.429  1.00  0.00    -0.473 C  
ENDBRANCH  17  18
ENDBRANCH  16  17
ENDBRANCH  15  16
ENDBRANCH  14  15
ENDBRANCH  13  14
ENDBRANCH  12  13
ENDBRANCH   9  12
ENDBRANCH   8   9
ENDBRANCH   7   8
ENDBRANCH   6   7
ENDBRANCH   5   6
ENDBRANCH   4   5
ENDBRANCH   3   4
ENDBRANCH   2   3
TORSDOF 14
ENDMDL
MODEL      177
REMARK 921   NORMALIZED FREE ENERGY PREDICTED BY IDOCK:   -2.88 KCAL/MOL
REMARK 922        TOTAL FREE ENERGY PREDICTED BY IDOCK:   -6.96 KCAL/MOL
REMARK 923 INTER-LIGAND FREE ENERGY PREDICTED BY IDOCK:   -6.20 KCAL/MOL
REMARK 924 INTRA-LIGAND FREE ENERGY PREDICTED BY IDOCK:   -0.76 KCAL/MOL
REMARK 927      BINDING AFFINITY PREDICTED BY RF-SCORE:    0.00 PKD
ROOT
HETATM    1  C   UNL     1      -9.723   7.998  66.534  1.00  0.00    -0.297 C  
HETATM    2  C   UNL     1      -9.383   9.401  66.058  1.00  0.00    -0.279 C  
ENDROOT
BRANCH   2   3
HETATM    3  C   UNL     1      -9.091   9.418  64.563  1.00  0.00    -0.205 C  
BRANCH   3   4
HETATM    4  C   UNL     1      -9.810  10.577  63.871  1.00  0.00    -0.373 C  
BRANCH   4   5
HETATM    5  C   UNL     1     -11.034  10.988  64.675  1.00  0.00    -0.150 C  
BRANCH   5   6
HETATM    6  C   UNL     1     -11.783  12.155  64.031  1.00  0.00    -0.515 C  
BRANCH   6   7
HETATM    7  C   UNL     1     -12.289  13.082  65.132  1.00  0.00    -0.536 C  
BRANCH   7   8
HETATM    8  C   UNL     1     -11.663  12.771  66.488  1.00  0.00    -0.400 C  
BRANCH   8   9
HETATM    9  N   UNL     1     -10.531  13.766  66.873  1.00  0.00    -0.271 N  
HETATM   10  C   UNL     1      -9.176  13.227  66.414  1.00  0.00    -0.119 C  
HETATM   11  C   UNL     1     -10.789  15.131  66.233  1.00  0.00    -0.333 C  
BRANCH   9  12
HETATM   12  C   UNL     1     -10.565  13.886  68.423  1.00  0.00    -0.255 C  
BRANCH  12  13
HETATM   13  C   UNL     1     -11.933  14.302  68.954  1.00  0.00    -0.356 C  
BRANCH  13  14
HETATM   14  C   UNL     1     -11.898  15.654  69.664  1.00  0.00    -0.377 C  
BRANCH  14  15
HETATM   15  C   UNL     1     -10.471  16.200  69.611  1.00  0.00    -0.291 C  
BRANCH  15  16
HETATM   16  C   UNL     1     -10.385  17.510  68.840  1.00  0.00    -0.338 C  
BRANCH  16  17
HETATM   17  C   UNL     1      -9.008  17.652  68.194  1.00  0.00    -0.269 C  
BRANCH  17  18
HETATM   18  C   UNL     1      -8.432  19.046  68.416  1.00  0.00    -0.383 C  
HETATM   19  C   UNL     1      -9.302  20.108  67.764  1.00  0.00    -0.455 C  
ENDBRANCH  17  18
ENDBRANCH  16  17
ENDBRANCH  15  16
ENDBRANCH  14  15
ENDBRANCH  13  14
ENDBRANCH  12  13
ENDBRANCH   9  12
ENDBRANCH   8   9
ENDBRANCH   7   8
ENDBRANCH   6   7
ENDBRANCH   5   6
ENDBRANCH   4   5
ENDBRANCH   3   4
ENDBRANCH   2   3
TORSDOF 14
ENDMDL
MODEL      178
REMARK 921   NORMALIZED FREE ENERGY PREDICTED BY IDOCK:   -2.87 KCAL/MOL
REMARK 922        TOTAL FREE ENERGY PREDICTED BY IDOCK:   -6.96 KCAL/MOL
REMARK 923 INTER-LIGAND FREE ENERGY PREDICTED BY IDOCK:   -5.30 KCAL/MOL
REMARK 924 INTRA-LIGAND FREE ENERGY PREDICTED BY IDOCK:   -1.66 KCAL/MOL
REMARK 927      BINDING AFFINITY PREDICTED BY RF-SCORE:    0.00 PKD
ROOT
HETATM    1  C   UNL     1      -8.330   8.444  72.192  1.00  0.00    -0.225 C  
HETATM    2  C   UNL     1      -9.054   7.598  73.227  1.00  0.00    -0.270 C  
ENDROOT
BRANCH   2   3
HETATM    3  C   UNL     1     -10.559   7.830  73.170  1.00  0.00    -0.415 C  
BRANCH   3   4
HETATM    4  C   UNL     1     -10.943   8.688  71.965  1.00  0.00    -0.432 C  
BRANCH   4   5
HETATM    5  C   UNL     1     -12.066   8.023  71.183  1.00  0.00    -0.284 C  
BRANCH   5   6
HETATM    6  C   UNL     1     -11.830   6.525  70.992  1.00  0.00    -0.390 C  
BRANCH   6   7
HETATM    7  C   UNL     1     -11.345   6.283  69.566  1.00  0.00    -0.475 C  
BRANCH   7   8
HETATM    8  C   UNL     1      -9.827   6.376  69.443  1.00  0.00    -0.149 C  
BRANCH   8   9
HETATM    9  N   UNL     1      -9.367   7.055  68.121  1.00  0.00    -0.126 N  
HETATM   10  C   UNL     1      -7.919   6.679  67.810  1.00  0.00    -0.112 C  
HETATM   11  C   UNL     1     -10.274   6.625  66.967  1.00  0.00    -0.223 C  
BRANCH   9  12
HETATM   12  C   UNL     1      -9.487   8.587  68.354  1.00  0.00    -0.135 C  
BRANCH  12  13
HETATM   13  C   UNL     1     -10.502   9.249  67.427  1.00  0.00    -0.340 C  
BRANCH  13  14
HETATM   14  C   UNL     1     -11.289  10.359  68.120  1.00  0.00    -0.284 C  
BRANCH  14  15
HETATM   15  C   UNL     1     -10.323  11.202  68.951  1.00  0.00    -0.220 C  
BRANCH  15  16
HETATM   16  C   UNL     1     -10.214  12.630  68.436  1.00  0.00    -0.233 C  
BRANCH  16  17
HETATM   17  C   UNL     1     -11.598  13.165  68.069  1.00  0.00    -0.371 C  
BRANCH  17  18
HETATM   18  C   UNL     1     -12.274  13.819  69.268  1.00  0.00    -0.307 C  
HETATM   19  C   UNL     1     -11.324  14.763  69.987  1.00  0.00    -0.306 C  
ENDBRANCH  17  18
ENDBRANCH  16  17
ENDBRANCH  15  16
ENDBRANCH  14  15
ENDBRANCH  13  14
ENDBRANCH  12  13
ENDBRANCH   9  12
ENDBRANCH   8   9
ENDBRANCH   7   8
ENDBRANCH   6   7
ENDBRANCH   5   6
ENDBRANCH   4   5
ENDBRANCH   3   4
ENDBRANCH   2   3
TORSDOF 14
ENDMDL
MODEL      179
REMARK 921   NORMALIZED FREE ENERGY PREDICTED BY IDOCK:   -2.87 KCAL/MOL
REMARK 922        TOTAL FREE ENERGY PREDICTED BY IDOCK:   -6.95 KCAL/MOL
REMARK 923 INTER-LIGAND FREE ENERGY PREDICTED BY IDOCK:   -6.01 KCAL/MOL
REMARK 924 INTRA-LIGAND FREE ENERGY PREDICTED BY IDOCK:   -0.94 KCAL/MOL
REMARK 927      BINDING AFFINITY PREDICTED BY RF-SCORE:    0.00 PKD
ROOT
HETATM    1  C   UNL     1      -7.554   5.373  71.479  1.00  0.00    -0.103 C  
HETATM    2  C   UNL     1      -8.690   4.489  70.989  1.00  0.00    -0.142 C  
ENDROOT
BRANCH   2   3
HETATM    3  C   UNL     1      -8.978   3.366  71.978  1.00  0.00    -0.143 C  
BRANCH   3   4
HETATM    4  C   UNL     1     -10.338   3.552  72.648  1.00  0.00    -0.222 C  
BRANCH   4   5
HETATM    5  C   UNL     1     -10.158   4.086  74.062  1.00  0.00    -0.200 C  
BRANCH   5   6
HETATM    6  C   UNL     1     -10.267   5.609  74.123  1.00  0.00    -0.283 C  
BRANCH   6   7
HETATM    7  C   UNL     1     -11.163   6.084  72.983  1.00  0.00    -0.232 C  
BRANCH   7   8
HETATM    8  C   UNL     1     -11.267   7.605  72.918  1.00  0.00    -0.372 C  
BRANCH   8   9
HETATM    9  N   UNL     1     -11.860   8.114  71.573  1.00  0.00    -0.283 N  
HETATM   10  C   UNL     1     -11.566   7.114  70.455  1.00  0.00    -0.290 C  
HETATM   11  C   UNL     1     -13.371   8.312  71.707  1.00  0.00    -0.352 C  
BRANCH   9  12
HETATM   12  C   UNL     1     -11.166   9.472  71.277  1.00  0.00    -0.382 C  
BRANCH  12  13
HETATM   13  C   UNL     1     -10.937   9.707  69.787  1.00  0.00    -0.266 C  
BRANCH  13  14
HETATM   14  C   UNL     1     -11.783  10.855  69.241  1.00  0.00    -0.395 C  
BRANCH  14  15
HETATM   15  C   UNL     1     -12.057  11.846  70.372  1.00  0.00    -0.421 C  
BRANCH  15  16
HETATM   16  C   UNL     1     -12.023  13.290  69.892  1.00  0.00    -0.400 C  
BRANCH  16  17
HETATM   17  C   UNL     1     -12.081  14.243  71.085  1.00  0.00    -0.409 C  
BRANCH  17  18
HETATM   18  C   UNL     1     -13.405  14.996  71.129  1.00  0.00    -0.510 C  
HETATM   19  C   UNL     1     -14.374  14.345  72.102  1.00  0.00    -0.604 C  
ENDBRANCH  17  18
ENDBRANCH  16  17
ENDBRANCH  15  16
ENDBRANCH  14  15
ENDBRANCH  13  14
ENDBRANCH  12  13
ENDBRANCH   9  12
ENDBRANCH   8   9
ENDBRANCH   7   8
ENDBRANCH   6   7
ENDBRANCH   5   6
ENDBRANCH   4   5
ENDBRANCH   3   4
ENDBRANCH   2   3
TORSDOF 14
ENDMDL
MODEL      180
REMARK 921   NORMALIZED FREE ENERGY PREDICTED BY IDOCK:   -2.86 KCAL/MOL
REMARK 922        TOTAL FREE ENERGY PREDICTED BY IDOCK:   -6.93 KCAL/MOL
REMARK 923 INTER-LIGAND FREE ENERGY PREDICTED BY IDOCK:   -5.72 KCAL/MOL
REMARK 924 INTRA-LIGAND FREE ENERGY PREDICTED BY IDOCK:   -1.22 KCAL/MOL
REMARK 927      BINDING AFFINITY PREDICTED BY RF-SCORE:    0.00 PKD
ROOT
HETATM    1  C   UNL     1     -12.199  12.158  63.540  1.00  0.00    -0.670 C  
HETATM    2  C   UNL     1     -12.289  13.460  64.320  1.00  0.00    -0.396 C  
ENDROOT
BRANCH   2   3
HETATM    3  C   UNL     1     -10.903  13.975  64.690  1.00  0.00    -0.416 C  
BRANCH   3   4
HETATM    4  C   UNL     1     -10.460  13.445  66.053  1.00  0.00    -0.294 C  
BRANCH   4   5
HETATM    5  C   UNL     1     -11.661  13.302  66.976  1.00  0.00    -0.439 C  
BRANCH   5   6
HETATM    6  C   UNL     1     -11.677  11.956  67.700  1.00  0.00    -0.346 C  
BRANCH   6   7
HETATM    7  C   UNL     1     -10.964  10.923  66.833  1.00  0.00    -0.286 C  
BRANCH   7   8
HETATM    8  C   UNL     1     -10.767   9.593  67.554  1.00  0.00    -0.256 C  
BRANCH   8   9
HETATM    9  N   UNL     1      -9.270   9.189  67.680  1.00  0.00    -0.128 N  
HETATM   10  C   UNL     1      -8.992   7.934  66.853  1.00  0.00    -0.136 C  
HETATM   11  C   UNL     1      -8.375  10.334  67.203  1.00  0.00    -0.122 C  
BRANCH   9  12
HETATM   12  C   UNL     1      -9.020   8.906  69.188  1.00  0.00    -0.140 C  
BRANCH  12  13
HETATM   13  C   UNL     1      -9.670   9.942  70.100  1.00  0.00    -0.255 C  
BRANCH  13  14
HETATM   14  C   UNL     1     -10.263   9.320  71.361  1.00  0.00    -0.371 C  
BRANCH  14  15
HETATM   15  C   UNL     1     -10.813   7.937  71.015  1.00  0.00    -0.253 C  
BRANCH  15  16
HETATM   16  C   UNL     1     -11.767   7.412  72.079  1.00  0.00    -0.325 C  
BRANCH  16  17
HETATM   17  C   UNL     1     -11.458   5.949  72.390  1.00  0.00    -0.358 C  
BRANCH  17  18
HETATM   18  C   UNL     1     -10.401   5.393  71.443  1.00  0.00    -0.294 C  
HETATM   19  C   UNL     1      -9.732   4.161  72.030  1.00  0.00    -0.231 C  
ENDBRANCH  17  18
ENDBRANCH  16  17
ENDBRANCH  15  16
ENDBRANCH  14  15
ENDBRANCH  13  14
ENDBRANCH  12  13
ENDBRANCH   9  12
ENDBRANCH   8   9
ENDBRANCH   7   8
ENDBRANCH   6   7
ENDBRANCH   5   6
ENDBRANCH   4   5
ENDBRANCH   3   4
ENDBRANCH   2   3
TORSDOF 14
ENDMDL
MODEL      181
REMARK 921   NORMALIZED FREE ENERGY PREDICTED BY IDOCK:   -2.85 KCAL/MOL
REMARK 922        TOTAL FREE ENERGY PREDICTED BY IDOCK:   -6.92 KCAL/MOL
REMARK 923 INTER-LIGAND FREE ENERGY PREDICTED BY IDOCK:   -5.67 KCAL/MOL
REMARK 924 INTRA-LIGAND FREE ENERGY PREDICTED BY IDOCK:   -1.25 KCAL/MOL
REMARK 927      BINDING AFFINITY PREDICTED BY RF-SCORE:    0.00 PKD
ROOT
HETATM    1  C   UNL     1      -7.651   3.787  68.655  1.00  0.00    -0.054 C  
HETATM    2  C   UNL     1      -7.909   4.599  67.395  1.00  0.00    -0.090 C  
ENDROOT
BRANCH   2   3
HETATM    3  C   UNL     1      -9.353   4.448  66.932  1.00  0.00    -0.167 C  
BRANCH   3   4
HETATM    4  C   UNL     1      -9.786   5.636  66.073  1.00  0.00    -0.082 C  
BRANCH   4   5
HETATM    5  C   UNL     1     -10.167   6.812  66.959  1.00  0.00    -0.304 C  
BRANCH   5   6
HETATM    6  C   UNL     1     -10.992   6.380  68.171  1.00  0.00    -0.393 C  
BRANCH   6   7
HETATM    7  C   UNL     1     -10.693   7.324  69.331  1.00  0.00    -0.236 C  
BRANCH   7   8
HETATM    8  C   UNL     1     -11.499   6.984  70.581  1.00  0.00    -0.324 C  
BRANCH   8   9
HETATM    9  N   UNL     1     -11.696   8.206  71.524  1.00  0.00    -0.275 N  
HETATM   10  C   UNL     1     -13.186   8.470  71.740  1.00  0.00    -0.364 C  
HETATM   11  C   UNL     1     -11.015   7.947  72.869  1.00  0.00    -0.388 C  
BRANCH   9  12
HETATM   12  C   UNL     1     -11.032   9.418  70.812  1.00  0.00    -0.304 C  
BRANCH  12  13
HETATM   13  C   UNL     1     -11.943  10.639  70.749  1.00  0.00    -0.477 C  
BRANCH  13  14
HETATM   14  C   UNL     1     -11.524  11.625  69.661  1.00  0.00    -0.359 C  
BRANCH  14  15
HETATM   15  C   UNL     1     -10.533  10.933  68.726  1.00  0.00    -0.224 C  
BRANCH  15  16
HETATM   16  C   UNL     1     -10.989  10.970  67.274  1.00  0.00    -0.356 C  
BRANCH  16  17
HETATM   17  C   UNL     1     -11.447  12.378  66.901  1.00  0.00    -0.423 C  
BRANCH  17  18
HETATM   18  C   UNL     1     -11.799  12.472  65.420  1.00  0.00    -0.479 C  
HETATM   19  C   UNL     1     -10.910  11.565  64.586  1.00  0.00    -0.372 C  
ENDBRANCH  17  18
ENDBRANCH  16  17
ENDBRANCH  15  16
ENDBRANCH  14  15
ENDBRANCH  13  14
ENDBRANCH  12  13
ENDBRANCH   9  12
ENDBRANCH   8   9
ENDBRANCH   7   8
ENDBRANCH   6   7
ENDBRANCH   5   6
ENDBRANCH   4   5
ENDBRANCH   3   4
ENDBRANCH   2   3
TORSDOF 14
ENDMDL
MODEL      182
REMARK 921   NORMALIZED FREE ENERGY PREDICTED BY IDOCK:   -2.85 KCAL/MOL
REMARK 922        TOTAL FREE ENERGY PREDICTED BY IDOCK:   -6.91 KCAL/MOL
REMARK 923 INTER-LIGAND FREE ENERGY PREDICTED BY IDOCK:   -6.03 KCAL/MOL
REMARK 924 INTRA-LIGAND FREE ENERGY PREDICTED BY IDOCK:   -0.88 KCAL/MOL
REMARK 927      BINDING AFFINITY PREDICTED BY RF-SCORE:    0.00 PKD
ROOT
HETATM    1  C   UNL     1      -7.293   4.145  67.902  1.00  0.00    -0.068 C  
HETATM    2  C   UNL     1      -8.327   4.500  66.847  1.00  0.00    -0.105 C  
ENDROOT
BRANCH   2   3
HETATM    3  C   UNL     1      -9.743   4.336  67.388  1.00  0.00    -0.210 C  
BRANCH   3   4
HETATM    4  C   UNL     1     -10.695   5.357  66.766  1.00  0.00    -0.289 C  
BRANCH   4   5
HETATM    5  C   UNL     1     -10.835   6.567  67.677  1.00  0.00    -0.419 C  
BRANCH   5   6
HETATM    6  C   UNL     1     -10.724   6.194  69.155  1.00  0.00    -0.381 C  
BRANCH   6   7
HETATM    7  C   UNL     1     -10.007   7.319  69.894  1.00  0.00    -0.183 C  
BRANCH   7   8
HETATM    8  C   UNL     1      -9.250   6.821  71.121  1.00  0.00    -0.159 C  
BRANCH   8   9
HETATM    9  N   UNL     1      -9.595   7.621  72.410  1.00  0.00    -0.158 N  
HETATM   10  C   UNL     1     -10.391   6.745  73.377  1.00  0.00    -0.294 C  
HETATM   11  C   UNL     1      -8.313   8.108  73.087  1.00  0.00    -0.204 C  
BRANCH   9  12
HETATM   12  C   UNL     1     -10.453   8.834  71.953  1.00  0.00    -0.353 C  
BRANCH  12  13
HETATM   13  C   UNL     1     -11.949   8.610  72.154  1.00  0.00    -0.449 C  
BRANCH  13  14
HETATM   14  C   UNL     1     -12.780   9.827  71.754  1.00  0.00    -0.519 C  
BRANCH  14  15
HETATM   15  C   UNL     1     -11.870  10.834  71.051  1.00  0.00    -0.349 C  
BRANCH  15  16
HETATM   16  C   UNL     1     -12.528  12.199  70.904  1.00  0.00    -0.374 C  
BRANCH  16  17
HETATM   17  C   UNL     1     -13.496  12.446  72.060  1.00  0.00    -0.460 C  
BRANCH  17  18
HETATM   18  C   UNL     1     -13.732  13.936  72.278  1.00  0.00    -0.660 C  
HETATM   19  C   UNL     1     -12.749  14.770  71.472  1.00  0.00    -0.401 C  
ENDBRANCH  17  18
ENDBRANCH  16  17
ENDBRANCH  15  16
ENDBRANCH  14  15
ENDBRANCH  13  14
ENDBRANCH  12  13
ENDBRANCH   9  12
ENDBRANCH   8   9
ENDBRANCH   7   8
ENDBRANCH   6   7
ENDBRANCH   5   6
ENDBRANCH   4   5
ENDBRANCH   3   4
ENDBRANCH   2   3
TORSDOF 14
ENDMDL
MODEL      183
REMARK 921   NORMALIZED FREE ENERGY PREDICTED BY IDOCK:   -2.84 KCAL/MOL
REMARK 922        TOTAL FREE ENERGY PREDICTED BY IDOCK:   -6.91 KCAL/MOL
REMARK 923 INTER-LIGAND FREE ENERGY PREDICTED BY IDOCK:   -5.01 KCAL/MOL
REMARK 924 INTRA-LIGAND FREE ENERGY PREDICTED BY IDOCK:   -1.90 KCAL/MOL
REMARK 927      BINDING AFFINITY PREDICTED BY RF-SCORE:    0.00 PKD
ROOT
HETATM    1  C   UNL     1      -7.758   9.893  69.418  1.00  0.00    -0.119 C  
HETATM    2  C   UNL     1      -8.436  10.909  68.513  1.00  0.00    -0.147 C  
ENDROOT
BRANCH   2   3
HETATM    3  C   UNL     1      -7.409  11.736  67.749  1.00  0.00    -0.106 C  
BRANCH   3   4
HETATM    4  C   UNL     1      -7.915  13.157  67.500  1.00  0.00    -0.179 C  
BRANCH   4   5
HETATM    5  C   UNL     1      -7.343  14.107  68.542  1.00  0.00    -0.120 C  
BRANCH   5   6
HETATM    6  C   UNL     1      -8.358  15.162  68.981  1.00  0.00    -0.209 C  
BRANCH   6   7
HETATM    7  C   UNL     1      -7.628  16.483  69.204  1.00  0.00    -0.210 C  
BRANCH   7   8
HETATM    8  C   UNL     1      -7.400  17.249  67.905  1.00  0.00    -0.184 C  
BRANCH   8   9
HETATM    9  N   UNL     1      -7.977  18.693  67.945  1.00  0.00    -0.254 N  
HETATM   10  C   UNL     1      -7.154  19.564  68.895  1.00  0.00    -0.359 C  
HETATM   11  C   UNL     1      -7.967  19.303  66.543  1.00  0.00    -0.294 C  
BRANCH   9  12
HETATM   12  C   UNL     1      -9.438  18.564  68.463  1.00  0.00    -0.347 C  
BRANCH  12  13
HETATM   13  C   UNL     1     -10.452  18.396  67.336  1.00  0.00    -0.443 C  
BRANCH  13  14
HETATM   14  C   UNL     1     -10.894  16.945  67.162  1.00  0.00    -0.088 C  
BRANCH  14  15
HETATM   15  C   UNL     1     -10.393  16.437  65.810  1.00  0.00    -0.388 C  
BRANCH  15  16
HETATM   16  C   UNL     1     -10.448  14.919  65.709  1.00  0.00    -0.345 C  
BRANCH  16  17
HETATM   17  C   UNL     1     -11.849  14.417  66.052  1.00  0.00    -0.379 C  
BRANCH  17  18
HETATM   18  C   UNL     1     -11.795  13.102  66.820  1.00  0.00    -0.444 C  
HETATM   19  C   UNL     1     -11.749  13.344  68.320  1.00  0.00    -0.391 C  
ENDBRANCH  17  18
ENDBRANCH  16  17
ENDBRANCH  15  16
ENDBRANCH  14  15
ENDBRANCH  13  14
ENDBRANCH  12  13
ENDBRANCH   9  12
ENDBRANCH   8   9
ENDBRANCH   7   8
ENDBRANCH   6   7
ENDBRANCH   5   6
ENDBRANCH   4   5
ENDBRANCH   3   4
ENDBRANCH   2   3
TORSDOF 14
ENDMDL
MODEL      184
REMARK 921   NORMALIZED FREE ENERGY PREDICTED BY IDOCK:   -2.84 KCAL/MOL
REMARK 922        TOTAL FREE ENERGY PREDICTED BY IDOCK:   -6.90 KCAL/MOL
REMARK 923 INTER-LIGAND FREE ENERGY PREDICTED BY IDOCK:   -5.49 KCAL/MOL
REMARK 924 INTRA-LIGAND FREE ENERGY PREDICTED BY IDOCK:   -1.41 KCAL/MOL
REMARK 927      BINDING AFFINITY PREDICTED BY RF-SCORE:    0.00 PKD
ROOT
HETATM    1  C   UNL     1      -5.786  13.217  69.171  1.00  0.00    -0.080 C  
HETATM    2  C   UNL     1      -5.900  14.467  68.314  1.00  0.00    -0.117 C  
ENDROOT
BRANCH   2   3
HETATM    3  C   UNL     1      -7.201  14.472  67.519  1.00  0.00    -0.210 C  
BRANCH   3   4
HETATM    4  C   UNL     1      -7.549  15.879  67.035  1.00  0.00    -0.264 C  
BRANCH   4   5
HETATM    5  C   UNL     1      -8.750  15.830  66.102  1.00  0.00    -0.293 C  
BRANCH   5   6
HETATM    6  C   UNL     1      -9.653  17.053  66.257  1.00  0.00    -0.289 C  
BRANCH   6   7
HETATM    7  C   UNL     1      -9.880  17.311  67.744  1.00  0.00    -0.281 C  
BRANCH   7   8
HETATM    8  C   UNL     1     -11.244  16.819  68.219  1.00  0.00    -0.167 C  
BRANCH   8   9
HETATM    9  N   UNL     1     -11.143  15.633  69.221  1.00  0.00    -0.270 N  
HETATM   10  C   UNL     1      -9.791  15.660  69.934  1.00  0.00    -0.192 C  
HETATM   11  C   UNL     1     -12.273  15.716  70.248  1.00  0.00    -0.386 C  
BRANCH   9  12
HETATM   12  C   UNL     1     -11.281  14.336  68.376  1.00  0.00    -0.269 C  
BRANCH  12  13
HETATM   13  C   UNL     1     -12.012  14.563  67.057  1.00  0.00    -0.371 C  
BRANCH  13  14
HETATM   14  C   UNL     1     -12.154  13.281  66.240  1.00  0.00    -0.472 C  
BRANCH  14  15
HETATM   15  C   UNL     1     -11.379  13.442  64.933  1.00  0.00    -0.345 C  
BRANCH  15  16
HETATM   16  C   UNL     1     -11.539  12.237  64.016  1.00  0.00    -0.495 C  
BRANCH  16  17
HETATM   17  C   UNL     1     -10.209  11.498  63.879  1.00  0.00    -0.411 C  
BRANCH  17  18
HETATM   18  C   UNL     1     -10.052  10.435  64.960  1.00  0.00    -0.379 C  
HETATM   19  C   UNL     1      -8.814  10.690  65.804  1.00  0.00    -0.198 C  
ENDBRANCH  17  18
ENDBRANCH  16  17
ENDBRANCH  15  16
ENDBRANCH  14  15
ENDBRANCH  13  14
ENDBRANCH  12  13
ENDBRANCH   9  12
ENDBRANCH   8   9
ENDBRANCH   7   8
ENDBRANCH   6   7
ENDBRANCH   5   6
ENDBRANCH   4   5
ENDBRANCH   3   4
ENDBRANCH   2   3
TORSDOF 14
ENDMDL
MODEL      185
REMARK 921   NORMALIZED FREE ENERGY PREDICTED BY IDOCK:   -2.84 KCAL/MOL
REMARK 922        TOTAL FREE ENERGY PREDICTED BY IDOCK:   -6.89 KCAL/MOL
REMARK 923 INTER-LIGAND FREE ENERGY PREDICTED BY IDOCK:   -5.11 KCAL/MOL
REMARK 924 INTRA-LIGAND FREE ENERGY PREDICTED BY IDOCK:   -1.78 KCAL/MOL
REMARK 927      BINDING AFFINITY PREDICTED BY RF-SCORE:    0.00 PKD
ROOT
HETATM    1  C   UNL     1     -12.583  12.548  65.139  1.00  0.00    -0.358 C  
HETATM    2  C   UNL     1     -12.023  13.457  64.056  1.00  0.00    -0.520 C  
ENDROOT
BRANCH   2   3
HETATM    3  C   UNL     1     -10.851  14.278  64.580  1.00  0.00    -0.305 C  
BRANCH   3   4
HETATM    4  C   UNL     1     -11.327  15.387  65.518  1.00  0.00    -0.164 C  
BRANCH   4   5
HETATM    5  C   UNL     1     -10.209  16.393  65.749  1.00  0.00    -0.370 C  
BRANCH   5   6
HETATM    6  C   UNL     1     -10.310  17.065  67.118  1.00  0.00    -0.305 C  
BRANCH   6   7
HETATM    7  C   UNL     1      -8.969  16.929  67.833  1.00  0.00    -0.225 C  
BRANCH   7   8
HETATM    8  C   UNL     1      -8.892  15.670  68.692  1.00  0.00    -0.201 C  
BRANCH   8   9
HETATM    9  N   UNL     1      -7.543  14.912  68.534  1.00  0.00    -0.114 N  
HETATM   10  C   UNL     1      -6.634  15.652  67.552  1.00  0.00    -0.182 C  
HETATM   11  C   UNL     1      -6.848  14.788  69.891  1.00  0.00    -0.158 C  
BRANCH   9  12
HETATM   12  C   UNL     1      -7.897  13.503  67.982  1.00  0.00    -0.147 C  
BRANCH  12  13
HETATM   13  C   UNL     1      -9.386  13.337  67.694  1.00  0.00    -0.212 C  
BRANCH  13  14
HETATM   14  C   UNL     1      -9.979  12.107  68.375  1.00  0.00    -0.206 C  
BRANCH  14  15
HETATM   15  C   UNL     1     -11.470  12.347  68.613  1.00  0.00    -0.348 C  
BRANCH  15  16
HETATM   16  C   UNL     1     -11.818  13.829  68.633  1.00  0.00    -0.409 C  
BRANCH  16  17
HETATM   17  C   UNL     1     -12.332  14.231  70.014  1.00  0.00    -0.403 C  
BRANCH  17  18
HETATM   18  C   UNL     1     -13.157  13.115  70.645  1.00  0.00     0.137 C  
HETATM   19  C   UNL     1     -13.312  13.328  72.142  1.00  0.00    -0.618 C  
ENDBRANCH  17  18
ENDBRANCH  16  17
ENDBRANCH  15  16
ENDBRANCH  14  15
ENDBRANCH  13  14
ENDBRANCH  12  13
ENDBRANCH   9  12
ENDBRANCH   8   9
ENDBRANCH   7   8
ENDBRANCH   6   7
ENDBRANCH   5   6
ENDBRANCH   4   5
ENDBRANCH   3   4
ENDBRANCH   2   3
TORSDOF 14
ENDMDL
MODEL      186
REMARK 921   NORMALIZED FREE ENERGY PREDICTED BY IDOCK:   -2.83 KCAL/MOL
REMARK 922        TOTAL FREE ENERGY PREDICTED BY IDOCK:   -6.89 KCAL/MOL
REMARK 923 INTER-LIGAND FREE ENERGY PREDICTED BY IDOCK:   -5.74 KCAL/MOL
REMARK 924 INTRA-LIGAND FREE ENERGY PREDICTED BY IDOCK:   -1.15 KCAL/MOL
REMARK 927      BINDING AFFINITY PREDICTED BY RF-SCORE:    0.00 PKD
ROOT
HETATM    1  C   UNL     1      -9.992   7.830  70.982  1.00  0.00    -0.191 C  
HETATM    2  C   UNL     1     -10.859   6.582  70.958  1.00  0.00    -0.301 C  
ENDROOT
BRANCH   2   3
HETATM    3  C   UNL     1     -11.316   6.258  69.541  1.00  0.00    -0.475 C  
BRANCH   3   4
HETATM    4  C   UNL     1     -10.263   5.440  68.793  1.00  0.00    -0.252 C  
BRANCH   4   5
HETATM    5  C   UNL     1      -9.697   6.249  67.635  1.00  0.00    -0.126 C  
BRANCH   5   6
HETATM    6  C   UNL     1     -10.776   7.049  66.905  1.00  0.00    -0.376 C  
BRANCH   6   7
HETATM    7  C   UNL     1     -10.495   8.537  67.091  1.00  0.00    -0.370 C  
BRANCH   7   8
HETATM    8  C   UNL     1      -9.349   9.027  66.212  1.00  0.00    -0.225 C  
BRANCH   8   9
HETATM    9  N   UNL     1      -8.817  10.426  66.636  1.00  0.00    -0.133 N  
HETATM   10  C   UNL     1      -9.031  10.639  68.135  1.00  0.00    -0.141 C  
HETATM   11  C   UNL     1      -7.329  10.546  66.302  1.00  0.00    -0.133 C  
BRANCH   9  12
HETATM   12  C   UNL     1      -9.635  11.468  65.822  1.00  0.00    -0.235 C  
BRANCH  12  13
HETATM   13  C   UNL     1      -9.333  11.420  64.328  1.00  0.00    -0.081 C  
BRANCH  13  14
HETATM   14  C   UNL     1     -10.595  11.262  63.482  1.00  0.00    -0.436 C  
BRANCH  14  15
HETATM   15  C   UNL     1     -11.771  11.882  64.235  1.00  0.00    -0.388 C  
BRANCH  15  16
HETATM   16  C   UNL     1     -12.282  13.149  63.562  1.00  0.00    -0.552 C  
BRANCH  16  17
HETATM   17  C   UNL     1     -12.340  14.295  64.571  1.00  0.00    -0.432 C  
BRANCH  17  18
HETATM   18  C   UNL     1     -12.490  13.772  65.995  1.00  0.00    -0.491 C  
HETATM   19  C   UNL     1     -11.623  14.561  66.963  1.00  0.00    -0.402 C  
ENDBRANCH  17  18
ENDBRANCH  16  17
ENDBRANCH  15  16
ENDBRANCH  14  15
ENDBRANCH  13  14
ENDBRANCH  12  13
ENDBRANCH   9  12
ENDBRANCH   8   9
ENDBRANCH   7   8
ENDBRANCH   6   7
ENDBRANCH   5   6
ENDBRANCH   4   5
ENDBRANCH   3   4
ENDBRANCH   2   3
TORSDOF 14
ENDMDL
MODEL      187
REMARK 921   NORMALIZED FREE ENERGY PREDICTED BY IDOCK:   -2.83 KCAL/MOL
REMARK 922        TOTAL FREE ENERGY PREDICTED BY IDOCK:   -6.89 KCAL/MOL
REMARK 923 INTER-LIGAND FREE ENERGY PREDICTED BY IDOCK:   -5.51 KCAL/MOL
REMARK 924 INTRA-LIGAND FREE ENERGY PREDICTED BY IDOCK:   -1.37 KCAL/MOL
REMARK 927      BINDING AFFINITY PREDICTED BY RF-SCORE:    0.00 PKD
ROOT
HETATM    1  C   UNL     1      -9.002  19.910  66.823  1.00  0.00    -0.444 C  
HETATM    2  C   UNL     1      -8.536  18.539  67.288  1.00  0.00    -0.268 C  
ENDROOT
BRANCH   2   3
HETATM    3  C   UNL     1      -8.108  17.675  66.109  1.00  0.00    -0.228 C  
BRANCH   3   4
HETATM    4  C   UNL     1      -8.877  16.355  66.081  1.00  0.00    -0.349 C  
BRANCH   4   5
HETATM    5  C   UNL     1      -9.809  16.266  67.280  1.00  0.00    -0.243 C  
BRANCH   5   6
HETATM    6  C   UNL     1      -9.615  14.971  68.069  1.00  0.00    -0.208 C  
BRANCH   6   7
HETATM    7  C   UNL     1      -9.561  13.802  67.090  1.00  0.00    -0.244 C  
BRANCH   7   8
HETATM    8  C   UNL     1      -8.368  12.885  67.343  1.00  0.00    -0.190 C  
BRANCH   8   9
HETATM    9  N   UNL     1      -8.636  11.413  66.915  1.00  0.00    -0.149 N  
HETATM   10  C   UNL     1      -9.497  11.380  65.652  1.00  0.00    -0.230 C  
HETATM   11  C   UNL     1      -7.312  10.691  66.659  1.00  0.00    -0.129 C  
BRANCH   9  12
HETATM   12  C   UNL     1      -9.391  10.746  68.099  1.00  0.00    -0.155 C  
BRANCH  12  13
HETATM   13  C   UNL     1     -10.800  10.299  67.725  1.00  0.00    -0.346 C  
BRANCH  13  14
HETATM   14  C   UNL     1     -11.878  11.076  68.478  1.00  0.00    -0.286 C  
BRANCH  14  15
HETATM   15  C   UNL     1     -11.640  10.918  69.979  1.00  0.00    -0.424 C  
BRANCH  15  16
HETATM   16  C   UNL     1     -12.291  12.033  70.786  1.00  0.00    -0.403 C  
BRANCH  16  17
HETATM   17  C   UNL     1     -12.054  13.381  70.108  1.00  0.00    -0.415 C  
BRANCH  17  18
HETATM   18  C   UNL     1     -12.992  14.450  70.658  1.00  0.00    -0.348 C  
HETATM   19  C   UNL     1     -12.269  15.775  70.837  1.00  0.00    -0.458 C  
ENDBRANCH  17  18
ENDBRANCH  16  17
ENDBRANCH  15  16
ENDBRANCH  14  15
ENDBRANCH  13  14
ENDBRANCH  12  13
ENDBRANCH   9  12
ENDBRANCH   8   9
ENDBRANCH   7   8
ENDBRANCH   6   7
ENDBRANCH   5   6
ENDBRANCH   4   5
ENDBRANCH   3   4
ENDBRANCH   2   3
TORSDOF 14
ENDMDL
MODEL      188
REMARK 921   NORMALIZED FREE ENERGY PREDICTED BY IDOCK:   -2.83 KCAL/MOL
REMARK 922        TOTAL FREE ENERGY PREDICTED BY IDOCK:   -6.89 KCAL/MOL
REMARK 923 INTER-LIGAND FREE ENERGY PREDICTED BY IDOCK:   -5.13 KCAL/MOL
REMARK 924 INTRA-LIGAND FREE ENERGY PREDICTED BY IDOCK:   -1.75 KCAL/MOL
REMARK 927      BINDING AFFINITY PREDICTED BY RF-SCORE:    0.00 PKD
ROOT
HETATM    1  C   UNL     1     -12.630  12.856  65.117  1.00  0.00    -0.536 C  
HETATM    2  C   UNL     1     -11.974  13.788  64.111  1.00  0.00    -0.473 C  
ENDROOT
BRANCH   2   3
HETATM    3  C   UNL     1     -10.725  14.436  64.697  1.00  0.00    -0.357 C  
BRANCH   3   4
HETATM    4  C   UNL     1     -11.057  15.248  65.949  1.00  0.00    -0.287 C  
BRANCH   4   5
HETATM    5  C   UNL     1     -10.149  16.466  66.040  1.00  0.00    -0.373 C  
BRANCH   5   6
HETATM    6  C   UNL     1     -10.454  17.323  67.268  1.00  0.00    -0.319 C  
BRANCH   6   7
HETATM    7  C   UNL     1      -9.141  17.861  67.830  1.00  0.00    -0.258 C  
BRANCH   7   8
HETATM    8  C   UNL     1      -8.448  16.860  68.750  1.00  0.00    -0.244 C  
BRANCH   8   9
HETATM    9  N   UNL     1      -6.938  16.682  68.422  1.00  0.00    -0.154 N  
HETATM   10  C   UNL     1      -6.633  17.231  67.029  1.00  0.00    -0.177 C  
HETATM   11  C   UNL     1      -6.084  17.407  69.463  1.00  0.00    -0.252 C  
BRANCH   9  12
HETATM   12  C   UNL     1      -6.659  15.153  68.471  1.00  0.00    -0.099 C  
BRANCH  12  13
HETATM   13  C   UNL     1      -7.572  14.355  67.546  1.00  0.00    -0.212 C  
BRANCH  13  14
HETATM   14  C   UNL     1      -8.052  13.052  68.182  1.00  0.00    -0.155 C  
BRANCH  14  15
HETATM   15  C   UNL     1      -9.389  12.662  67.554  1.00  0.00    -0.188 C  
BRANCH  15  16
HETATM   16  C   UNL     1      -9.797  11.238  67.906  1.00  0.00    -0.187 C  
BRANCH  16  17
HETATM   17  C   UNL     1      -9.182  10.253  66.914  1.00  0.00    -0.171 C  
BRANCH  17  18
HETATM   18  C   UNL     1     -10.154   9.921  65.787  1.00  0.00    -0.317 C  
HETATM   19  C   UNL     1      -9.642  10.435  64.452  1.00  0.00    -0.375 C  
ENDBRANCH  17  18
ENDBRANCH  16  17
ENDBRANCH  15  16
ENDBRANCH  14  15
ENDBRANCH  13  14
ENDBRANCH  12  13
ENDBRANCH   9  12
ENDBRANCH   8   9
ENDBRANCH   7   8
ENDBRANCH   6   7
ENDBRANCH   5   6
ENDBRANCH   4   5
ENDBRANCH   3   4
ENDBRANCH   2   3
TORSDOF 14
ENDMDL
MODEL      189
REMARK 921   NORMALIZED FREE ENERGY PREDICTED BY IDOCK:   -2.82 KCAL/MOL
REMARK 922        TOTAL FREE ENERGY PREDICTED BY IDOCK:   -6.87 KCAL/MOL
REMARK 923 INTER-LIGAND FREE ENERGY PREDICTED BY IDOCK:   -5.50 KCAL/MOL
REMARK 924 INTRA-LIGAND FREE ENERGY PREDICTED BY IDOCK:   -1.37 KCAL/MOL
REMARK 927      BINDING AFFINITY PREDICTED BY RF-SCORE:    0.00 PKD
ROOT
HETATM    1  C   UNL     1     -11.357  15.361  69.859  1.00  0.00    -0.318 C  
HETATM    2  C   UNL     1     -11.434  15.995  68.479  1.00  0.00    -0.357 C  
ENDROOT
BRANCH   2   3
HETATM    3  C   UNL     1     -10.523  17.213  68.383  1.00  0.00    -0.376 C  
BRANCH   3   4
HETATM    4  C   UNL     1      -9.466  17.029  67.294  1.00  0.00    -0.240 C  
BRANCH   4   5
HETATM    5  C   UNL     1      -8.099  16.800  67.924  1.00  0.00    -0.189 C  
BRANCH   5   6
HETATM    6  C   UNL     1      -7.433  15.524  67.410  1.00  0.00    -0.235 C  
BRANCH   6   7
HETATM    7  C   UNL     1      -8.070  14.323  68.103  1.00  0.00    -0.144 C  
BRANCH   7   8
HETATM    8  C   UNL     1      -7.598  12.995  67.519  1.00  0.00    -0.165 C  
BRANCH   8   9
HETATM    9  N   UNL     1      -8.597  11.831  67.778  1.00  0.00    -0.145 N  
HETATM   10  C   UNL     1      -8.815  11.028  66.496  1.00  0.00    -0.169 C  
HETATM   11  C   UNL     1      -8.062  10.915  68.880  1.00  0.00    -0.144 C  
BRANCH   9  12
HETATM   12  C   UNL     1      -9.928  12.493  68.232  1.00  0.00    -0.229 C  
BRANCH  12  13
HETATM   13  C   UNL     1     -11.144  11.944  67.491  1.00  0.00    -0.332 C  
BRANCH  13  14
HETATM   14  C   UNL     1     -12.160  11.303  68.432  1.00  0.00    -0.110 C  
BRANCH  14  15
HETATM   15  C   UNL     1     -11.691  11.503  69.872  1.00  0.00    -0.420 C  
BRANCH  15  16
HETATM   16  C   UNL     1     -12.508  10.684  70.863  1.00  0.00    -0.495 C  
BRANCH  16  17
HETATM   17  C   UNL     1     -11.661   9.548  71.433  1.00  0.00    -0.465 C  
BRANCH  17  18
HETATM   18  C   UNL     1     -12.514   8.568  72.231  1.00  0.00    -0.448 C  
HETATM   19  C   UNL     1     -13.956   9.040  72.316  1.00  0.00    -0.522 C  
ENDBRANCH  17  18
ENDBRANCH  16  17
ENDBRANCH  15  16
ENDBRANCH  14  15
ENDBRANCH  13  14
ENDBRANCH  12  13
ENDBRANCH   9  12
ENDBRANCH   8   9
ENDBRANCH   7   8
ENDBRANCH   6   7
ENDBRANCH   5   6
ENDBRANCH   4   5
ENDBRANCH   3   4
ENDBRANCH   2   3
TORSDOF 14
ENDMDL
MODEL      190
REMARK 921   NORMALIZED FREE ENERGY PREDICTED BY IDOCK:   -2.82 KCAL/MOL
REMARK 922        TOTAL FREE ENERGY PREDICTED BY IDOCK:   -6.86 KCAL/MOL
REMARK 923 INTER-LIGAND FREE ENERGY PREDICTED BY IDOCK:   -5.83 KCAL/MOL
REMARK 924 INTRA-LIGAND FREE ENERGY PREDICTED BY IDOCK:   -1.04 KCAL/MOL
REMARK 927      BINDING AFFINITY PREDICTED BY RF-SCORE:    0.00 PKD
ROOT
HETATM    1  C   UNL     1      -7.668  20.214  66.676  1.00  0.00    -0.331 C  
HETATM    2  C   UNL     1      -6.715  20.720  67.747  1.00  0.00    -0.381 C  
ENDROOT
BRANCH   2   3
HETATM    3  C   UNL     1      -5.426  19.906  67.765  1.00  0.00    -0.206 C  
BRANCH   3   4
HETATM    4  C   UNL     1      -5.687  18.447  67.391  1.00  0.00    -0.145 C  
BRANCH   4   5
HETATM    5  C   UNL     1      -5.600  17.566  68.628  1.00  0.00    -0.158 C  
BRANCH   5   6
HETATM    6  C   UNL     1      -6.976  17.265  69.222  1.00  0.00    -0.178 C  
BRANCH   6   7
HETATM    7  C   UNL     1      -7.906  16.812  68.101  1.00  0.00    -0.182 C  
BRANCH   7   8
HETATM    8  C   UNL     1      -9.029  15.910  68.605  1.00  0.00    -0.203 C  
BRANCH   8   9
HETATM    9  N   UNL     1     -10.434  16.359  68.108  1.00  0.00    -0.289 N  
HETATM   10  C   UNL     1     -11.514  15.877  69.076  1.00  0.00    -0.380 C  
HETATM   11  C   UNL     1     -10.487  17.882  67.989  1.00  0.00    -0.382 C  
BRANCH   9  12
HETATM   12  C   UNL     1     -10.631  15.704  66.712  1.00  0.00    -0.307 C  
BRANCH  12  13
HETATM   13  C   UNL     1     -11.405  14.392  66.778  1.00  0.00    -0.360 C  
BRANCH  13  14
HETATM   14  C   UNL     1     -10.607  13.215  66.222  1.00  0.00    -0.292 C  
BRANCH  14  15
HETATM   15  C   UNL     1     -10.748  12.030  67.176  1.00  0.00    -0.277 C  
BRANCH  15  16
HETATM   16  C   UNL     1     -11.770  12.293  68.274  1.00  0.00    -0.392 C  
BRANCH  16  17
HETATM   17  C   UNL     1     -11.947  11.046  69.139  1.00  0.00    -0.394 C  
BRANCH  17  18
HETATM   18  C   UNL     1     -12.384  11.411  70.553  1.00  0.00    -0.439 C  
HETATM   19  C   UNL     1     -12.701  10.167  71.367  1.00  0.00    -0.530 C  
ENDBRANCH  17  18
ENDBRANCH  16  17
ENDBRANCH  15  16
ENDBRANCH  14  15
ENDBRANCH  13  14
ENDBRANCH  12  13
ENDBRANCH   9  12
ENDBRANCH   8   9
ENDBRANCH   7   8
ENDBRANCH   6   7
ENDBRANCH   5   6
ENDBRANCH   4   5
ENDBRANCH   3   4
ENDBRANCH   2   3
TORSDOF 14
ENDMDL
MODEL      191
REMARK 921   NORMALIZED FREE ENERGY PREDICTED BY IDOCK:   -2.82 KCAL/MOL
REMARK 922        TOTAL FREE ENERGY PREDICTED BY IDOCK:   -6.86 KCAL/MOL
REMARK 923 INTER-LIGAND FREE ENERGY PREDICTED BY IDOCK:   -5.97 KCAL/MOL
REMARK 924 INTRA-LIGAND FREE ENERGY PREDICTED BY IDOCK:   -0.89 KCAL/MOL
REMARK 927      BINDING AFFINITY PREDICTED BY RF-SCORE:    0.00 PKD
ROOT
HETATM    1  C   UNL     1      -7.443  19.471  68.404  1.00  0.00    -0.359 C  
HETATM    2  C   UNL     1      -8.048  20.325  67.301  1.00  0.00    -0.381 C  
ENDROOT
BRANCH   2   3
HETATM    3  C   UNL     1      -9.567  20.378  67.419  1.00  0.00    -0.584 C  
BRANCH   3   4
HETATM    4  C   UNL     1     -10.237  19.544  66.328  1.00  0.00    -0.582 C  
BRANCH   4   5
HETATM    5  C   UNL     1     -10.634  18.182  66.879  1.00  0.00    -0.326 C  
BRANCH   5   6
HETATM    6  C   UNL     1      -9.624  17.094  66.514  1.00  0.00    -0.294 C  
BRANCH   6   7
HETATM    7  C   UNL     1     -10.375  15.907  65.918  1.00  0.00    -0.383 C  
BRANCH   7   8
HETATM    8  C   UNL     1     -11.192  15.151  66.962  1.00  0.00    -0.308 C  
BRANCH   8   9
HETATM    9  N   UNL     1     -11.345  13.639  66.630  1.00  0.00    -0.316 N  
HETATM   10  C   UNL     1     -11.919  12.891  67.834  1.00  0.00    -0.282 C  
HETATM   11  C   UNL     1     -12.263  13.456  65.421  1.00  0.00    -0.452 C  
BRANCH   9  12
HETATM   12  C   UNL     1      -9.917  13.118  66.304  1.00  0.00    -0.285 C  
BRANCH  12  13
HETATM   13  C   UNL     1      -9.668  11.707  66.828  1.00  0.00    -0.220 C  
BRANCH  13  14
HETATM   14  C   UNL     1      -8.444  11.054  66.189  1.00  0.00    -0.168 C  
BRANCH  14  15
HETATM   15  C   UNL     1      -8.913   9.953  65.239  1.00  0.00    -0.228 C  
BRANCH  15  16
HETATM   16  C   UNL     1      -9.754   8.901  65.948  1.00  0.00    -0.259 C  
BRANCH  16  17
HETATM   17  C   UNL     1      -8.899   7.681  66.285  1.00  0.00    -0.182 C  
BRANCH  17  18
HETATM   18  C   UNL     1      -9.186   7.176  67.694  1.00  0.00    -0.127 C  
HETATM   19  C   UNL     1     -10.345   7.931  68.322  1.00  0.00    -0.239 C  
ENDBRANCH  17  18
ENDBRANCH  16  17
ENDBRANCH  15  16
ENDBRANCH  14  15
ENDBRANCH  13  14
ENDBRANCH  12  13
ENDBRANCH   9  12
ENDBRANCH   8   9
ENDBRANCH   7   8
ENDBRANCH   6   7
ENDBRANCH   5   6
ENDBRANCH   4   5
ENDBRANCH   3   4
ENDBRANCH   2   3
TORSDOF 14
ENDMDL
MODEL      192
REMARK 921   NORMALIZED FREE ENERGY PREDICTED BY IDOCK:   -2.82 KCAL/MOL
REMARK 922        TOTAL FREE ENERGY PREDICTED BY IDOCK:   -6.85 KCAL/MOL
REMARK 923 INTER-LIGAND FREE ENERGY PREDICTED BY IDOCK:   -5.13 KCAL/MOL
REMARK 924 INTRA-LIGAND FREE ENERGY PREDICTED BY IDOCK:   -1.73 KCAL/MOL
REMARK 927      BINDING AFFINITY PREDICTED BY RF-SCORE:    0.00 PKD
ROOT
HETATM    1  C   UNL     1     -12.396  13.981  66.199  1.00  0.00    -0.491 C  
HETATM    2  C   UNL     1     -11.702  14.415  67.481  1.00  0.00    -0.416 C  
ENDROOT
BRANCH   2   3
HETATM    3  C   UNL     1     -11.798  13.334  68.551  1.00  0.00    -0.384 C  
BRANCH   3   4
HETATM    4  C   UNL     1     -11.906  11.944  67.925  1.00  0.00    -0.308 C  
BRANCH   4   5
HETATM    5  C   UNL     1     -11.639  10.875  68.975  1.00  0.00    -0.387 C  
BRANCH   5   6
HETATM    6  C   UNL     1     -12.151  11.281  70.357  1.00  0.00    -0.474 C  
BRANCH   6   7
HETATM    7  C   UNL     1     -11.851  10.155  71.342  1.00  0.00    -0.414 C  
BRANCH   7   8
HETATM    8  C   UNL     1     -11.484   8.850  70.641  1.00  0.00    -0.242 C  
BRANCH   8   9
HETATM    9  N   UNL     1     -10.665   7.887  71.547  1.00  0.00    -0.224 N  
HETATM   10  C   UNL     1     -11.360   7.714  72.897  1.00  0.00    -0.341 C  
HETATM   11  C   UNL     1     -10.512   6.526  70.865  1.00  0.00    -0.223 C  
BRANCH   9  12
HETATM   12  C   UNL     1      -9.272   8.549  71.739  1.00  0.00    -0.246 C  
BRANCH  12  13
HETATM   13  C   UNL     1      -8.388   8.438  70.501  1.00  0.00    -0.126 C  
BRANCH  13  14
HETATM   14  C   UNL     1      -7.996   9.803  69.939  1.00  0.00    -0.184 C  
BRANCH  14  15
HETATM   15  C   UNL     1      -7.515   9.623  68.500  1.00  0.00    -0.079 C  
BRANCH  15  16
HETATM   16  C   UNL     1      -8.571  10.038  67.484  1.00  0.00    -0.122 C  
BRANCH  16  17
HETATM   17  C   UNL     1      -8.170  11.351  66.814  1.00  0.00    -0.160 C  
BRANCH  17  18
HETATM   18  C   UNL     1      -8.386  12.538  67.747  1.00  0.00    -0.170 C  
HETATM   19  C   UNL     1      -7.426  13.671  67.424  1.00  0.00    -0.139 C  
ENDBRANCH  17  18
ENDBRANCH  16  17
ENDBRANCH  15  16
ENDBRANCH  14  15
ENDBRANCH  13  14
ENDBRANCH  12  13
ENDBRANCH   9  12
ENDBRANCH   8   9
ENDBRANCH   7   8
ENDBRANCH   6   7
ENDBRANCH   5   6
ENDBRANCH   4   5
ENDBRANCH   3   4
ENDBRANCH   2   3
TORSDOF 14
ENDMDL
MODEL      193
REMARK 921   NORMALIZED FREE ENERGY PREDICTED BY IDOCK:   -2.81 KCAL/MOL
REMARK 922        TOTAL FREE ENERGY PREDICTED BY IDOCK:   -6.85 KCAL/MOL
REMARK 923 INTER-LIGAND FREE ENERGY PREDICTED BY IDOCK:   -5.83 KCAL/MOL
REMARK 924 INTRA-LIGAND FREE ENERGY PREDICTED BY IDOCK:   -1.02 KCAL/MOL
REMARK 927      BINDING AFFINITY PREDICTED BY RF-SCORE:    0.00 PKD
ROOT
HETATM    1  C   UNL     1     -13.136  15.488  70.837  1.00  0.00    -0.508 C  
HETATM    2  C   UNL     1     -14.244  15.156  71.824  1.00  0.00    -0.674 C  
ENDROOT
BRANCH   2   3
HETATM    3  C   UNL     1     -14.175  13.696  72.256  1.00  0.00    -0.521 C  
BRANCH   3   4
HETATM    4  C   UNL     1     -12.887  13.034  71.769  1.00  0.00    -0.351 C  
BRANCH   4   5
HETATM    5  C   UNL     1     -13.035  11.520  71.790  1.00  0.00    -0.500 C  
BRANCH   5   6
HETATM    6  C   UNL     1     -12.245  10.846  70.668  1.00  0.00    -0.472 C  
BRANCH   6   7
HETATM    7  C   UNL     1     -11.872  11.898  69.629  1.00  0.00    -0.406 C  
BRANCH   7   8
HETATM    8  C   UNL     1     -12.036  11.388  68.200  1.00  0.00    -0.130 C  
BRANCH   8   9
HETATM    9  N   UNL     1     -11.073  12.085  67.196  1.00  0.00    -0.272 N  
HETATM   10  C   UNL     1     -11.868  12.706  66.048  1.00  0.00    -0.436 C  
HETATM   11  C   UNL     1     -10.262  13.167  67.910  1.00  0.00    -0.233 C  
BRANCH   9  12
HETATM   12  C   UNL     1     -10.128  10.975  66.657  1.00  0.00    -0.220 C  
BRANCH  12  13
HETATM   13  C   UNL     1     -10.447   9.597  67.228  1.00  0.00    -0.323 C  
BRANCH  13  14
HETATM   14  C   UNL     1      -9.246   8.655  67.187  1.00  0.00    -0.175 C  
BRANCH  14  15
HETATM   15  C   UNL     1      -9.490   7.593  66.116  1.00  0.00    -0.117 C  
BRANCH  15  16
HETATM   16  C   UNL     1      -8.201   6.911  65.677  1.00  0.00    -0.134 C  
BRANCH  16  17
HETATM   17  C   UNL     1      -7.346   7.876  64.859  1.00  0.00    -0.073 C  
BRANCH  17  18
HETATM   18  C   UNL     1      -8.201   8.701  63.903  1.00  0.00    -0.147 C  
HETATM   19  C   UNL     1      -7.589  10.071  63.664  1.00  0.00    -0.143 C  
ENDBRANCH  17  18
ENDBRANCH  16  17
ENDBRANCH  15  16
ENDBRANCH  14  15
ENDBRANCH  13  14
ENDBRANCH  12  13
ENDBRANCH   9  12
ENDBRANCH   8   9
ENDBRANCH   7   8
ENDBRANCH   6   7
ENDBRANCH   5   6
ENDBRANCH   4   5
ENDBRANCH   3   4
ENDBRANCH   2   3
TORSDOF 14
ENDMDL
MODEL      194
REMARK 921   NORMALIZED FREE ENERGY PREDICTED BY IDOCK:   -2.81 KCAL/MOL
REMARK 922        TOTAL FREE ENERGY PREDICTED BY IDOCK:   -6.85 KCAL/MOL
REMARK 923 INTER-LIGAND FREE ENERGY PREDICTED BY IDOCK:   -5.75 KCAL/MOL
REMARK 924 INTRA-LIGAND FREE ENERGY PREDICTED BY IDOCK:   -1.10 KCAL/MOL
REMARK 927      BINDING AFFINITY PREDICTED BY RF-SCORE:    0.00 PKD
ROOT
HETATM    1  C   UNL     1     -10.762   7.418  66.961  1.00  0.00    -0.389 C  
HETATM    2  C   UNL     1      -9.452   8.021  66.478  1.00  0.00    -0.278 C  
ENDROOT
BRANCH   2   3
HETATM    3  C   UNL     1      -8.447   8.133  67.618  1.00  0.00    -0.131 C  
BRANCH   3   4
HETATM    4  C   UNL     1      -8.601   9.457  68.365  1.00  0.00    -0.124 C  
BRANCH   4   5
HETATM    5  C   UNL     1      -8.467  10.624  67.397  1.00  0.00    -0.122 C  
BRANCH   5   6
HETATM    6  C   UNL     1      -9.509  11.712  67.656  1.00  0.00    -0.177 C  
BRANCH   6   7
HETATM    7  C   UNL     1     -10.270  11.981  66.361  1.00  0.00    -0.243 C  
BRANCH   7   8
HETATM    8  C   UNL     1      -9.982  13.368  65.794  1.00  0.00    -0.252 C  
BRANCH   8   9
HETATM    9  N   UNL     1     -11.241  14.281  65.761  1.00  0.00    -0.312 N  
HETATM   10  C   UNL     1     -11.795  14.364  64.338  1.00  0.00    -0.415 C  
HETATM   11  C   UNL     1     -12.314  13.732  66.703  1.00  0.00    -0.357 C  
BRANCH   9  12
HETATM   12  C   UNL     1     -10.775  15.685  66.240  1.00  0.00    -0.295 C  
BRANCH  12  13
HETATM   13  C   UNL     1      -9.344  15.684  66.770  1.00  0.00    -0.268 C  
BRANCH  13  14
HETATM   14  C   UNL     1      -9.272  16.028  68.255  1.00  0.00    -0.191 C  
BRANCH  14  15
HETATM   15  C   UNL     1     -10.690  16.266  68.774  1.00  0.00    -0.309 C  
BRANCH  15  16
HETATM   16  C   UNL     1     -10.937  15.579  70.110  1.00  0.00    -0.336 C  
BRANCH  16  17
HETATM   17  C   UNL     1     -12.436  15.400  70.342  1.00  0.00    -0.447 C  
BRANCH  17  18
HETATM   18  C   UNL     1     -12.788  15.529  71.820  1.00  0.00    -0.512 C  
HETATM   19  C   UNL     1     -13.959  14.632  72.185  1.00  0.00    -0.591 C  
ENDBRANCH  17  18
ENDBRANCH  16  17
ENDBRANCH  15  16
ENDBRANCH  14  15
ENDBRANCH  13  14
ENDBRANCH  12  13
ENDBRANCH   9  12
ENDBRANCH   8   9
ENDBRANCH   7   8
ENDBRANCH   6   7
ENDBRANCH   5   6
ENDBRANCH   4   5
ENDBRANCH   3   4
ENDBRANCH   2   3
TORSDOF 14
ENDMDL
MODEL      195
REMARK 921   NORMALIZED FREE ENERGY PREDICTED BY IDOCK:   -2.81 KCAL/MOL
REMARK 922        TOTAL FREE ENERGY PREDICTED BY IDOCK:   -6.85 KCAL/MOL
REMARK 923 INTER-LIGAND FREE ENERGY PREDICTED BY IDOCK:   -5.14 KCAL/MOL
REMARK 924 INTRA-LIGAND FREE ENERGY PREDICTED BY IDOCK:   -1.71 KCAL/MOL
REMARK 927      BINDING AFFINITY PREDICTED BY RF-SCORE:    0.00 PKD
ROOT
HETATM    1  C   UNL     1     -10.372   5.553  71.356  1.00  0.00    -0.291 C  
HETATM    2  C   UNL     1      -9.424   6.598  70.788  1.00  0.00    -0.173 C  
ENDROOT
BRANCH   2   3
HETATM    3  C   UNL     1     -10.146   7.918  70.544  1.00  0.00    -0.192 C  
BRANCH   3   4
HETATM    4  C   UNL     1     -11.606   7.842  70.989  1.00  0.00    -0.299 C  
BRANCH   4   5
HETATM    5  C   UNL     1     -12.265   9.207  70.858  1.00  0.00    -0.239 C  
BRANCH   5   6
HETATM    6  C   UNL     1     -11.259  10.305  70.511  1.00  0.00    -0.408 C  
BRANCH   6   7
HETATM    7  C   UNL     1     -12.023  11.559  70.098  1.00  0.00    -0.452 C  
BRANCH   7   8
HETATM    8  C   UNL     1     -12.055  11.750  68.585  1.00  0.00    -0.102 C  
BRANCH   8   9
HETATM    9  N   UNL     1     -11.466  13.117  68.135  1.00  0.00    -0.292 N  
HETATM   10  C   UNL     1     -12.255  13.667  66.947  1.00  0.00    -0.352 C  
HETATM   11  C   UNL     1     -11.510  14.115  69.294  1.00  0.00    -0.292 C  
BRANCH   9  12
HETATM   12  C   UNL     1      -9.993  12.842  67.722  1.00  0.00    -0.230 C  
BRANCH  12  13
HETATM   13  C   UNL     1      -9.729  11.372  67.414  1.00  0.00    -0.196 C  
BRANCH  13  14
HETATM   14  C   UNL     1      -9.643  11.096  65.914  1.00  0.00    -0.250 C  
BRANCH  14  15
HETATM   15  C   UNL     1      -9.533   9.588  65.697  1.00  0.00    -0.326 C  
BRANCH  15  16
HETATM   16  C   UNL     1     -10.009   8.795  66.907  1.00  0.00    -0.327 C  
BRANCH  16  17
HETATM   17  C   UNL     1      -8.990   7.714  67.263  1.00  0.00    -0.134 C  
BRANCH  17  18
HETATM   18  C   UNL     1      -9.425   6.349  66.740  1.00  0.00    -0.176 C  
HETATM   19  C   UNL     1     -10.829   6.005  67.209  1.00  0.00    -0.403 C  
ENDBRANCH  17  18
ENDBRANCH  16  17
ENDBRANCH  15  16
ENDBRANCH  14  15
ENDBRANCH  13  14
ENDBRANCH  12  13
ENDBRANCH   9  12
ENDBRANCH   8   9
ENDBRANCH   7   8
ENDBRANCH   6   7
ENDBRANCH   5   6
ENDBRANCH   4   5
ENDBRANCH   3   4
ENDBRANCH   2   3
TORSDOF 14
ENDMDL
MODEL      196
REMARK 921   NORMALIZED FREE ENERGY PREDICTED BY IDOCK:   -2.81 KCAL/MOL
REMARK 922        TOTAL FREE ENERGY PREDICTED BY IDOCK:   -6.84 KCAL/MOL
REMARK 923 INTER-LIGAND FREE ENERGY PREDICTED BY IDOCK:   -5.38 KCAL/MOL
REMARK 924 INTRA-LIGAND FREE ENERGY PREDICTED BY IDOCK:   -1.47 KCAL/MOL
REMARK 927      BINDING AFFINITY PREDICTED BY RF-SCORE:    0.00 PKD
ROOT
HETATM    1  C   UNL     1     -11.982  13.348  66.357  1.00  0.00    -0.457 C  
HETATM    2  C   UNL     1     -11.482  13.533  67.781  1.00  0.00    -0.349 C  
ENDROOT
BRANCH   2   3
HETATM    3  C   UNL     1     -10.766  12.284  68.278  1.00  0.00    -0.244 C  
BRANCH   3   4
HETATM    4  C   UNL     1     -11.224  11.041  67.515  1.00  0.00    -0.372 C  
BRANCH   4   5
HETATM    5  C   UNL     1     -10.423   9.827  67.961  1.00  0.00    -0.271 C  
BRANCH   5   6
HETATM    6  C   UNL     1     -10.473   8.693  66.937  1.00  0.00    -0.329 C  
BRANCH   6   7
HETATM    7  C   UNL     1      -9.237   7.817  67.113  1.00  0.00    -0.174 C  
BRANCH   7   8
HETATM    8  C   UNL     1      -8.421   8.201  68.344  1.00  0.00    -0.126 C  
BRANCH   8   9
HETATM    9  N   UNL     1      -8.064   6.980  69.238  1.00  0.00    -0.119 N  
HETATM   10  C   UNL     1      -7.254   5.960  68.438  1.00  0.00    -0.083 C  
HETATM   11  C   UNL     1      -7.261   7.437  70.457  1.00  0.00    -0.065 C  
BRANCH   9  12
HETATM   12  C   UNL     1      -9.416   6.359  69.689  1.00  0.00    -0.147 C  
BRANCH  12  13
HETATM   13  C   UNL     1      -9.647   6.474  71.193  1.00  0.00    -0.181 C  
BRANCH  13  14
HETATM   14  C   UNL     1     -11.129   6.572  71.549  1.00  0.00    -0.310 C  
BRANCH  14  15
HETATM   15  C   UNL     1     -11.307   7.647  72.621  1.00  0.00    -0.423 C  
BRANCH  15  16
HETATM   16  C   UNL     1     -12.398   8.645  72.260  1.00  0.00    -0.449 C  
BRANCH  16  17
HETATM   17  C   UNL     1     -11.811   9.798  71.448  1.00  0.00    -0.488 C  
BRANCH  17  18
HETATM   18  C   UNL     1     -12.904  10.736  70.948  1.00  0.00    -0.443 C  
HETATM   19  C   UNL     1     -12.710  12.142  71.491  1.00  0.00    -0.348 C  
ENDBRANCH  17  18
ENDBRANCH  16  17
ENDBRANCH  15  16
ENDBRANCH  14  15
ENDBRANCH  13  14
ENDBRANCH  12  13
ENDBRANCH   9  12
ENDBRANCH   8   9
ENDBRANCH   7   8
ENDBRANCH   6   7
ENDBRANCH   5   6
ENDBRANCH   4   5
ENDBRANCH   3   4
ENDBRANCH   2   3
TORSDOF 14
ENDMDL
MODEL      197
REMARK 921   NORMALIZED FREE ENERGY PREDICTED BY IDOCK:   -2.81 KCAL/MOL
REMARK 922        TOTAL FREE ENERGY PREDICTED BY IDOCK:   -6.84 KCAL/MOL
REMARK 923 INTER-LIGAND FREE ENERGY PREDICTED BY IDOCK:   -5.71 KCAL/MOL
REMARK 924 INTRA-LIGAND FREE ENERGY PREDICTED BY IDOCK:   -1.13 KCAL/MOL
REMARK 927      BINDING AFFINITY PREDICTED BY RF-SCORE:    0.00 PKD
ROOT
HETATM    1  C   UNL     1     -10.846   6.103  67.306  1.00  0.00    -0.438 C  
HETATM    2  C   UNL     1     -11.215   6.366  68.757  1.00  0.00    -0.358 C  
ENDROOT
BRANCH   2   3
HETATM    3  C   UNL     1     -10.566   5.344  69.683  1.00  0.00    -0.328 C  
BRANCH   3   4
HETATM    4  C   UNL     1     -10.770   5.718  71.151  1.00  0.00    -0.327 C  
BRANCH   4   5
HETATM    5  C   UNL     1     -11.715   6.905  71.263  1.00  0.00    -0.371 C  
BRANCH   5   6
HETATM    6  C   UNL     1     -11.127   8.034  72.110  1.00  0.00    -0.372 C  
BRANCH   6   7
HETATM    7  C   UNL     1     -10.400   9.010  71.190  1.00  0.00    -0.362 C  
BRANCH   7   8
HETATM    8  C   UNL     1      -8.886   8.823  71.223  1.00  0.00    -0.226 C  
BRANCH   8   9
HETATM    9  N   UNL     1      -8.217   9.063  69.839  1.00  0.00    -0.114 N  
HETATM   10  C   UNL     1      -7.086  10.083  69.970  1.00  0.00    -0.146 C  
HETATM   11  C   UNL     1      -7.667   7.748  69.285  1.00  0.00    -0.100 C  
BRANCH   9  12
HETATM   12  C   UNL     1      -9.332   9.613  68.905  1.00  0.00    -0.151 C  
BRANCH  12  13
HETATM   13  C   UNL     1      -8.853  10.765  68.027  1.00  0.00    -0.132 C  
BRANCH  13  14
HETATM   14  C   UNL     1      -9.996  11.680  67.592  1.00  0.00    -0.201 C  
BRANCH  14  15
HETATM   15  C   UNL     1     -10.600  11.132  66.299  1.00  0.00    -0.309 C  
BRANCH  15  16
HETATM   16  C   UNL     1     -10.887  12.231  65.286  1.00  0.00    -0.332 C  
BRANCH  16  17
HETATM   17  C   UNL     1     -12.391  12.475  65.184  1.00  0.00    -0.496 C  
BRANCH  17  18
HETATM   18  C   UNL     1     -12.729  13.948  65.383  1.00  0.00    -0.525 C  
HETATM   19  C   UNL     1     -11.747  14.840  64.640  1.00  0.00    -0.426 C  
ENDBRANCH  17  18
ENDBRANCH  16  17
ENDBRANCH  15  16
ENDBRANCH  14  15
ENDBRANCH  13  14
ENDBRANCH  12  13
ENDBRANCH   9  12
ENDBRANCH   8   9
ENDBRANCH   7   8
ENDBRANCH   6   7
ENDBRANCH   5   6
ENDBRANCH   4   5
ENDBRANCH   3   4
ENDBRANCH   2   3
TORSDOF 14
ENDMDL
MODEL      198
REMARK 921   NORMALIZED FREE ENERGY PREDICTED BY IDOCK:   -2.81 KCAL/MOL
REMARK 922        TOTAL FREE ENERGY PREDICTED BY IDOCK:   -6.84 KCAL/MOL
REMARK 923 INTER-LIGAND FREE ENERGY PREDICTED BY IDOCK:   -5.63 KCAL/MOL
REMARK 924 INTRA-LIGAND FREE ENERGY PREDICTED BY IDOCK:   -1.21 KCAL/MOL
REMARK 927      BINDING AFFINITY PREDICTED BY RF-SCORE:    0.00 PKD
ROOT
HETATM    1  C   UNL     1      -9.678  20.176  67.243  1.00  0.00    -0.574 C  
HETATM    2  C   UNL     1      -8.861  19.056  67.866  1.00  0.00    -0.335 C  
ENDROOT
BRANCH   2   3
HETATM    3  C   UNL     1      -7.760  18.588  66.920  1.00  0.00    -0.241 C  
BRANCH   3   4
HETATM    4  C   UNL     1      -8.107  17.239  66.291  1.00  0.00    -0.315 C  
BRANCH   4   5
HETATM    5  C   UNL     1      -8.545  16.256  67.366  1.00  0.00    -0.194 C  
BRANCH   5   6
HETATM    6  C   UNL     1      -8.963  14.907  66.780  1.00  0.00    -0.295 C  
BRANCH   6   7
HETATM    7  C   UNL     1     -10.358  15.044  66.179  1.00  0.00    -0.310 C  
BRANCH   7   8
HETATM    8  C   UNL     1     -10.502  14.285  64.863  1.00  0.00    -0.430 C  
BRANCH   8   9
HETATM    9  N   UNL     1     -11.708  13.301  64.862  1.00  0.00    -0.329 N  
HETATM   10  C   UNL     1     -12.872  13.893  65.656  1.00  0.00    -0.424 C  
HETATM   11  C   UNL     1     -12.152  13.016  63.427  1.00  0.00    -0.515 C  
BRANCH   9  12
HETATM   12  C   UNL     1     -11.205  11.995  65.537  1.00  0.00    -0.321 C  
BRANCH  12  13
HETATM   13  C   UNL     1     -10.650  10.987  64.535  1.00  0.00    -0.383 C  
BRANCH  13  14
HETATM   14  C   UNL     1      -9.436  10.234  65.076  1.00  0.00    -0.314 C  
BRANCH  14  15
HETATM   15  C   UNL     1      -8.738  11.110  66.115  1.00  0.00    -0.188 C  
BRANCH  15  16
HETATM   16  C   UNL     1      -7.943  10.288  67.121  1.00  0.00    -0.114 C  
BRANCH  16  17
HETATM   17  C   UNL     1      -8.271  10.735  68.544  1.00  0.00    -0.136 C  
BRANCH  17  18
HETATM   18  C   UNL     1      -7.029  11.250  69.263  1.00  0.00    -0.119 C  
HETATM   19  C   UNL     1      -6.733  12.691  68.881  1.00  0.00    -0.098 C  
ENDBRANCH  17  18
ENDBRANCH  16  17
ENDBRANCH  15  16
ENDBRANCH  14  15
ENDBRANCH  13  14
ENDBRANCH  12  13
ENDBRANCH   9  12
ENDBRANCH   8   9
ENDBRANCH   7   8
ENDBRANCH   6   7
ENDBRANCH   5   6
ENDBRANCH   4   5
ENDBRANCH   3   4
ENDBRANCH   2   3
TORSDOF 14
ENDMDL
MODEL      199
REMARK 921   NORMALIZED FREE ENERGY PREDICTED BY IDOCK:   -2.80 KCAL/MOL
REMARK 922        TOTAL FREE ENERGY PREDICTED BY IDOCK:   -6.83 KCAL/MOL
REMARK 923 INTER-LIGAND FREE ENERGY PREDICTED BY IDOCK:   -5.66 KCAL/MOL
REMARK 924 INTRA-LIGAND FREE ENERGY PREDICTED BY IDOCK:   -1.17 KCAL/MOL
REMARK 927      BINDING AFFINITY PREDICTED BY RF-SCORE:    0.00 PKD
ROOT
HETATM    1  C   UNL     1      -9.851  11.582  63.133  1.00  0.00    -0.413 C  
HETATM    2  C   UNL     1     -11.219  11.313  63.737  1.00  0.00    -0.234 C  
ENDROOT
BRANCH   2   3
HETATM    3  C   UNL     1     -12.175  12.470  63.472  1.00  0.00    -0.652 C  
BRANCH   3   4
HETATM    4  C   UNL     1     -12.778  13.000  64.772  1.00  0.00    -0.409 C  
BRANCH   4   5
HETATM    5  C   UNL     1     -11.744  13.816  65.535  1.00  0.00    -0.356 C  
BRANCH   5   6
HETATM    6  C   UNL     1     -12.026  13.847  67.037  1.00  0.00    -0.459 C  
BRANCH   6   7
HETATM    7  C   UNL     1     -10.763  13.425  67.783  1.00  0.00    -0.259 C  
BRANCH   7   8
HETATM    8  C   UNL     1      -9.845  12.556  66.928  1.00  0.00    -0.227 C  
BRANCH   8   9
HETATM    9  N   UNL     1      -9.221  11.373  67.723  1.00  0.00    -0.155 N  
HETATM   10  C   UNL     1      -7.840  11.763  68.250  1.00  0.00    -0.137 C  
HETATM   11  C   UNL     1     -10.130  10.985  68.889  1.00  0.00    -0.199 C  
BRANCH   9  12
HETATM   12  C   UNL     1      -9.100  10.191  66.721  1.00  0.00    -0.139 C  
BRANCH  12  13
HETATM   13  C   UNL     1      -9.181   8.828  67.402  1.00  0.00    -0.158 C  
BRANCH  13  14
HETATM   14  C   UNL     1     -10.091   7.856  66.656  1.00  0.00    -0.310 C  
BRANCH  14  15
HETATM   15  C   UNL     1      -9.879   6.452  67.221  1.00  0.00    -0.169 C  
BRANCH  15  16
HETATM   16  C   UNL     1     -11.034   6.007  68.107  1.00  0.00    -0.340 C  
BRANCH  16  17
HETATM   17  C   UNL     1     -10.609   6.021  69.574  1.00  0.00    -0.363 C  
BRANCH  17  18
HETATM   18  C   UNL     1     -11.574   6.839  70.424  1.00  0.00    -0.422 C  
HETATM   19  C   UNL     1     -10.897   8.080  70.982  1.00  0.00    -0.259 C  
ENDBRANCH  17  18
ENDBRANCH  16  17
ENDBRANCH  15  16
ENDBRANCH  14  15
ENDBRANCH  13  14
ENDBRANCH  12  13
ENDBRANCH   9  12
ENDBRANCH   8   9
ENDBRANCH   7   8
ENDBRANCH   6   7
ENDBRANCH   5   6
ENDBRANCH   4   5
ENDBRANCH   3   4
ENDBRANCH   2   3
TORSDOF 14
ENDMDL
MODEL      200
REMARK 921   NORMALIZED FREE ENERGY PREDICTED BY IDOCK:   -2.80 KCAL/MOL
REMARK 922        TOTAL FREE ENERGY PREDICTED BY IDOCK:   -6.83 KCAL/MOL
REMARK 923 INTER-LIGAND FREE ENERGY PREDICTED BY IDOCK:   -5.88 KCAL/MOL
REMARK 924 INTRA-LIGAND FREE ENERGY PREDICTED BY IDOCK:   -0.94 KCAL/MOL
REMARK 927      BINDING AFFINITY PREDICTED BY RF-SCORE:    0.00 PKD
ROOT
HETATM    1  C   UNL     1     -13.003  15.491  70.968  1.00  0.00    -0.550 C  
HETATM    2  C   UNL     1     -14.188  15.205  71.877  1.00  0.00    -0.676 C  
ENDROOT
BRANCH   2   3
HETATM    3  C   UNL     1     -14.233  13.735  72.274  1.00  0.00    -0.563 C  
BRANCH   3   4
HETATM    4  C   UNL     1     -13.133  12.937  71.575  1.00  0.00    -0.390 C  
BRANCH   4   5
HETATM    5  C   UNL     1     -13.123  11.502  72.080  1.00  0.00    -0.430 C  
BRANCH   5   6
HETATM    6  C   UNL     1     -12.247  10.592  71.219  1.00  0.00    -0.447 C  
BRANCH   6   7
HETATM    7  C   UNL     1     -12.518   9.141  71.605  1.00  0.00    -0.434 C  
BRANCH   7   8
HETATM    8  C   UNL     1     -11.234   8.353  71.844  1.00  0.00    -0.311 C  
BRANCH   8   9
HETATM    9  N   UNL     1     -11.350   6.863  71.414  1.00  0.00    -0.258 N  
HETATM   10  C   UNL     1     -10.934   5.947  72.564  1.00  0.00    -0.264 C  
HETATM   11  C   UNL     1     -12.787   6.547  70.994  1.00  0.00     0.266 C  
BRANCH   9  12
HETATM   12  C   UNL     1     -10.388   6.682  70.206  1.00  0.00    -0.202 C  
BRANCH  12  13
HETATM   13  C   UNL     1     -10.246   5.225  69.775  1.00  0.00    -0.364 C  
BRANCH  13  14
HETATM   14  C   UNL     1      -9.254   5.049  68.629  1.00  0.00    -0.158 C  
BRANCH  14  15
HETATM   15  C   UNL     1      -9.950   5.408  67.316  1.00  0.00    -0.198 C  
BRANCH  15  16
HETATM   16  C   UNL     1      -9.071   6.262  66.413  1.00  0.00    -0.164 C  
BRANCH  16  17
HETATM   17  C   UNL     1      -9.130   7.725  66.848  1.00  0.00    -0.171 C  
BRANCH  17  18
HETATM   18  C   UNL     1     -10.563   8.246  66.846  1.00  0.00    -0.302 C  
HETATM   19  C   UNL     1     -10.740   9.365  67.859  1.00  0.00    -0.269 C  
ENDBRANCH  17  18
ENDBRANCH  16  17
ENDBRANCH  15  16
ENDBRANCH  14  15
ENDBRANCH  13  14
ENDBRANCH  12  13
ENDBRANCH   9  12
ENDBRANCH   8   9
ENDBRANCH   7   8
ENDBRANCH   6   7
ENDBRANCH   5   6
ENDBRANCH   4   5
ENDBRANCH   3   4
ENDBRANCH   2   3
TORSDOF 14
ENDMDL
MODEL      201
REMARK 921   NORMALIZED FREE ENERGY PREDICTED BY IDOCK:   -2.79 KCAL/MOL
REMARK 922        TOTAL FREE ENERGY PREDICTED BY IDOCK:   -6.81 KCAL/MOL
REMARK 923 INTER-LIGAND FREE ENERGY PREDICTED BY IDOCK:   -5.72 KCAL/MOL
REMARK 924 INTRA-LIGAND FREE ENERGY PREDICTED BY IDOCK:   -1.09 KCAL/MOL
REMARK 927      BINDING AFFINITY PREDICTED BY RF-SCORE:    0.00 PKD
ROOT
HETATM    1  C   UNL     1      -6.472  10.139  62.816  1.00  0.00    -0.131 C  
HETATM    2  C   UNL     1      -7.013   9.026  63.698  1.00  0.00    -0.089 C  
ENDROOT
BRANCH   2   3
HETATM    3  C   UNL     1      -8.450   9.309  64.120  1.00  0.00    -0.203 C  
BRANCH   3   4
HETATM    4  C   UNL     1      -9.230   9.999  63.002  1.00  0.00    -0.313 C  
BRANCH   4   5
HETATM    5  C   UNL     1     -10.177  11.037  63.588  1.00  0.00    -0.431 C  
BRANCH   5   6
HETATM    6  C   UNL     1      -9.753  11.482  64.987  1.00  0.00    -0.268 C  
BRANCH   6   7
HETATM    7  C   UNL     1     -11.004  11.691  65.836  1.00  0.00    -0.334 C  
BRANCH   7   8
HETATM    8  C   UNL     1     -10.719  12.485  67.107  1.00  0.00    -0.237 C  
BRANCH   8   9
HETATM    9  N   UNL     1     -11.519  13.816  67.181  1.00  0.00    -0.324 N  
HETATM   10  C   UNL     1     -12.605  13.839  66.105  1.00  0.00    -0.371 C  
HETATM   11  C   UNL     1     -12.155  13.972  68.563  1.00  0.00    -0.294 C  
BRANCH   9  12
HETATM   12  C   UNL     1     -10.492  14.957  66.932  1.00  0.00    -0.280 C  
BRANCH  12  13
HETATM   13  C   UNL     1      -9.119  14.656  67.525  1.00  0.00    -0.192 C  
BRANCH  13  14
HETATM   14  C   UNL     1      -8.027  15.560  66.957  1.00  0.00    -0.268 C  
BRANCH  14  15
HETATM   15  C   UNL     1      -8.683  16.655  66.118  1.00  0.00    -0.322 C  
BRANCH  15  16
HETATM   16  C   UNL     1      -8.248  18.049  66.549  1.00  0.00    -0.298 C  
BRANCH  16  17
HETATM   17  C   UNL     1      -8.871  18.403  67.899  1.00  0.00    -0.293 C  
BRANCH  17  18
HETATM   18  C   UNL     1      -9.540  19.772  67.858  1.00  0.00    -0.482 C  
HETATM   19  C   UNL     1     -10.616  19.825  66.786  1.00  0.00    -0.586 C  
ENDBRANCH  17  18
ENDBRANCH  16  17
ENDBRANCH  15  16
ENDBRANCH  14  15
ENDBRANCH  13  14
ENDBRANCH  12  13
ENDBRANCH   9  12
ENDBRANCH   8   9
ENDBRANCH   7   8
ENDBRANCH   6   7
ENDBRANCH   5   6
ENDBRANCH   4   5
ENDBRANCH   3   4
ENDBRANCH   2   3
TORSDOF 14
ENDMDL
MODEL      202
REMARK 921   NORMALIZED FREE ENERGY PREDICTED BY IDOCK:   -2.78 KCAL/MOL
REMARK 922        TOTAL FREE ENERGY PREDICTED BY IDOCK:   -6.79 KCAL/MOL
REMARK 923 INTER-LIGAND FREE ENERGY PREDICTED BY IDOCK:   -5.34 KCAL/MOL
REMARK 924 INTRA-LIGAND FREE ENERGY PREDICTED BY IDOCK:   -1.45 KCAL/MOL
REMARK 927      BINDING AFFINITY PREDICTED BY RF-SCORE:    0.00 PKD
ROOT
HETATM    1  C   UNL     1     -10.530   9.132  67.252  1.00  0.00    -0.335 C  
HETATM    2  C   UNL     1      -9.313   8.784  66.410  1.00  0.00    -0.264 C  
ENDROOT
BRANCH   2   3
HETATM    3  C   UNL     1      -8.281   9.904  66.447  1.00  0.00    -0.117 C  
BRANCH   3   4
HETATM    4  C   UNL     1      -7.984  10.430  65.043  1.00  0.00    -0.126 C  
BRANCH   4   5
HETATM    5  C   UNL     1      -8.716   9.594  64.003  1.00  0.00    -0.240 C  
BRANCH   5   6
HETATM    6  C   UNL     1      -9.517  10.456  63.028  1.00  0.00    -0.362 C  
BRANCH   6   7
HETATM    7  C   UNL     1     -10.654  11.132  63.789  1.00  0.00    -0.422 C  
BRANCH   7   8
HETATM    8  C   UNL     1     -10.576  12.654  63.722  1.00  0.00    -0.397 C  
BRANCH   8   9
HETATM    9  N   UNL     1     -11.331  13.350  64.890  1.00  0.00    -0.318 N  
HETATM   10  C   UNL     1     -11.415  14.856  64.640  1.00  0.00    -0.379 C  
HETATM   11  C   UNL     1     -12.738  12.768  65.027  1.00  0.00    -0.380 C  
BRANCH   9  12
HETATM   12  C   UNL     1     -10.505  13.063  66.176  1.00  0.00    -0.279 C  
BRANCH  12  13
HETATM   13  C   UNL     1     -11.382  12.806  67.397  1.00  0.00    -0.363 C  
BRANCH  13  14
HETATM   14  C   UNL     1     -10.933  13.609  68.616  1.00  0.00    -0.290 C  
BRANCH  14  15
HETATM   15  C   UNL     1     -11.177  15.093  68.345  1.00  0.00    -0.307 C  
BRANCH  15  16
HETATM   16  C   UNL     1      -9.906  15.920  68.485  1.00  0.00    -0.210 C  
BRANCH  16  17
HETATM   17  C   UNL     1      -8.690  15.003  68.606  1.00  0.00    -0.176 C  
BRANCH  17  18
HETATM   18  C   UNL     1      -7.617  15.620  69.495  1.00  0.00    -0.187 C  
HETATM   19  C   UNL     1      -7.357  17.069  69.116  1.00  0.00    -0.186 C  
ENDBRANCH  17  18
ENDBRANCH  16  17
ENDBRANCH  15  16
ENDBRANCH  14  15
ENDBRANCH  13  14
ENDBRANCH  12  13
ENDBRANCH   9  12
ENDBRANCH   8   9
ENDBRANCH   7   8
ENDBRANCH   6   7
ENDBRANCH   5   6
ENDBRANCH   4   5
ENDBRANCH   3   4
ENDBRANCH   2   3
TORSDOF 14
ENDMDL
MODEL      203
REMARK 921   NORMALIZED FREE ENERGY PREDICTED BY IDOCK:   -2.78 KCAL/MOL
REMARK 922        TOTAL FREE ENERGY PREDICTED BY IDOCK:   -6.79 KCAL/MOL
REMARK 923 INTER-LIGAND FREE ENERGY PREDICTED BY IDOCK:   -5.73 KCAL/MOL
REMARK 924 INTRA-LIGAND FREE ENERGY PREDICTED BY IDOCK:   -1.06 KCAL/MOL
REMARK 927      BINDING AFFINITY PREDICTED BY RF-SCORE:    0.00 PKD
ROOT
HETATM    1  C   UNL     1     -10.527   8.109  66.858  1.00  0.00    -0.379 C  
HETATM    2  C   UNL     1      -9.120   8.223  66.292  1.00  0.00    -0.235 C  
ENDROOT
BRANCH   2   3
HETATM    3  C   UNL     1      -8.073   8.093  67.391  1.00  0.00    -0.122 C  
BRANCH   3   4
HETATM    4  C   UNL     1      -7.233   9.365  67.509  1.00  0.00    -0.079 C  
BRANCH   4   5
HETATM    5  C   UNL     1      -7.589  10.334  66.392  1.00  0.00    -0.117 C  
BRANCH   5   6
HETATM    6  C   UNL     1      -7.892  11.737  66.917  1.00  0.00    -0.141 C  
BRANCH   6   7
HETATM    7  C   UNL     1      -9.402  11.892  67.063  1.00  0.00    -0.188 C  
BRANCH   7   8
HETATM    8  C   UNL     1      -9.937  13.112  66.318  1.00  0.00    -0.285 C  
BRANCH   8   9
HETATM    9  N   UNL     1     -11.408  13.453  66.695  1.00  0.00    -0.313 N  
HETATM   10  C   UNL     1     -12.328  13.211  65.498  1.00  0.00    -0.474 C  
HETATM   11  C   UNL     1     -11.860  12.596  67.878  1.00  0.00    -0.332 C  
BRANCH   9  12
HETATM   12  C   UNL     1     -11.419  14.957  67.087  1.00  0.00    -0.335 C  
BRANCH  12  13
HETATM   13  C   UNL     1     -10.500  15.804  66.211  1.00  0.00    -0.315 C  
BRANCH  13  14
HETATM   14  C   UNL     1      -9.582  16.707  67.031  1.00  0.00    -0.250 C  
BRANCH  14  15
HETATM   15  C   UNL     1     -10.165  16.856  68.436  1.00  0.00    -0.322 C  
BRANCH  15  16
HETATM   16  C   UNL     1     -10.207  18.308  68.892  1.00  0.00    -0.299 C  
BRANCH  16  17
HETATM   17  C   UNL     1      -9.185  19.134  68.113  1.00  0.00    -0.377 C  
BRANCH  17  18
HETATM   18  C   UNL     1      -9.846  20.320  67.418  1.00  0.00    -0.586 C  
HETATM   19  C   UNL     1     -10.454  19.907  66.088  1.00  0.00    -0.581 C  
ENDBRANCH  17  18
ENDBRANCH  16  17
ENDBRANCH  15  16
ENDBRANCH  14  15
ENDBRANCH  13  14
ENDBRANCH  12  13
ENDBRANCH   9  12
ENDBRANCH   8   9
ENDBRANCH   7   8
ENDBRANCH   6   7
ENDBRANCH   5   6
ENDBRANCH   4   5
ENDBRANCH   3   4
ENDBRANCH   2   3
TORSDOF 14
ENDMDL
MODEL      204
REMARK 921   NORMALIZED FREE ENERGY PREDICTED BY IDOCK:   -2.78 KCAL/MOL
REMARK 922        TOTAL FREE ENERGY PREDICTED BY IDOCK:   -6.78 KCAL/MOL
REMARK 923 INTER-LIGAND FREE ENERGY PREDICTED BY IDOCK:   -5.15 KCAL/MOL
REMARK 924 INTRA-LIGAND FREE ENERGY PREDICTED BY IDOCK:   -1.64 KCAL/MOL
REMARK 927      BINDING AFFINITY PREDICTED BY RF-SCORE:    0.00 PKD
ROOT
HETATM    1  C   UNL     1     -10.296   4.360  71.792  1.00  0.00    -0.141 C  
HETATM    2  C   UNL     1      -8.970   4.811  71.201  1.00  0.00    -0.167 C  
ENDROOT
BRANCH   2   3
HETATM    3  C   UNL     1      -9.082   6.208  70.603  1.00  0.00    -0.156 C  
BRANCH   3   4
HETATM    4  C   UNL     1     -10.196   6.276  69.559  1.00  0.00    -0.239 C  
BRANCH   4   5
HETATM    5  C   UNL     1      -9.805   5.483  68.322  1.00  0.00    -0.185 C  
BRANCH   5   6
HETATM    6  C   UNL     1      -9.963   6.298  67.038  1.00  0.00    -0.201 C  
BRANCH   6   7
HETATM    7  C   UNL     1      -9.562   7.742  67.321  1.00  0.00    -0.207 C  
BRANCH   7   8
HETATM    8  C   UNL     1     -10.406   8.745  66.539  1.00  0.00    -0.184 C  
BRANCH   8   9
HETATM    9  N   UNL     1      -9.655  10.078  66.257  1.00  0.00    -0.189 N  
HETATM   10  C   UNL     1      -8.165   9.810  66.052  1.00  0.00    -0.117 C  
HETATM   11  C   UNL     1     -10.236  10.756  65.016  1.00  0.00    -0.306 C  
BRANCH   9  12
HETATM   12  C   UNL     1      -9.874  10.974  67.509  1.00  0.00    -0.169 C  
BRANCH  12  13
HETATM   13  C   UNL     1     -11.349  11.196  67.827  1.00  0.00    -0.364 C  
BRANCH  13  14
HETATM   14  C   UNL     1     -11.663  10.999  69.308  1.00  0.00    -0.397 C  
BRANCH  14  15
HETATM   15  C   UNL     1     -10.550  10.163  69.939  1.00  0.00    -0.331 C  
BRANCH  15  16
HETATM   16  C   UNL     1     -11.040   9.366  71.140  1.00  0.00    -0.432 C  
BRANCH  16  17
HETATM   17  C   UNL     1     -12.403   9.883  71.597  1.00  0.00    -0.496 C  
BRANCH  17  18
HETATM   18  C   UNL     1     -13.213   8.784  72.276  1.00  0.00    -0.456 C  
HETATM   19  C   UNL     1     -12.967   7.436  71.619  1.00  0.00    -0.409 C  
ENDBRANCH  17  18
ENDBRANCH  16  17
ENDBRANCH  15  16
ENDBRANCH  14  15
ENDBRANCH  13  14
ENDBRANCH  12  13
ENDBRANCH   9  12
ENDBRANCH   8   9
ENDBRANCH   7   8
ENDBRANCH   6   7
ENDBRANCH   5   6
ENDBRANCH   4   5
ENDBRANCH   3   4
ENDBRANCH   2   3
TORSDOF 14
ENDMDL
MODEL      205
REMARK 921   NORMALIZED FREE ENERGY PREDICTED BY IDOCK:   -2.75 KCAL/MOL
REMARK 922        TOTAL FREE ENERGY PREDICTED BY IDOCK:   -6.73 KCAL/MOL
REMARK 923 INTER-LIGAND FREE ENERGY PREDICTED BY IDOCK:   -6.19 KCAL/MOL
REMARK 924 INTRA-LIGAND FREE ENERGY PREDICTED BY IDOCK:   -0.55 KCAL/MOL
REMARK 927      BINDING AFFINITY PREDICTED BY RF-SCORE:    0.00 PKD
ROOT
HETATM    1  C   UNL     1      -7.736  19.792  68.446  1.00  0.00    -0.336 C  
HETATM    2  C   UNL     1      -8.189  18.385  68.088  1.00  0.00    -0.303 C  
ENDROOT
BRANCH   2   3
HETATM    3  C   UNL     1      -9.706  18.261  68.165  1.00  0.00    -0.341 C  
BRANCH   3   4
HETATM    4  C   UNL     1     -10.366  18.710  66.861  1.00  0.00    -0.444 C  
BRANCH   4   5
HETATM    5  C   UNL     1     -10.395  17.559  65.866  1.00  0.00    -0.265 C  
BRANCH   5   6
HETATM    6  C   UNL     1     -10.488  16.199  66.557  1.00  0.00    -0.298 C  
BRANCH   6   7
HETATM    7  C   UNL     1     -11.036  15.179  65.563  1.00  0.00    -0.370 C  
BRANCH   7   8
HETATM    8  C   UNL     1     -10.256  13.868  65.585  1.00  0.00    -0.328 C  
BRANCH   8   9
HETATM    9  N   UNL     1     -11.157  12.633  65.876  1.00  0.00    -0.280 N  
HETATM   10  C   UNL     1     -11.679  12.688  67.311  1.00  0.00    -0.370 C  
HETATM   11  C   UNL     1     -12.332  12.598  64.898  1.00  0.00    -0.498 C  
BRANCH   9  12
HETATM   12  C   UNL     1     -10.257  11.381  65.677  1.00  0.00    -0.251 C  
BRANCH  12  13
HETATM   13  C   UNL     1     -10.567  10.267  66.672  1.00  0.00    -0.232 C  
BRANCH  13  14
HETATM   14  C   UNL     1      -9.972   8.925  66.249  1.00  0.00    -0.337 C  
BRANCH  14  15
HETATM   15  C   UNL     1     -10.283   7.888  67.328  1.00  0.00    -0.343 C  
BRANCH  15  16
HETATM   16  C   UNL     1     -10.291   8.494  68.724  1.00  0.00    -0.233 C  
BRANCH  16  17
HETATM   17  C   UNL     1     -10.751   7.457  69.747  1.00  0.00    -0.252 C  
BRANCH  17  18
HETATM   18  C   UNL     1     -11.534   8.107  70.882  1.00  0.00    -0.288 C  
HETATM   19  C   UNL     1     -12.442   7.099  71.569  1.00  0.00    -0.418 C  
ENDBRANCH  17  18
ENDBRANCH  16  17
ENDBRANCH  15  16
ENDBRANCH  14  15
ENDBRANCH  13  14
ENDBRANCH  12  13
ENDBRANCH   9  12
ENDBRANCH   8   9
ENDBRANCH   7   8
ENDBRANCH   6   7
ENDBRANCH   5   6
ENDBRANCH   4   5
ENDBRANCH   3   4
ENDBRANCH   2   3
TORSDOF 14
ENDMDL
MODEL      206
REMARK 921   NORMALIZED FREE ENERGY PREDICTED BY IDOCK:   -2.75 KCAL/MOL
REMARK 922        TOTAL FREE ENERGY PREDICTED BY IDOCK:   -6.73 KCAL/MOL
REMARK 923 INTER-LIGAND FREE ENERGY PREDICTED BY IDOCK:   -4.55 KCAL/MOL
REMARK 924 INTRA-LIGAND FREE ENERGY PREDICTED BY IDOCK:   -2.18 KCAL/MOL
REMARK 927      BINDING AFFINITY PREDICTED BY RF-SCORE:    0.00 PKD
ROOT
HETATM    1  C   UNL     1      -9.102   2.904  65.783  1.00  0.00    -0.137 C  
HETATM    2  C   UNL     1      -9.798   4.251  65.675  1.00  0.00    -0.223 C  
ENDROOT
BRANCH   2   3
HETATM    3  C   UNL     1     -10.093   4.829  67.054  1.00  0.00    -0.228 C  
BRANCH   3   4
HETATM    4  C   UNL     1      -9.423   4.006  68.154  1.00  0.00    -0.215 C  
BRANCH   4   5
HETATM    5  C   UNL     1      -9.537   4.725  69.490  1.00  0.00    -0.250 C  
BRANCH   5   6
HETATM    6  C   UNL     1     -10.620   5.804  69.476  1.00  0.00    -0.390 C  
BRANCH   6   7
HETATM    7  C   UNL     1     -11.122   6.015  70.901  1.00  0.00    -0.352 C  
BRANCH   7   8
HETATM    8  C   UNL     1     -12.261   7.028  70.973  1.00  0.00    -0.374 C  
BRANCH   8   9
HETATM    9  N   UNL     1     -11.927   8.250  71.875  1.00  0.00    -0.309 N  
HETATM   10  C   UNL     1     -13.213   8.870  72.421  1.00  0.00    -0.430 C  
HETATM   11  C   UNL     1     -11.028   7.817  73.035  1.00  0.00    -0.381 C  
BRANCH   9  12
HETATM   12  C   UNL     1     -11.179   9.269  70.970  1.00  0.00    -0.321 C  
BRANCH  12  13
HETATM   13  C   UNL     1      -9.662   9.181  71.108  1.00  0.00    -0.360 C  
BRANCH  13  14
HETATM   14  C   UNL     1      -8.945   9.337  69.769  1.00  0.00    -0.180 C  
BRANCH  14  15
HETATM   15  C   UNL     1      -7.868   8.258  69.661  1.00  0.00    -0.102 C  
BRANCH  15  16
HETATM   16  C   UNL     1      -7.736   7.716  68.244  1.00  0.00    -0.120 C  
BRANCH  16  17
HETATM   17  C   UNL     1      -6.514   6.805  68.139  1.00  0.00    -0.053 C  
BRANCH  17  18
HETATM   18  C   UNL     1      -6.559   5.961  66.870  1.00  0.00    -0.056 C  
HETATM   19  C   UNL     1      -7.154   6.745  65.712  1.00  0.00    -0.072 C  
ENDBRANCH  17  18
ENDBRANCH  16  17
ENDBRANCH  15  16
ENDBRANCH  14  15
ENDBRANCH  13  14
ENDBRANCH  12  13
ENDBRANCH   9  12
ENDBRANCH   8   9
ENDBRANCH   7   8
ENDBRANCH   6   7
ENDBRANCH   5   6
ENDBRANCH   4   5
ENDBRANCH   3   4
ENDBRANCH   2   3
TORSDOF 14
ENDMDL
MODEL      207
REMARK 921   NORMALIZED FREE ENERGY PREDICTED BY IDOCK:   -2.72 KCAL/MOL
REMARK 922        TOTAL FREE ENERGY PREDICTED BY IDOCK:   -6.69 KCAL/MOL
REMARK 923 INTER-LIGAND FREE ENERGY PREDICTED BY IDOCK:   -5.51 KCAL/MOL
REMARK 924 INTRA-LIGAND FREE ENERGY PREDICTED BY IDOCK:   -1.18 KCAL/MOL
REMARK 927      BINDING AFFINITY PREDICTED BY RF-SCORE:    0.00 PKD
ROOT
HETATM    1  C   UNL     1     -12.433  13.437  64.975  1.00  0.00    -0.479 C  
HETATM    2  C   UNL     1     -12.211  14.185  66.280  1.00  0.00    -0.474 C  
ENDROOT
BRANCH   2   3
HETATM    3  C   UNL     1     -12.154  13.225  67.461  1.00  0.00    -0.312 C  
BRANCH   3   4
HETATM    4  C   UNL     1     -11.275  12.014  67.148  1.00  0.00    -0.374 C  
BRANCH   4   5
HETATM    5  C   UNL     1      -9.814  12.343  67.416  1.00  0.00    -0.199 C  
BRANCH   5   6
HETATM    6  C   UNL     1      -9.087  11.205  68.132  1.00  0.00    -0.159 C  
BRANCH   6   7
HETATM    7  C   UNL     1      -9.866   9.911  67.917  1.00  0.00    -0.170 C  
BRANCH   7   8
HETATM    8  C   UNL     1      -9.221   8.719  68.618  1.00  0.00    -0.141 C  
BRANCH   8   9
HETATM    9  N   UNL     1      -9.292   7.413  67.776  1.00  0.00    -0.136 N  
HETATM   10  C   UNL     1     -10.032   7.670  66.464  1.00  0.00    -0.155 C  
HETATM   11  C   UNL     1      -7.882   6.899  67.483  1.00  0.00    -0.112 C  
BRANCH   9  12
HETATM   12  C   UNL     1     -10.070   6.380  68.639  1.00  0.00    -0.158 C  
BRANCH  12  13
HETATM   13  C   UNL     1      -9.813   6.545  70.134  1.00  0.00    -0.185 C  
BRANCH  13  14
HETATM   14  C   UNL     1     -11.042   6.217  70.977  1.00  0.00    -0.359 C  
BRANCH  14  15
HETATM   15  C   UNL     1     -10.806   6.710  72.404  1.00  0.00    -0.266 C  
BRANCH  15  16
HETATM   16  C   UNL     1     -11.463   8.059  72.663  1.00  0.00    -0.465 C  
BRANCH  16  17
HETATM   17  C   UNL     1     -12.525   8.341  71.602  1.00  0.00    -0.351 C  
BRANCH  17  18
HETATM   18  C   UNL     1     -13.059   9.764  71.717  1.00  0.00    -0.528 C  
HETATM   19  C   UNL     1     -12.260  10.722  70.849  1.00  0.00    -0.487 C  
ENDBRANCH  17  18
ENDBRANCH  16  17
ENDBRANCH  15  16
ENDBRANCH  14  15
ENDBRANCH  13  14
ENDBRANCH  12  13
ENDBRANCH   9  12
ENDBRANCH   8   9
ENDBRANCH   7   8
ENDBRANCH   6   7
ENDBRANCH   5   6
ENDBRANCH   4   5
ENDBRANCH   3   4
ENDBRANCH   2   3
TORSDOF 14
ENDMDL
MODEL      208
REMARK 921   NORMALIZED FREE ENERGY PREDICTED BY IDOCK:   -2.72 KCAL/MOL
REMARK 922        TOTAL FREE ENERGY PREDICTED BY IDOCK:   -6.67 KCAL/MOL
REMARK 923 INTER-LIGAND FREE ENERGY PREDICTED BY IDOCK:   -5.75 KCAL/MOL
REMARK 924 INTRA-LIGAND FREE ENERGY PREDICTED BY IDOCK:   -0.93 KCAL/MOL
REMARK 927      BINDING AFFINITY PREDICTED BY RF-SCORE:    0.00 PKD
ROOT
HETATM    1  C   UNL     1      -8.403  20.209  67.273  1.00  0.00    -0.394 C  
HETATM    2  C   UNL     1      -9.795  20.210  66.662  1.00  0.00    -0.588 C  
ENDROOT
BRANCH   2   3
HETATM    3  C   UNL     1     -10.397  18.810  66.662  1.00  0.00    -0.472 C  
BRANCH   3   4
HETATM    4  C   UNL     1     -10.254  18.146  68.032  1.00  0.00    -0.392 C  
BRANCH   4   5
HETATM    5  C   UNL     1     -10.872  16.756  68.007  1.00  0.00    -0.341 C  
BRANCH   5   6
HETATM    6  C   UNL     1      -9.814  15.653  68.038  1.00  0.00    -0.209 C  
BRANCH   6   7
HETATM    7  C   UNL     1      -9.939  14.817  66.767  1.00  0.00    -0.256 C  
BRANCH   7   8
HETATM    8  C   UNL     1     -11.383  14.427  66.466  1.00  0.00    -0.350 C  
BRANCH   8   9
HETATM    9  N   UNL     1     -11.510  12.997  65.867  1.00  0.00    -0.323 N  
HETATM   10  C   UNL     1     -12.754  12.904  64.984  1.00  0.00    -0.404 C  
HETATM   11  C   UNL     1     -10.265  12.659  65.045  1.00  0.00    -0.273 C  
BRANCH   9  12
HETATM   12  C   UNL     1     -11.634  12.027  67.075  1.00  0.00    -0.317 C  
BRANCH  12  13
HETATM   13  C   UNL     1     -10.342  11.270  67.361  1.00  0.00    -0.233 C  
BRANCH  13  14
HETATM   14  C   UNL     1     -10.578   9.779  67.595  1.00  0.00    -0.333 C  
BRANCH  14  15
HETATM   15  C   UNL     1      -9.843   8.989  66.513  1.00  0.00    -0.338 C  
BRANCH  15  16
HETATM   16  C   UNL     1      -8.338   8.961  66.743  1.00  0.00    -0.111 C  
BRANCH  16  17
HETATM   17  C   UNL     1      -7.616   9.662  65.593  1.00  0.00    -0.107 C  
BRANCH  17  18
HETATM   18  C   UNL     1      -8.092   9.140  64.241  1.00  0.00    -0.148 C  
HETATM   19  C   UNL     1      -8.148  10.258  63.212  1.00  0.00    -0.157 C  
ENDBRANCH  17  18
ENDBRANCH  16  17
ENDBRANCH  15  16
ENDBRANCH  14  15
ENDBRANCH  13  14
ENDBRANCH  12  13
ENDBRANCH   9  12
ENDBRANCH   8   9
ENDBRANCH   7   8
ENDBRANCH   6   7
ENDBRANCH   5   6
ENDBRANCH   4   5
ENDBRANCH   3   4
ENDBRANCH   2   3
TORSDOF 14
ENDMDL
MODEL      209
REMARK 921   NORMALIZED FREE ENERGY PREDICTED BY IDOCK:   -2.70 KCAL/MOL
REMARK 922        TOTAL FREE ENERGY PREDICTED BY IDOCK:   -6.65 KCAL/MOL
REMARK 923 INTER-LIGAND FREE ENERGY PREDICTED BY IDOCK:   -5.82 KCAL/MOL
REMARK 924 INTRA-LIGAND FREE ENERGY PREDICTED BY IDOCK:   -0.83 KCAL/MOL
REMARK 927      BINDING AFFINITY PREDICTED BY RF-SCORE:    0.00 PKD
ROOT
HETATM    1  C   UNL     1     -12.265  12.274  63.603  1.00  0.00    -0.665 C  
HETATM    2  C   UNL     1     -12.377  12.775  65.034  1.00  0.00    -0.559 C  
ENDROOT
BRANCH   2   3
HETATM    3  C   UNL     1     -11.448  12.001  65.961  1.00  0.00    -0.399 C  
BRANCH   3   4
HETATM    4  C   UNL     1     -11.087  12.823  67.197  1.00  0.00    -0.315 C  
BRANCH   4   5
HETATM    5  C   UNL     1     -11.886  12.340  68.399  1.00  0.00    -0.358 C  
BRANCH   5   6
HETATM    6  C   UNL     1     -11.100  11.347  69.255  1.00  0.00    -0.313 C  
BRANCH   6   7
HETATM    7  C   UNL     1     -12.085  10.490  70.043  1.00  0.00    -0.351 C  
BRANCH   7   8
HETATM    8  C   UNL     1     -11.426   9.780  71.222  1.00  0.00    -0.385 C  
BRANCH   8   9
HETATM    9  N   UNL     1     -11.937   8.323  71.412  1.00  0.00    -0.293 N  
HETATM   10  C   UNL     1     -13.460   8.310  71.531  1.00  0.00    -0.289 C  
HETATM   11  C   UNL     1     -11.501   7.455  70.231  1.00  0.00    -0.181 C  
BRANCH   9  12
HETATM   12  C   UNL     1     -11.290   7.803  72.727  1.00  0.00    -0.389 C  
BRANCH  12  13
HETATM   13  C   UNL     1      -9.840   8.250  72.890  1.00  0.00    -0.303 C  
BRANCH  13  14
HETATM   14  C   UNL     1      -9.038   7.311  73.789  1.00  0.00    -0.266 C  
BRANCH  14  15
HETATM   15  C   UNL     1      -8.693   6.050  72.998  1.00  0.00    -0.122 C  
BRANCH  15  16
HETATM   16  C   UNL     1      -7.952   6.364  71.706  1.00  0.00    -0.105 C  
BRANCH  16  17
HETATM   17  C   UNL     1      -8.035   5.177  70.748  1.00  0.00    -0.096 C  
BRANCH  17  18
HETATM   18  C   UNL     1      -9.403   4.507  70.813  1.00  0.00    -0.218 C  
HETATM   19  C   UNL     1      -9.473   3.312  69.877  1.00  0.00    -0.216 C  
ENDBRANCH  17  18
ENDBRANCH  16  17
ENDBRANCH  15  16
ENDBRANCH  14  15
ENDBRANCH  13  14
ENDBRANCH  12  13
ENDBRANCH   9  12
ENDBRANCH   8   9
ENDBRANCH   7   8
ENDBRANCH   6   7
ENDBRANCH   5   6
ENDBRANCH   4   5
ENDBRANCH   3   4
ENDBRANCH   2   3
TORSDOF 14
ENDMDL
MODEL      210
REMARK 921   NORMALIZED FREE ENERGY PREDICTED BY IDOCK:   -2.70 KCAL/MOL
REMARK 922        TOTAL FREE ENERGY PREDICTED BY IDOCK:   -6.64 KCAL/MOL
REMARK 923 INTER-LIGAND FREE ENERGY PREDICTED BY IDOCK:   -5.56 KCAL/MOL
REMARK 924 INTRA-LIGAND FREE ENERGY PREDICTED BY IDOCK:   -1.08 KCAL/MOL
REMARK 927      BINDING AFFINITY PREDICTED BY RF-SCORE:    0.00 PKD
ROOT
HETATM    1  C   UNL     1     -12.171  13.462  63.392  1.00  0.00    -0.419 C  
HETATM    2  C   UNL     1     -11.814  12.080  63.917  1.00  0.00    -0.543 C  
ENDROOT
BRANCH   2   3
HETATM    3  C   UNL     1     -11.301  12.152  65.350  1.00  0.00    -0.388 C  
BRANCH   3   4
HETATM    4  C   UNL     1     -11.265  13.594  65.854  1.00  0.00    -0.311 C  
BRANCH   4   5
HETATM    5  C   UNL     1     -10.668  13.647  67.253  1.00  0.00    -0.283 C  
BRANCH   5   6
HETATM    6  C   UNL     1     -11.042  14.931  67.993  1.00  0.00    -0.301 C  
BRANCH   6   7
HETATM    7  C   UNL     1     -10.267  16.094  67.381  1.00  0.00    -0.272 C  
BRANCH   7   8
HETATM    8  C   UNL     1     -10.673  17.440  67.974  1.00  0.00    -0.359 C  
BRANCH   8   9
HETATM    9  N   UNL     1      -9.972  18.642  67.280  1.00  0.00    -0.315 N  
HETATM   10  C   UNL     1     -10.725  19.028  66.007  1.00  0.00    -0.337 C  
HETATM   11  C   UNL     1      -9.915  19.839  68.231  1.00  0.00    -0.444 C  
BRANCH   9  12
HETATM   12  C   UNL     1      -8.534  18.166  66.930  1.00  0.00    -0.253 C  
BRANCH  12  13
HETATM   13  C   UNL     1      -7.574  19.324  66.672  1.00  0.00    -0.255 C  
BRANCH  13  14
HETATM   14  C   UNL     1      -6.348  18.896  65.870  1.00  0.00    -0.252 C  
BRANCH  14  15
HETATM   15  C   UNL     1      -5.841  17.563  66.418  1.00  0.00    -0.245 C  
BRANCH  15  16
HETATM   16  C   UNL     1      -5.133  17.722  67.756  1.00  0.00    -0.136 C  
BRANCH  16  17
HETATM   17  C   UNL     1      -5.267  16.443  68.580  1.00  0.00    -0.105 C  
BRANCH  17  18
HETATM   18  C   UNL     1      -6.513  15.658  68.185  1.00  0.00    -0.137 C  
HETATM   19  C   UNL     1      -7.309  15.241  69.412  1.00  0.00    -0.207 C  
ENDBRANCH  17  18
ENDBRANCH  16  17
ENDBRANCH  15  16
ENDBRANCH  14  15
ENDBRANCH  13  14
ENDBRANCH  12  13
ENDBRANCH   9  12
ENDBRANCH   8   9
ENDBRANCH   7   8
ENDBRANCH   6   7
ENDBRANCH   5   6
ENDBRANCH   4   5
ENDBRANCH   3   4
ENDBRANCH   2   3
TORSDOF 14
ENDMDL
MODEL      211
REMARK 921   NORMALIZED FREE ENERGY PREDICTED BY IDOCK:   -2.69 KCAL/MOL
REMARK 922        TOTAL FREE ENERGY PREDICTED BY IDOCK:   -6.63 KCAL/MOL
REMARK 923 INTER-LIGAND FREE ENERGY PREDICTED BY IDOCK:   -5.76 KCAL/MOL
REMARK 924 INTRA-LIGAND FREE ENERGY PREDICTED BY IDOCK:   -0.87 KCAL/MOL
REMARK 927      BINDING AFFINITY PREDICTED BY RF-SCORE:    0.00 PKD
ROOT
HETATM    1  C   UNL     1     -12.294  13.461  65.174  1.00  0.00    -0.501 C  
HETATM    2  C   UNL     1     -12.027  13.479  66.671  1.00  0.00    -0.452 C  
ENDROOT
BRANCH   2   3
HETATM    3  C   UNL     1     -11.598  12.104  67.169  1.00  0.00    -0.405 C  
BRANCH   3   4
HETATM    4  C   UNL     1     -11.333  12.118  68.674  1.00  0.00    -0.330 C  
BRANCH   4   5
HETATM    5  C   UNL     1     -12.263  11.142  69.379  1.00  0.00    -0.329 C  
BRANCH   5   6
HETATM    6  C   UNL     1     -12.486  11.512  70.845  1.00  0.00    -0.464 C  
BRANCH   6   7
HETATM    7  C   UNL     1     -12.591  10.230  71.666  1.00  0.00    -0.534 C  
BRANCH   7   8
HETATM    8  C   UNL     1     -11.362   9.339  71.513  1.00  0.00    -0.385 C  
BRANCH   8   9
HETATM    9  N   UNL     1     -11.697   7.824  71.619  1.00  0.00    -0.270 N  
HETATM   10  C   UNL     1     -11.033   7.222  72.857  1.00  0.00    -0.337 C  
HETATM   11  C   UNL     1     -13.212   7.624  71.695  1.00  0.00    -0.352 C  
BRANCH   9  12
HETATM   12  C   UNL     1     -11.134   7.161  70.330  1.00  0.00    -0.274 C  
BRANCH  12  13
HETATM   13  C   UNL     1     -10.317   8.127  69.477  1.00  0.00    -0.222 C  
BRANCH  13  14
HETATM   14  C   UNL     1      -9.068   7.474  68.890  1.00  0.00    -0.140 C  
BRANCH  14  15
HETATM   15  C   UNL     1      -9.493   6.499  67.792  1.00  0.00    -0.119 C  
BRANCH  15  16
HETATM   16  C   UNL     1      -8.968   5.091  68.037  1.00  0.00    -0.117 C  
BRANCH  16  17
HETATM   17  C   UNL     1      -9.774   4.079  67.225  1.00  0.00    -0.199 C  
BRANCH  17  18
HETATM   18  C   UNL     1      -9.007   3.622  65.990  1.00  0.00    -0.144 C  
HETATM   19  C   UNL     1      -9.746   3.997  64.716  1.00  0.00    -0.187 C  
ENDBRANCH  17  18
ENDBRANCH  16  17
ENDBRANCH  15  16
ENDBRANCH  14  15
ENDBRANCH  13  14
ENDBRANCH  12  13
ENDBRANCH   9  12
ENDBRANCH   8   9
ENDBRANCH   7   8
ENDBRANCH   6   7
ENDBRANCH   5   6
ENDBRANCH   4   5
ENDBRANCH   3   4
ENDBRANCH   2   3
TORSDOF 14
ENDMDL
MODEL      212
REMARK 921   NORMALIZED FREE ENERGY PREDICTED BY IDOCK:   -2.69 KCAL/MOL
REMARK 922        TOTAL FREE ENERGY PREDICTED BY IDOCK:   -6.62 KCAL/MOL
REMARK 923 INTER-LIGAND FREE ENERGY PREDICTED BY IDOCK:   -5.79 KCAL/MOL
REMARK 924 INTRA-LIGAND FREE ENERGY PREDICTED BY IDOCK:   -0.83 KCAL/MOL
REMARK 927      BINDING AFFINITY PREDICTED BY RF-SCORE:    0.00 PKD
ROOT
HETATM    1  C   UNL     1     -12.028  12.673  63.351  1.00  0.00    -0.613 C  
HETATM    2  C   UNL     1     -12.447  12.578  64.809  1.00  0.00    -0.532 C  
ENDROOT
BRANCH   2   3
HETATM    3  C   UNL     1     -12.720  13.959  65.393  1.00  0.00    -0.525 C  
BRANCH   3   4
HETATM    4  C   UNL     1     -12.084  14.112  66.774  1.00  0.00    -0.474 C  
BRANCH   4   5
HETATM    5  C   UNL     1     -10.588  14.355  66.639  1.00  0.00    -0.282 C  
BRANCH   5   6
HETATM    6  C   UNL     1      -9.937  14.714  67.974  1.00  0.00    -0.220 C  
BRANCH   6   7
HETATM    7  C   UNL     1      -8.709  13.832  68.175  1.00  0.00    -0.183 C  
BRANCH   7   8
HETATM    8  C   UNL     1      -8.501  12.852  67.025  1.00  0.00    -0.142 C  
BRANCH   8   9
HETATM    9  N   UNL     1      -8.299  11.387  67.507  1.00  0.00    -0.133 N  
HETATM   10  C   UNL     1      -8.250  10.439  66.309  1.00  0.00    -0.144 C  
HETATM   11  C   UNL     1      -7.004  11.272  68.312  1.00  0.00    -0.071 C  
BRANCH   9  12
HETATM   12  C   UNL     1      -9.521  11.053  68.409  1.00  0.00    -0.182 C  
BRANCH  12  13
HETATM   13  C   UNL     1      -9.192  10.037  69.498  1.00  0.00    -0.238 C  
BRANCH  13  14
HETATM   14  C   UNL     1     -10.097   8.809  69.443  1.00  0.00    -0.203 C  
BRANCH  14  15
HETATM   15  C   UNL     1     -10.299   8.282  70.864  1.00  0.00    -0.225 C  
BRANCH  15  16
HETATM   16  C   UNL     1     -10.944   6.904  70.881  1.00  0.00    -0.290 C  
BRANCH  16  17
HETATM   17  C   UNL     1     -12.412   7.014  71.290  1.00  0.00    -0.430 C  
BRANCH  17  18
HETATM   18  C   UNL     1     -12.723   8.386  71.876  1.00  0.00    -0.390 C  
HETATM   19  C   UNL     1     -14.208   8.537  72.162  1.00  0.00    -0.516 C  
ENDBRANCH  17  18
ENDBRANCH  16  17
ENDBRANCH  15  16
ENDBRANCH  14  15
ENDBRANCH  13  14
ENDBRANCH  12  13
ENDBRANCH   9  12
ENDBRANCH   8   9
ENDBRANCH   7   8
ENDBRANCH   6   7
ENDBRANCH   5   6
ENDBRANCH   4   5
ENDBRANCH   3   4
ENDBRANCH   2   3
TORSDOF 14
ENDMDL
MODEL      213
REMARK 921   NORMALIZED FREE ENERGY PREDICTED BY IDOCK:   -2.68 KCAL/MOL
REMARK 922        TOTAL FREE ENERGY PREDICTED BY IDOCK:   -6.61 KCAL/MOL
REMARK 923 INTER-LIGAND FREE ENERGY PREDICTED BY IDOCK:   -5.36 KCAL/MOL
REMARK 924 INTRA-LIGAND FREE ENERGY PREDICTED BY IDOCK:   -1.26 KCAL/MOL
REMARK 927      BINDING AFFINITY PREDICTED BY RF-SCORE:    0.00 PKD
ROOT
HETATM    1  C   UNL     1     -10.497  17.642  67.804  1.00  0.00    -0.379 C  
HETATM    2  C   UNL     1     -10.342  16.152  68.063  1.00  0.00    -0.271 C  
ENDROOT
BRANCH   2   3
HETATM    3  C   UNL     1     -11.535  15.601  68.835  1.00  0.00    -0.367 C  
BRANCH   3   4
HETATM    4  C   UNL     1     -11.924  14.210  68.336  1.00  0.00    -0.366 C  
BRANCH   4   5
HETATM    5  C   UNL     1     -11.828  14.151  66.819  1.00  0.00    -0.449 C  
BRANCH   5   6
HETATM    6  C   UNL     1     -11.087  12.905  66.335  1.00  0.00    -0.316 C  
BRANCH   6   7
HETATM    7  C   UNL     1     -10.696  12.064  67.546  1.00  0.00    -0.262 C  
BRANCH   7   8
HETATM    8  C   UNL     1      -9.402  11.287  67.322  1.00  0.00    -0.166 C  
BRANCH   8   9
HETATM    9  N   UNL     1      -9.555   9.764  67.602  1.00  0.00    -0.143 N  
HETATM   10  C   UNL     1     -11.016   9.428  67.900  1.00  0.00    -0.058 C  
HETATM   11  C   UNL     1      -9.073   8.956  66.397  1.00  0.00    -0.174 C  
BRANCH   9  12
HETATM   12  C   UNL     1      -8.669   9.458  68.842  1.00  0.00    -0.132 C  
BRANCH  12  13
HETATM   13  C   UNL     1      -9.300   9.924  70.150  1.00  0.00    -0.200 C  
BRANCH  13  14
HETATM   14  C   UNL     1      -9.221   8.864  71.246  1.00  0.00    -0.328 C  
BRANCH  14  15
HETATM   15  C   UNL     1     -10.104   7.681  70.851  1.00  0.00    -0.194 C  
BRANCH  15  16
HETATM   16  C   UNL     1     -11.049   7.268  71.972  1.00  0.00    -0.277 C  
BRANCH  16  17
HETATM   17  C   UNL     1     -11.815   8.483  72.491  1.00  0.00    -0.398 C  
BRANCH  17  18
HETATM   18  C   UNL     1     -13.009   8.807  71.600  1.00  0.00    -0.390 C  
HETATM   19  C   UNL     1     -12.925  10.228  71.067  1.00  0.00    -0.488 C  
ENDBRANCH  17  18
ENDBRANCH  16  17
ENDBRANCH  15  16
ENDBRANCH  14  15
ENDBRANCH  13  14
ENDBRANCH  12  13
ENDBRANCH   9  12
ENDBRANCH   8   9
ENDBRANCH   7   8
ENDBRANCH   6   7
ENDBRANCH   5   6
ENDBRANCH   4   5
ENDBRANCH   3   4
ENDBRANCH   2   3
TORSDOF 14
ENDMDL
MODEL      214
REMARK 921   NORMALIZED FREE ENERGY PREDICTED BY IDOCK:   -2.68 KCAL/MOL
REMARK 922        TOTAL FREE ENERGY PREDICTED BY IDOCK:   -6.61 KCAL/MOL
REMARK 923 INTER-LIGAND FREE ENERGY PREDICTED BY IDOCK:   -5.92 KCAL/MOL
REMARK 924 INTRA-LIGAND FREE ENERGY PREDICTED BY IDOCK:   -0.69 KCAL/MOL
REMARK 927      BINDING AFFINITY PREDICTED BY RF-SCORE:    0.00 PKD
ROOT
HETATM    1  C   UNL     1      -7.610   8.181  74.566  1.00  0.00    -0.272 C  
HETATM    2  C   UNL     1      -8.894   7.467  74.176  1.00  0.00    -0.276 C  
ENDROOT
BRANCH   2   3
HETATM    3  C   UNL     1      -9.558   8.144  72.982  1.00  0.00    -0.336 C  
BRANCH   3   4
HETATM    4  C   UNL     1     -11.008   7.687  72.822  1.00  0.00    -0.432 C  
BRANCH   4   5
HETATM    5  C   UNL     1     -11.820   8.759  72.112  1.00  0.00    -0.436 C  
BRANCH   5   6
HETATM    6  C   UNL     1     -10.967   9.594  71.157  1.00  0.00    -0.430 C  
BRANCH   6   7
HETATM    7  C   UNL     1     -10.945   8.911  69.793  1.00  0.00    -0.164 C  
BRANCH   7   8
HETATM    8  C   UNL     1     -10.725   9.898  68.650  1.00  0.00    -0.226 C  
BRANCH   8   9
HETATM    9  N   UNL     1      -9.731   9.370  67.577  1.00  0.00    -0.151 N  
HETATM   10  C   UNL     1      -8.454   8.862  68.246  1.00  0.00    -0.130 C  
HETATM   11  C   UNL     1     -10.378   8.242  66.771  1.00  0.00    -0.290 C  
BRANCH   9  12
HETATM   12  C   UNL     1      -9.410  10.575  66.649  1.00  0.00    -0.161 C  
BRANCH  12  13
HETATM   13  C   UNL     1     -10.238  10.572  65.368  1.00  0.00    -0.340 C  
BRANCH  13  14
HETATM   14  C   UNL     1     -10.375  11.965  64.758  1.00  0.00    -0.323 C  
BRANCH  14  15
HETATM   15  C   UNL     1     -11.860  12.292  64.607  1.00  0.00    -0.435 C  
BRANCH  15  16
HETATM   16  C   UNL     1     -12.371  13.183  65.731  1.00  0.00    -0.496 C  
BRANCH  16  17
HETATM   17  C   UNL     1     -11.197  13.802  66.488  1.00  0.00    -0.319 C  
BRANCH  17  18
HETATM   18  C   UNL     1     -11.676  14.604  67.693  1.00  0.00    -0.389 C  
HETATM   19  C   UNL     1     -11.189  13.985  68.993  1.00  0.00    -0.311 C  
ENDBRANCH  17  18
ENDBRANCH  16  17
ENDBRANCH  15  16
ENDBRANCH  14  15
ENDBRANCH  13  14
ENDBRANCH  12  13
ENDBRANCH   9  12
ENDBRANCH   8   9
ENDBRANCH   7   8
ENDBRANCH   6   7
ENDBRANCH   5   6
ENDBRANCH   4   5
ENDBRANCH   3   4
ENDBRANCH   2   3
TORSDOF 14
ENDMDL
MODEL      215
REMARK 921   NORMALIZED FREE ENERGY PREDICTED BY IDOCK:   -2.68 KCAL/MOL
REMARK 922        TOTAL FREE ENERGY PREDICTED BY IDOCK:   -6.61 KCAL/MOL
REMARK 923 INTER-LIGAND FREE ENERGY PREDICTED BY IDOCK:   -6.11 KCAL/MOL
REMARK 924 INTRA-LIGAND FREE ENERGY PREDICTED BY IDOCK:   -0.50 KCAL/MOL
REMARK 927      BINDING AFFINITY PREDICTED BY RF-SCORE:    0.00 PKD
ROOT
HETATM    1  C   UNL     1     -12.078  11.963  69.751  1.00  0.00    -0.321 C  
HETATM    2  C   UNL     1     -12.523  12.125  71.196  1.00  0.00    -0.337 C  
ENDROOT
BRANCH   2   3
HETATM    3  C   UNL     1     -12.470  13.585  71.626  1.00  0.00    -0.229 C  
BRANCH   3   4
HETATM    4  C   UNL     1     -13.274  14.473  70.677  1.00  0.00    -0.228 C  
BRANCH   4   5
HETATM    5  C   UNL     1     -12.464  15.704  70.298  1.00  0.00    -0.369 C  
BRANCH   5   6
HETATM    6  C   UNL     1     -11.014  15.360  69.958  1.00  0.00    -0.313 C  
BRANCH   6   7
HETATM    7  C   UNL     1     -10.732  15.787  68.520  1.00  0.00    -0.274 C  
BRANCH   7   8
HETATM    8  C   UNL     1     -10.927  14.647  67.525  1.00  0.00    -0.298 C  
BRANCH   8   9
HETATM    9  N   UNL     1     -10.202  14.896  66.172  1.00  0.00    -0.285 N  
HETATM   10  C   UNL     1     -10.429  13.715  65.227  1.00  0.00    -0.351 C  
HETATM   11  C   UNL     1     -10.718  16.182  65.526  1.00  0.00    -0.342 C  
BRANCH   9  12
HETATM   12  C   UNL     1      -8.690  15.034  66.507  1.00  0.00    -0.208 C  
BRANCH  12  13
HETATM   13  C   UNL     1      -8.365  16.321  67.257  1.00  0.00    -0.203 C  
BRANCH  13  14
HETATM   14  C   UNL     1      -7.110  17.007  66.724  1.00  0.00    -0.273 C  
BRANCH  14  15
HETATM   15  C   UNL     1      -6.838  18.256  67.561  1.00  0.00    -0.203 C  
BRANCH  15  16
HETATM   16  C   UNL     1      -8.043  18.660  68.400  1.00  0.00    -0.360 C  
BRANCH  16  17
HETATM   17  C   UNL     1      -8.708  19.901  67.807  1.00  0.00    -0.377 C  
BRANCH  17  18
HETATM   18  C   UNL     1     -10.207  19.692  67.623  1.00  0.00    -0.567 C  
HETATM   19  C   UNL     1     -10.593  19.758  66.154  1.00  0.00    -0.569 C  
ENDBRANCH  17  18
ENDBRANCH  16  17
ENDBRANCH  15  16
ENDBRANCH  14  15
ENDBRANCH  13  14
ENDBRANCH  12  13
ENDBRANCH   9  12
ENDBRANCH   8   9
ENDBRANCH   7   8
ENDBRANCH   6   7
ENDBRANCH   5   6
ENDBRANCH   4   5
ENDBRANCH   3   4
ENDBRANCH   2   3
TORSDOF 14
ENDMDL
MODEL      216
REMARK 921   NORMALIZED FREE ENERGY PREDICTED BY IDOCK:   -2.67 KCAL/MOL
REMARK 922        TOTAL FREE ENERGY PREDICTED BY IDOCK:   -6.58 KCAL/MOL
REMARK 923 INTER-LIGAND FREE ENERGY PREDICTED BY IDOCK:   -4.98 KCAL/MOL
REMARK 924 INTRA-LIGAND FREE ENERGY PREDICTED BY IDOCK:   -1.61 KCAL/MOL
REMARK 927      BINDING AFFINITY PREDICTED BY RF-SCORE:    0.00 PKD
ROOT
HETATM    1  C   UNL     1     -12.151  12.392  63.620  1.00  0.00    -0.648 C  
HETATM    2  C   UNL     1     -12.300  12.839  65.066  1.00  0.00    -0.559 C  
ENDROOT
BRANCH   2   3
HETATM    3  C   UNL     1     -11.330  12.093  65.974  1.00  0.00    -0.410 C  
BRANCH   3   4
HETATM    4  C   UNL     1     -11.303  12.703  67.375  1.00  0.00    -0.367 C  
BRANCH   4   5
HETATM    5  C   UNL     1     -11.957  11.758  68.372  1.00  0.00    -0.250 C  
BRANCH   5   6
HETATM    6  C   UNL     1     -10.994  11.326  69.477  1.00  0.00    -0.249 C  
BRANCH   6   7
HETATM    7  C   UNL     1     -11.361   9.914  69.925  1.00  0.00    -0.273 C  
BRANCH   7   8
HETATM    8  C   UNL     1     -10.562   9.464  71.145  1.00  0.00    -0.333 C  
BRANCH   8   9
HETATM    9  N   UNL     1     -10.911   8.017  71.596  1.00  0.00    -0.230 N  
HETATM   10  C   UNL     1     -12.124   8.032  72.525  1.00  0.00    -0.284 C  
HETATM   11  C   UNL     1     -11.203   7.142  70.376  1.00  0.00    -0.287 C  
BRANCH   9  12
HETATM   12  C   UNL     1      -9.661   7.482  72.351  1.00  0.00    -0.161 C  
BRANCH  12  13
HETATM   13  C   UNL     1      -8.359   8.100  71.851  1.00  0.00    -0.187 C  
BRANCH  13  14
HETATM   14  C   UNL     1      -7.488   7.097  71.099  1.00  0.00    -0.080 C  
BRANCH  14  15
HETATM   15  C   UNL     1      -7.618   7.361  69.599  1.00  0.00    -0.095 C  
BRANCH  15  16
HETATM   16  C   UNL     1      -7.325   8.811  69.242  1.00  0.00    -0.070 C  
BRANCH  16  17
HETATM   17  C   UNL     1      -8.058   9.197  67.958  1.00  0.00    -0.105 C  
BRANCH  17  18
HETATM   18  C   UNL     1      -8.941   8.058  67.461  1.00  0.00    -0.143 C  
HETATM   19  C   UNL     1      -9.543   8.384  66.104  1.00  0.00    -0.246 C  
ENDBRANCH  17  18
ENDBRANCH  16  17
ENDBRANCH  15  16
ENDBRANCH  14  15
ENDBRANCH  13  14
ENDBRANCH  12  13
ENDBRANCH   9  12
ENDBRANCH   8   9
ENDBRANCH   7   8
ENDBRANCH   6   7
ENDBRANCH   5   6
ENDBRANCH   4   5
ENDBRANCH   3   4
ENDBRANCH   2   3
TORSDOF 14
ENDMDL
MODEL      217
REMARK 921   NORMALIZED FREE ENERGY PREDICTED BY IDOCK:   -2.66 KCAL/MOL
REMARK 922        TOTAL FREE ENERGY PREDICTED BY IDOCK:   -6.58 KCAL/MOL
REMARK 923 INTER-LIGAND FREE ENERGY PREDICTED BY IDOCK:   -5.98 KCAL/MOL
REMARK 924 INTRA-LIGAND FREE ENERGY PREDICTED BY IDOCK:   -0.60 KCAL/MOL
REMARK 927      BINDING AFFINITY PREDICTED BY RF-SCORE:    0.00 PKD
ROOT
HETATM    1  C   UNL     1      -8.006   7.760  72.539  1.00  0.00    -0.143 C  
HETATM    2  C   UNL     1      -7.647   8.818  71.507  1.00  0.00    -0.130 C  
ENDROOT
BRANCH   2   3
HETATM    3  C   UNL     1      -8.710   8.906  70.418  1.00  0.00    -0.200 C  
BRANCH   3   4
HETATM    4  C   UNL     1     -10.105   9.069  71.019  1.00  0.00    -0.352 C  
BRANCH   4   5
HETATM    5  C   UNL     1     -10.933  10.025  70.172  1.00  0.00    -0.368 C  
BRANCH   5   6
HETATM    6  C   UNL     1     -10.112  10.661  69.050  1.00  0.00    -0.226 C  
BRANCH   6   7
HETATM    7  C   UNL     1     -10.866  11.877  68.519  1.00  0.00    -0.257 C  
BRANCH   7   8
HETATM    8  C   UNL     1     -11.534  11.606  67.174  1.00  0.00    -0.271 C  
BRANCH   8   9
HETATM    9  N   UNL     1     -11.702  12.890  66.313  1.00  0.00    -0.379 N  
HETATM   10  C   UNL     1     -12.587  12.601  65.101  1.00  0.00    -0.386 C  
HETATM   11  C   UNL     1     -12.322  14.009  67.152  1.00  0.00    -0.199 C  
BRANCH   9  12
HETATM   12  C   UNL     1     -10.273  13.296  65.852  1.00  0.00    -0.293 C  
BRANCH  12  13
HETATM   13  C   UNL     1     -10.246  14.632  65.117  1.00  0.00    -0.414 C  
BRANCH  13  14
HETATM   14  C   UNL     1      -9.384  15.673  65.829  1.00  0.00    -0.303 C  
BRANCH  14  15
HETATM   15  C   UNL     1     -10.295  16.763  66.392  1.00  0.00    -0.309 C  
BRANCH  15  16
HETATM   16  C   UNL     1      -9.638  18.136  66.358  1.00  0.00    -0.298 C  
BRANCH  16  17
HETATM   17  C   UNL     1     -10.655  19.217  66.722  1.00  0.00    -0.528 C  
BRANCH  17  18
HETATM   18  C   UNL     1     -10.137  20.110  67.844  1.00  0.00    -0.533 C  
HETATM   19  C   UNL     1      -8.854  19.554  68.439  1.00  0.00    -0.389 C  
ENDBRANCH  17  18
ENDBRANCH  16  17
ENDBRANCH  15  16
ENDBRANCH  14  15
ENDBRANCH  13  14
ENDBRANCH  12  13
ENDBRANCH   9  12
ENDBRANCH   8   9
ENDBRANCH   7   8
ENDBRANCH   6   7
ENDBRANCH   5   6
ENDBRANCH   4   5
ENDBRANCH   3   4
ENDBRANCH   2   3
TORSDOF 14
ENDMDL
MODEL      218
REMARK 921   NORMALIZED FREE ENERGY PREDICTED BY IDOCK:   -2.66 KCAL/MOL
REMARK 922        TOTAL FREE ENERGY PREDICTED BY IDOCK:   -6.57 KCAL/MOL
REMARK 923 INTER-LIGAND FREE ENERGY PREDICTED BY IDOCK:   -5.86 KCAL/MOL
REMARK 924 INTRA-LIGAND FREE ENERGY PREDICTED BY IDOCK:   -0.71 KCAL/MOL
REMARK 927      BINDING AFFINITY PREDICTED BY RF-SCORE:    0.00 PKD
ROOT
HETATM    1  C   UNL     1      -8.794   4.626  69.396  1.00  0.00    -0.124 C  
HETATM    2  C   UNL     1      -9.482   5.571  70.368  1.00  0.00    -0.209 C  
ENDROOT
BRANCH   2   3
HETATM    3  C   UNL     1     -10.866   5.964  69.867  1.00  0.00    -0.439 C  
BRANCH   3   4
HETATM    4  C   UNL     1     -11.016   7.483  69.788  1.00  0.00    -0.195 C  
BRANCH   4   5
HETATM    5  C   UNL     1     -10.069   8.050  68.741  1.00  0.00    -0.206 C  
BRANCH   5   6
HETATM    6  C   UNL     1     -10.677   9.234  67.991  1.00  0.00    -0.231 C  
BRANCH   6   7
HETATM    7  C   UNL     1     -10.645  10.460  68.900  1.00  0.00    -0.241 C  
BRANCH   7   8
HETATM    8  C   UNL     1     -11.830  11.392  68.663  1.00  0.00    -0.310 C  
BRANCH   8   9
HETATM    9  N   UNL     1     -11.414  12.747  68.023  1.00  0.00    -0.296 N  
HETATM   10  C   UNL     1      -9.891  12.859  67.968  1.00  0.00    -0.223 C  
HETATM   11  C   UNL     1     -11.994  12.863  66.612  1.00  0.00    -0.366 C  
BRANCH   9  12
HETATM   12  C   UNL     1     -12.003  13.859  68.937  1.00  0.00    -0.358 C  
BRANCH  12  13
HETATM   13  C   UNL     1     -10.937  14.810  69.473  1.00  0.00    -0.287 C  
BRANCH  13  14
HETATM   14  C   UNL     1     -11.254  16.272  69.168  1.00  0.00    -0.309 C  
BRANCH  14  15
HETATM   15  C   UNL     1     -10.321  16.756  68.059  1.00  0.00    -0.317 C  
BRANCH  15  16
HETATM   16  C   UNL     1      -9.424  17.898  68.518  1.00  0.00    -0.316 C  
BRANCH  16  17
HETATM   17  C   UNL     1     -10.025  19.240  68.103  1.00  0.00    -0.482 C  
BRANCH  17  18
HETATM   18  C   UNL     1      -9.586  19.632  66.696  1.00  0.00    -0.479 C  
HETATM   19  C   UNL     1     -10.778  19.728  65.758  1.00  0.00    -0.474 C  
ENDBRANCH  17  18
ENDBRANCH  16  17
ENDBRANCH  15  16
ENDBRANCH  14  15
ENDBRANCH  13  14
ENDBRANCH  12  13
ENDBRANCH   9  12
ENDBRANCH   8   9
ENDBRANCH   7   8
ENDBRANCH   6   7
ENDBRANCH   5   6
ENDBRANCH   4   5
ENDBRANCH   3   4
ENDBRANCH   2   3
TORSDOF 14
ENDMDL
MODEL      219
REMARK 921   NORMALIZED FREE ENERGY PREDICTED BY IDOCK:   -2.65 KCAL/MOL
REMARK 922        TOTAL FREE ENERGY PREDICTED BY IDOCK:   -6.56 KCAL/MOL
REMARK 923 INTER-LIGAND FREE ENERGY PREDICTED BY IDOCK:   -5.56 KCAL/MOL
REMARK 924 INTRA-LIGAND FREE ENERGY PREDICTED BY IDOCK:   -1.00 KCAL/MOL
REMARK 927      BINDING AFFINITY PREDICTED BY RF-SCORE:    0.00 PKD
ROOT
HETATM    1  C   UNL     1      -9.741  20.444  67.298  1.00  0.00    -0.602 C  
HETATM    2  C   UNL     1     -10.134  19.797  65.980  1.00  0.00    -0.574 C  
ENDROOT
BRANCH   2   3
HETATM    3  C   UNL     1     -10.430  18.313  66.165  1.00  0.00    -0.403 C  
BRANCH   3   4
HETATM    4  C   UNL     1     -10.449  17.931  67.644  1.00  0.00    -0.406 C  
BRANCH   4   5
HETATM    5  C   UNL     1     -10.465  16.417  67.795  1.00  0.00    -0.300 C  
BRANCH   5   6
HETATM    6  C   UNL     1     -10.621  15.704  66.452  1.00  0.00    -0.308 C  
BRANCH   6   7
HETATM    7  C   UNL     1     -11.611  14.555  66.617  1.00  0.00    -0.385 C  
BRANCH   7   8
HETATM    8  C   UNL     1     -11.541  13.920  68.003  1.00  0.00    -0.333 C  
BRANCH   8   9
HETATM    9  N   UNL     1     -11.135  12.420  67.961  1.00  0.00    -0.230 N  
HETATM   10  C   UNL     1     -11.432  11.755  69.305  1.00  0.00    -0.306 C  
HETATM   11  C   UNL     1     -11.897  11.699  66.847  1.00  0.00     0.093 C  
BRANCH   9  12
HETATM   12  C   UNL     1      -9.608  12.389  67.671  1.00  0.00    -0.193 C  
BRANCH  12  13
HETATM   13  C   UNL     1      -9.269  11.702  66.352  1.00  0.00    -0.219 C  
BRANCH  13  14
HETATM   14  C   UNL     1      -8.296  10.539  66.533  1.00  0.00    -0.141 C  
BRANCH  14  15
HETATM   15  C   UNL     1      -8.991   9.435  67.328  1.00  0.00    -0.143 C  
BRANCH  15  16
HETATM   16  C   UNL     1      -9.595   8.368  66.424  1.00  0.00    -0.307 C  
BRANCH  16  17
HETATM   17  C   UNL     1     -10.666   7.582  67.179  1.00  0.00    -0.379 C  
BRANCH  17  18
HETATM   18  C   UNL     1     -10.117   7.010  68.481  1.00  0.00    -0.171 C  
HETATM   19  C   UNL     1     -11.161   7.063  69.585  1.00  0.00    -0.254 C  
ENDBRANCH  17  18
ENDBRANCH  16  17
ENDBRANCH  15  16
ENDBRANCH  14  15
ENDBRANCH  13  14
ENDBRANCH  12  13
ENDBRANCH   9  12
ENDBRANCH   8   9
ENDBRANCH   7   8
ENDBRANCH   6   7
ENDBRANCH   5   6
ENDBRANCH   4   5
ENDBRANCH   3   4
ENDBRANCH   2   3
TORSDOF 14
ENDMDL
MODEL      220
REMARK 921   NORMALIZED FREE ENERGY PREDICTED BY IDOCK:   -2.65 KCAL/MOL
REMARK 922        TOTAL FREE ENERGY PREDICTED BY IDOCK:   -6.56 KCAL/MOL
REMARK 923 INTER-LIGAND FREE ENERGY PREDICTED BY IDOCK:   -4.78 KCAL/MOL
REMARK 924 INTRA-LIGAND FREE ENERGY PREDICTED BY IDOCK:   -1.78 KCAL/MOL
REMARK 927      BINDING AFFINITY PREDICTED BY RF-SCORE:    0.00 PKD
ROOT
HETATM    1  C   UNL     1      -8.218   3.745  64.362  1.00  0.00    -0.090 C  
HETATM    2  C   UNL     1      -8.419   5.243  64.530  1.00  0.00    -0.133 C  
ENDROOT
BRANCH   2   3
HETATM    3  C   UNL     1      -8.639   5.607  65.993  1.00  0.00    -0.137 C  
BRANCH   3   4
HETATM    4  C   UNL     1      -9.872   4.903  66.560  1.00  0.00    -0.225 C  
BRANCH   4   5
HETATM    5  C   UNL     1      -9.884   5.008  68.078  1.00  0.00    -0.202 C  
BRANCH   5   6
HETATM    6  C   UNL     1     -10.724   6.187  68.570  1.00  0.00    -0.365 C  
BRANCH   6   7
HETATM    7  C   UNL     1     -11.062   5.970  70.042  1.00  0.00    -0.451 C  
BRANCH   7   8
HETATM    8  C   UNL     1     -10.211   6.832  70.968  1.00  0.00    -0.197 C  
BRANCH   8   9
HETATM    9  N   UNL     1     -11.062   7.751  71.891  1.00  0.00    -0.247 N  
HETATM   10  C   UNL     1     -12.551   7.552  71.604  1.00  0.00    -0.348 C  
HETATM   11  C   UNL     1     -10.772   7.436  73.359  1.00  0.00    -0.357 C  
BRANCH   9  12
HETATM   12  C   UNL     1     -10.641   9.210  71.562  1.00  0.00    -0.358 C  
BRANCH  12  13
HETATM   13  C   UNL     1      -9.451   9.282  70.610  1.00  0.00    -0.333 C  
BRANCH  13  14
HETATM   14  C   UNL     1      -9.686  10.252  69.455  1.00  0.00    -0.242 C  
BRANCH  14  15
HETATM   15  C   UNL     1     -10.983   9.866  68.745  1.00  0.00    -0.217 C  
BRANCH  15  16
HETATM   16  C   UNL     1     -10.915  10.117  67.244  1.00  0.00    -0.250 C  
BRANCH  16  17
HETATM   17  C   UNL     1      -9.999   9.092  66.579  1.00  0.00    -0.359 C  
BRANCH  17  18
HETATM   18  C   UNL     1      -8.810   9.767  65.904  1.00  0.00    -0.175 C  
HETATM   19  C   UNL     1      -7.498   9.155  66.367  1.00  0.00    -0.092 C  
ENDBRANCH  17  18
ENDBRANCH  16  17
ENDBRANCH  15  16
ENDBRANCH  14  15
ENDBRANCH  13  14
ENDBRANCH  12  13
ENDBRANCH   9  12
ENDBRANCH   8   9
ENDBRANCH   7   8
ENDBRANCH   6   7
ENDBRANCH   5   6
ENDBRANCH   4   5
ENDBRANCH   3   4
ENDBRANCH   2   3
TORSDOF 14
ENDMDL
MODEL      221
REMARK 921   NORMALIZED FREE ENERGY PREDICTED BY IDOCK:   -2.65 KCAL/MOL
REMARK 922        TOTAL FREE ENERGY PREDICTED BY IDOCK:   -6.56 KCAL/MOL
REMARK 923 INTER-LIGAND FREE ENERGY PREDICTED BY IDOCK:   -5.93 KCAL/MOL
REMARK 924 INTRA-LIGAND FREE ENERGY PREDICTED BY IDOCK:   -0.63 KCAL/MOL
REMARK 927      BINDING AFFINITY PREDICTED BY RF-SCORE:    0.00 PKD
ROOT
HETATM    1  C   UNL     1      -6.424  10.285  62.376  1.00  0.00    -0.136 C  
HETATM    2  C   UNL     1      -7.179   9.091  62.940  1.00  0.00    -0.095 C  
ENDROOT
BRANCH   2   3
HETATM    3  C   UNL     1      -8.622   9.457  63.265  1.00  0.00    -0.218 C  
BRANCH   3   4
HETATM    4  C   UNL     1      -9.114  10.607  62.386  1.00  0.00    -0.322 C  
BRANCH   4   5
HETATM    5  C   UNL     1      -9.768  11.680  63.244  1.00  0.00    -0.390 C  
BRANCH   5   6
HETATM    6  C   UNL     1      -9.437  11.516  64.727  1.00  0.00    -0.129 C  
BRANCH   6   7
HETATM    7  C   UNL     1     -10.714  11.708  65.540  1.00  0.00    -0.333 C  
BRANCH   7   8
HETATM    8  C   UNL     1     -10.464  12.446  66.852  1.00  0.00    -0.224 C  
BRANCH   8   9
HETATM    9  N   UNL     1     -11.379  13.691  67.028  1.00  0.00    -0.312 N  
HETATM   10  C   UNL     1     -12.240  13.894  65.782  1.00  0.00    -0.460 C  
HETATM   11  C   UNL     1     -12.275  13.516  68.255  1.00  0.00    -0.113 C  
BRANCH   9  12
HETATM   12  C   UNL     1     -10.428  14.905  67.229  1.00  0.00    -0.263 C  
BRANCH  12  13
HETATM   13  C   UNL     1      -9.449  14.705  68.382  1.00  0.00    -0.209 C  
BRANCH  13  14
HETATM   14  C   UNL     1      -9.466  15.867  69.371  1.00  0.00    -0.248 C  
BRANCH  14  15
HETATM   15  C   UNL     1     -10.918  16.270  69.631  1.00  0.00    -0.346 C  
BRANCH  15  16
HETATM   16  C   UNL     1     -11.400  15.832  71.007  1.00  0.00    -0.437 C  
BRANCH  16  17
HETATM   17  C   UNL     1     -12.874  15.437  70.948  1.00  0.00    -0.536 C  
BRANCH  17  18
HETATM   18  C   UNL     1     -13.311  14.733  72.228  1.00  0.00    -0.488 C  
HETATM   19  C   UNL     1     -13.027  15.590  73.450  1.00  0.00    -0.673 C  
ENDBRANCH  17  18
ENDBRANCH  16  17
ENDBRANCH  15  16
ENDBRANCH  14  15
ENDBRANCH  13  14
ENDBRANCH  12  13
ENDBRANCH   9  12
ENDBRANCH   8   9
ENDBRANCH   7   8
ENDBRANCH   6   7
ENDBRANCH   5   6
ENDBRANCH   4   5
ENDBRANCH   3   4
ENDBRANCH   2   3
TORSDOF 14
ENDMDL
MODEL      222
REMARK 921   NORMALIZED FREE ENERGY PREDICTED BY IDOCK:   -2.65 KCAL/MOL
REMARK 922        TOTAL FREE ENERGY PREDICTED BY IDOCK:   -6.55 KCAL/MOL
REMARK 923 INTER-LIGAND FREE ENERGY PREDICTED BY IDOCK:   -6.04 KCAL/MOL
REMARK 924 INTRA-LIGAND FREE ENERGY PREDICTED BY IDOCK:   -0.51 KCAL/MOL
REMARK 927      BINDING AFFINITY PREDICTED BY RF-SCORE:    0.00 PKD
ROOT
HETATM    1  C   UNL     1      -8.927   4.791  63.453  1.00  0.00    -0.075 C  
HETATM    2  C   UNL     1      -8.056   5.369  64.558  1.00  0.00    -0.122 C  
ENDROOT
BRANCH   2   3
HETATM    3  C   UNL     1      -8.268   4.624  65.870  1.00  0.00    -0.111 C  
BRANCH   3   4
HETATM    4  C   UNL     1      -9.753   4.520  66.215  1.00  0.00    -0.216 C  
BRANCH   4   5
HETATM    5  C   UNL     1      -9.945   4.546  67.724  1.00  0.00    -0.126 C  
BRANCH   5   6
HETATM    6  C   UNL     1     -10.570   5.855  68.206  1.00  0.00    -0.310 C  
BRANCH   6   7
HETATM    7  C   UNL     1     -10.505   5.899  69.730  1.00  0.00    -0.340 C  
BRANCH   7   8
HETATM    8  C   UNL     1     -11.695   6.631  70.342  1.00  0.00    -0.386 C  
BRANCH   8   9
HETATM    9  N   UNL     1     -11.272   7.822  71.248  1.00  0.00    -0.251 N  
HETATM   10  C   UNL     1     -11.257   7.390  72.715  1.00  0.00    -0.332 C  
HETATM   11  C   UNL     1      -9.885   8.325  70.842  1.00  0.00    -0.182 C  
BRANCH   9  12
HETATM   12  C   UNL     1     -12.332   8.937  71.026  1.00  0.00    -0.171 C  
BRANCH  12  13
HETATM   13  C   UNL     1     -11.739  10.341  71.104  1.00  0.00    -0.430 C  
BRANCH  13  14
HETATM   14  C   UNL     1     -12.774  11.427  70.822  1.00  0.00    -0.343 C  
BRANCH  14  15
HETATM   15  C   UNL     1     -13.266  11.995  72.152  1.00  0.00    -0.400 C  
BRANCH  15  16
HETATM   16  C   UNL     1     -13.712  13.446  72.030  1.00  0.00    -0.541 C  
BRANCH  16  17
HETATM   17  C   UNL     1     -12.506  14.378  72.118  1.00  0.00    -0.341 C  
BRANCH  17  18
HETATM   18  C   UNL     1     -12.819  15.613  72.955  1.00  0.00    -0.599 C  
HETATM   19  C   UNL     1     -12.380  15.423  74.398  1.00  0.00    -0.766 C  
ENDBRANCH  17  18
ENDBRANCH  16  17
ENDBRANCH  15  16
ENDBRANCH  14  15
ENDBRANCH  13  14
ENDBRANCH  12  13
ENDBRANCH   9  12
ENDBRANCH   8   9
ENDBRANCH   7   8
ENDBRANCH   6   7
ENDBRANCH   5   6
ENDBRANCH   4   5
ENDBRANCH   3   4
ENDBRANCH   2   3
TORSDOF 14
ENDMDL
MODEL      223
REMARK 921   NORMALIZED FREE ENERGY PREDICTED BY IDOCK:   -2.64 KCAL/MOL
REMARK 922        TOTAL FREE ENERGY PREDICTED BY IDOCK:   -6.53 KCAL/MOL
REMARK 923 INTER-LIGAND FREE ENERGY PREDICTED BY IDOCK:   -5.05 KCAL/MOL
REMARK 924 INTRA-LIGAND FREE ENERGY PREDICTED BY IDOCK:   -1.48 KCAL/MOL
REMARK 927      BINDING AFFINITY PREDICTED BY RF-SCORE:    0.00 PKD
ROOT
HETATM    1  C   UNL     1      -6.077   9.143  69.469  1.00  0.00    -0.036 C  
HETATM    2  C   UNL     1      -6.901   9.432  68.224  1.00  0.00    -0.063 C  
ENDROOT
BRANCH   2   3
HETATM    3  C   UNL     1      -6.196  10.436  67.320  1.00  0.00    -0.058 C  
BRANCH   3   4
HETATM    4  C   UNL     1      -7.154  11.531  66.854  1.00  0.00    -0.135 C  
BRANCH   4   5
HETATM    5  C   UNL     1      -6.795  12.856  67.509  1.00  0.00    -0.155 C  
BRANCH   5   6
HETATM    6  C   UNL     1      -7.946  13.422  68.340  1.00  0.00    -0.139 C  
BRANCH   6   7
HETATM    7  C   UNL     1      -8.266  14.829  67.844  1.00  0.00    -0.154 C  
BRANCH   7   8
HETATM    8  C   UNL     1      -8.978  14.823  66.495  1.00  0.00    -0.233 C  
BRANCH   8   9
HETATM    9  N   UNL     1     -10.405  15.438  66.562  1.00  0.00    -0.280 N  
HETATM   10  C   UNL     1     -10.425  16.619  67.532  1.00  0.00    -0.317 C  
HETATM   11  C   UNL     1     -10.844  15.901  65.172  1.00  0.00    -0.421 C  
BRANCH   9  12
HETATM   12  C   UNL     1     -11.343  14.307  67.071  1.00  0.00    -0.341 C  
BRANCH  12  13
HETATM   13  C   UNL     1     -12.176  13.683  65.956  1.00  0.00    -0.492 C  
BRANCH  13  14
HETATM   14  C   UNL     1     -11.798  12.228  65.689  1.00  0.00    -0.423 C  
BRANCH  14  15
HETATM   15  C   UNL     1     -10.841  11.760  66.784  1.00  0.00    -0.312 C  
BRANCH  15  16
HETATM   16  C   UNL     1     -11.520  10.834  67.784  1.00  0.00    -0.283 C  
BRANCH  16  17
HETATM   17  C   UNL     1     -10.871  10.977  69.160  1.00  0.00    -0.283 C  
BRANCH  17  18
HETATM   18  C   UNL     1     -11.848  11.556  70.177  1.00  0.00    -0.440 C  
HETATM   19  C   UNL     1     -12.516  10.455  70.984  1.00  0.00    -0.488 C  
ENDBRANCH  17  18
ENDBRANCH  16  17
ENDBRANCH  15  16
ENDBRANCH  14  15
ENDBRANCH  13  14
ENDBRANCH  12  13
ENDBRANCH   9  12
ENDBRANCH   8   9
ENDBRANCH   7   8
ENDBRANCH   6   7
ENDBRANCH   5   6
ENDBRANCH   4   5
ENDBRANCH   3   4
ENDBRANCH   2   3
TORSDOF 14
ENDMDL
MODEL      224
REMARK 921   NORMALIZED FREE ENERGY PREDICTED BY IDOCK:   -2.63 KCAL/MOL
REMARK 922        TOTAL FREE ENERGY PREDICTED BY IDOCK:   -6.53 KCAL/MOL
REMARK 923 INTER-LIGAND FREE ENERGY PREDICTED BY IDOCK:   -5.61 KCAL/MOL
REMARK 924 INTRA-LIGAND FREE ENERGY PREDICTED BY IDOCK:   -0.92 KCAL/MOL
REMARK 927      BINDING AFFINITY PREDICTED BY RF-SCORE:    0.00 PKD
ROOT
HETATM    1  C   UNL     1      -9.992  15.637  67.292  1.00  0.00    -0.236 C  
HETATM    2  C   UNL     1     -11.192  14.942  66.669  1.00  0.00    -0.340 C  
ENDROOT
BRANCH   2   3
HETATM    3  C   UNL     1     -11.210  15.128  65.157  1.00  0.00    -0.392 C  
BRANCH   3   4
HETATM    4  C   UNL     1     -11.937  13.975  64.466  1.00  0.00    -0.470 C  
BRANCH   4   5
HETATM    5  C   UNL     1     -12.057  12.789  65.411  1.00  0.00    -0.512 C  
BRANCH   5   6
HETATM    6  C   UNL     1     -11.198  11.605  64.967  1.00  0.00    -0.275 C  
BRANCH   6   7
HETATM    7  C   UNL     1      -9.862  11.665  65.699  1.00  0.00    -0.270 C  
BRANCH   7   8
HETATM    8  C   UNL     1      -9.673  10.498  66.664  1.00  0.00    -0.189 C  
BRANCH   8   9
HETATM    9  N   UNL     1      -9.396  10.959  68.124  1.00  0.00    -0.160 N  
HETATM   10  C   UNL     1      -8.107  11.778  68.182  1.00  0.00    -0.150 C  
HETATM   11  C   UNL     1     -10.566  11.796  68.642  1.00  0.00    -0.223 C  
BRANCH   9  12
HETATM   12  C   UNL     1      -9.248   9.663  68.969  1.00  0.00    -0.156 C  
BRANCH  12  13
HETATM   13  C   UNL     1     -10.398   8.683  68.756  1.00  0.00    -0.228 C  
BRANCH  13  14
HETATM   14  C   UNL     1     -10.819   7.986  70.048  1.00  0.00    -0.235 C  
BRANCH  14  15
HETATM   15  C   UNL     1     -11.097   6.515  69.745  1.00  0.00    -0.430 C  
BRANCH  15  16
HETATM   16  C   UNL     1     -10.738   5.608  70.914  1.00  0.00    -0.313 C  
BRANCH  16  17
HETATM   17  C   UNL     1     -11.532   6.010  72.156  1.00  0.00    -0.356 C  
BRANCH  17  18
HETATM   18  C   UNL     1     -10.938   5.394  73.418  1.00  0.00    -0.349 C  
HETATM   19  C   UNL     1     -11.110   3.884  73.424  1.00  0.00    -0.329 C  
ENDBRANCH  17  18
ENDBRANCH  16  17
ENDBRANCH  15  16
ENDBRANCH  14  15
ENDBRANCH  13  14
ENDBRANCH  12  13
ENDBRANCH   9  12
ENDBRANCH   8   9
ENDBRANCH   7   8
ENDBRANCH   6   7
ENDBRANCH   5   6
ENDBRANCH   4   5
ENDBRANCH   3   4
ENDBRANCH   2   3
TORSDOF 14
ENDMDL
MODEL      225
REMARK 921   NORMALIZED FREE ENERGY PREDICTED BY IDOCK:   -2.63 KCAL/MOL
REMARK 922        TOTAL FREE ENERGY PREDICTED BY IDOCK:   -6.52 KCAL/MOL
REMARK 923 INTER-LIGAND FREE ENERGY PREDICTED BY IDOCK:   -5.62 KCAL/MOL
REMARK 924 INTRA-LIGAND FREE ENERGY PREDICTED BY IDOCK:   -0.89 KCAL/MOL
REMARK 927      BINDING AFFINITY PREDICTED BY RF-SCORE:    0.00 PKD
ROOT
HETATM    1  C   UNL     1     -12.018  12.923  63.426  1.00  0.00    -0.612 C  
HETATM    2  C   UNL     1     -12.170  14.197  64.241  1.00  0.00    -0.449 C  
ENDROOT
BRANCH   2   3
HETATM    3  C   UNL     1     -12.651  13.892  65.654  1.00  0.00    -0.553 C  
BRANCH   3   4
HETATM    4  C   UNL     1     -12.017  12.609  66.190  1.00  0.00    -0.458 C  
BRANCH   4   5
HETATM    5  C   UNL     1     -10.802  12.941  67.045  1.00  0.00    -0.282 C  
BRANCH   5   6
HETATM    6  C   UNL     1     -10.950  12.439  68.481  1.00  0.00    -0.277 C  
BRANCH   6   7
HETATM    7  C   UNL     1     -11.309  10.957  68.448  1.00  0.00    -0.370 C  
BRANCH   7   8
HETATM    8  C   UNL     1     -11.547  10.384  69.842  1.00  0.00    -0.284 C  
BRANCH   8   9
HETATM    9  N   UNL     1     -10.771   9.060  70.093  1.00  0.00    -0.227 N  
HETATM   10  C   UNL     1     -10.531   8.331  68.771  1.00  0.00    -0.177 C  
HETATM   11  C   UNL     1      -9.433   9.355  70.772  1.00  0.00    -0.241 C  
BRANCH   9  12
HETATM   12  C   UNL     1     -11.667   8.199  71.027  1.00  0.00    -0.274 C  
BRANCH  12  13
HETATM   13  C   UNL     1     -11.644   6.717  70.668  1.00  0.00    -0.439 C  
BRANCH  13  14
HETATM   14  C   UNL     1     -10.847   5.886  71.671  1.00  0.00    -0.321 C  
BRANCH  14  15
HETATM   15  C   UNL     1     -10.274   4.665  70.953  1.00  0.00    -0.213 C  
BRANCH  15  16
HETATM   16  C   UNL     1      -9.182   5.040  69.960  1.00  0.00    -0.182 C  
BRANCH  16  17
HETATM   17  C   UNL     1      -8.160   5.961  70.624  1.00  0.00    -0.118 C  
BRANCH  17  18
HETATM   18  C   UNL     1      -7.309   6.684  69.585  1.00  0.00    -0.083 C  
HETATM   19  C   UNL     1      -6.832   5.726  68.505  1.00  0.00    -0.063 C  
ENDBRANCH  17  18
ENDBRANCH  16  17
ENDBRANCH  15  16
ENDBRANCH  14  15
ENDBRANCH  13  14
ENDBRANCH  12  13
ENDBRANCH   9  12
ENDBRANCH   8   9
ENDBRANCH   7   8
ENDBRANCH   6   7
ENDBRANCH   5   6
ENDBRANCH   4   5
ENDBRANCH   3   4
ENDBRANCH   2   3
TORSDOF 14
ENDMDL
MODEL      226
REMARK 921   NORMALIZED FREE ENERGY PREDICTED BY IDOCK:   -2.63 KCAL/MOL
REMARK 922        TOTAL FREE ENERGY PREDICTED BY IDOCK:   -6.52 KCAL/MOL
REMARK 923 INTER-LIGAND FREE ENERGY PREDICTED BY IDOCK:   -5.21 KCAL/MOL
REMARK 924 INTRA-LIGAND FREE ENERGY PREDICTED BY IDOCK:   -1.30 KCAL/MOL
REMARK 927      BINDING AFFINITY PREDICTED BY RF-SCORE:    0.00 PKD
ROOT
HETATM    1  C   UNL     1      -6.645  12.592  68.272  1.00  0.00    -0.073 C  
HETATM    2  C   UNL     1      -7.237  11.971  67.017  1.00  0.00    -0.096 C  
ENDROOT
BRANCH   2   3
HETATM    3  C   UNL     1      -6.703  10.560  66.798  1.00  0.00    -0.091 C  
BRANCH   3   4
HETATM    4  C   UNL     1      -7.834   9.584  66.476  1.00  0.00    -0.101 C  
BRANCH   4   5
HETATM    5  C   UNL     1      -8.888   9.622  67.573  1.00  0.00    -0.129 C  
BRANCH   5   6
HETATM    6  C   UNL     1     -10.309   9.635  67.009  1.00  0.00    -0.315 C  
BRANCH   6   7
HETATM    7  C   UNL     1     -10.959  10.973  67.348  1.00  0.00    -0.349 C  
BRANCH   7   8
HETATM    8  C   UNL     1     -11.100  11.877  66.127  1.00  0.00    -0.326 C  
BRANCH   8   9
HETATM    9  N   UNL     1     -11.498  13.335  66.496  1.00  0.00    -0.323 N  
HETATM   10  C   UNL     1     -12.580  13.844  65.545  1.00  0.00    -0.526 C  
HETATM   11  C   UNL     1     -12.006  13.392  67.938  1.00  0.00    -0.323 C  
BRANCH   9  12
HETATM   12  C   UNL     1     -10.207  14.189  66.349  1.00  0.00    -0.290 C  
BRANCH  12  13
HETATM   13  C   UNL     1     -10.393  15.387  65.424  1.00  0.00    -0.422 C  
BRANCH  13  14
HETATM   14  C   UNL     1     -10.049  16.710  66.106  1.00  0.00    -0.361 C  
BRANCH  14  15
HETATM   15  C   UNL     1     -10.706  16.737  67.485  1.00  0.00    -0.275 C  
BRANCH  15  16
HETATM   16  C   UNL     1      -9.829  17.417  68.527  1.00  0.00    -0.320 C  
BRANCH  16  17
HETATM   17  C   UNL     1      -8.550  16.612  68.746  1.00  0.00    -0.261 C  
BRANCH  17  18
HETATM   18  C   UNL     1      -7.311  17.485  68.583  1.00  0.00    -0.256 C  
HETATM   19  C   UNL     1      -7.664  18.960  68.678  1.00  0.00    -0.375 C  
ENDBRANCH  17  18
ENDBRANCH  16  17
ENDBRANCH  15  16
ENDBRANCH  14  15
ENDBRANCH  13  14
ENDBRANCH  12  13
ENDBRANCH   9  12
ENDBRANCH   8   9
ENDBRANCH   7   8
ENDBRANCH   6   7
ENDBRANCH   5   6
ENDBRANCH   4   5
ENDBRANCH   3   4
ENDBRANCH   2   3
TORSDOF 14
ENDMDL
MODEL      227
REMARK 921   NORMALIZED FREE ENERGY PREDICTED BY IDOCK:   -2.63 KCAL/MOL
REMARK 922        TOTAL FREE ENERGY PREDICTED BY IDOCK:   -6.51 KCAL/MOL
REMARK 923 INTER-LIGAND FREE ENERGY PREDICTED BY IDOCK:   -5.61 KCAL/MOL
REMARK 924 INTRA-LIGAND FREE ENERGY PREDICTED BY IDOCK:   -0.90 KCAL/MOL
REMARK 927      BINDING AFFINITY PREDICTED BY RF-SCORE:    0.00 PKD
ROOT
HETATM    1  C   UNL     1     -12.153  14.223  70.305  1.00  0.00    -0.403 C  
HETATM    2  C   UNL     1     -11.850  15.490  69.520  1.00  0.00    -0.390 C  
ENDROOT
BRANCH   2   3
HETATM    3  C   UNL     1     -10.359  15.804  69.538  1.00  0.00    -0.272 C  
BRANCH   3   4
HETATM    4  C   UNL     1     -10.047  17.057  68.720  1.00  0.00    -0.307 C  
BRANCH   4   5
HETATM    5  C   UNL     1      -9.091  16.719  67.586  1.00  0.00    -0.218 C  
BRANCH   5   6
HETATM    6  C   UNL     1      -9.817  16.526  66.255  1.00  0.00    -0.336 C  
BRANCH   6   7
HETATM    7  C   UNL     1      -9.904  15.032  65.956  1.00  0.00    -0.347 C  
BRANCH   7   8
HETATM    8  C   UNL     1     -11.341  14.565  65.742  1.00  0.00    -0.336 C  
BRANCH   8   9
HETATM    9  N   UNL     1     -11.474  13.015  65.712  1.00  0.00    -0.319 N  
HETATM   10  C   UNL     1     -11.752  12.482  67.117  1.00  0.00    -0.355 C  
HETATM   11  C   UNL     1     -12.605  12.603  64.769  1.00  0.00    -0.454 C  
BRANCH   9  12
HETATM   12  C   UNL     1     -10.115  12.471  65.189  1.00  0.00    -0.246 C  
BRANCH  12  13
HETATM   13  C   UNL     1      -9.507  11.415  66.107  1.00  0.00    -0.237 C  
BRANCH  13  14
HETATM   14  C   UNL     1      -9.898   9.996  65.703  1.00  0.00    -0.363 C  
BRANCH  14  15
HETATM   15  C   UNL     1      -9.708   9.072  66.906  1.00  0.00    -0.260 C  
BRANCH  15  16
HETATM   16  C   UNL     1      -8.254   9.000  67.353  1.00  0.00    -0.108 C  
BRANCH  16  17
HETATM   17  C   UNL     1      -8.093   9.645  68.728  1.00  0.00    -0.097 C  
BRANCH  17  18
HETATM   18  C   UNL     1      -9.442  10.046  69.314  1.00  0.00    -0.227 C  
HETATM   19  C   UNL     1      -9.664   9.400  70.672  1.00  0.00    -0.336 C  
ENDBRANCH  17  18
ENDBRANCH  16  17
ENDBRANCH  15  16
ENDBRANCH  14  15
ENDBRANCH  13  14
ENDBRANCH  12  13
ENDBRANCH   9  12
ENDBRANCH   8   9
ENDBRANCH   7   8
ENDBRANCH   6   7
ENDBRANCH   5   6
ENDBRANCH   4   5
ENDBRANCH   3   4
ENDBRANCH   2   3
TORSDOF 14
ENDMDL
MODEL      228
REMARK 921   NORMALIZED FREE ENERGY PREDICTED BY IDOCK:   -2.62 KCAL/MOL
REMARK 922        TOTAL FREE ENERGY PREDICTED BY IDOCK:   -6.50 KCAL/MOL
REMARK 923 INTER-LIGAND FREE ENERGY PREDICTED BY IDOCK:   -4.71 KCAL/MOL
REMARK 924 INTRA-LIGAND FREE ENERGY PREDICTED BY IDOCK:   -1.79 KCAL/MOL
REMARK 927      BINDING AFFINITY PREDICTED BY RF-SCORE:    0.00 PKD
ROOT
HETATM    1  C   UNL     1      -7.871   7.939  70.193  1.00  0.00    -0.097 C  
HETATM    2  C   UNL     1      -8.023   6.548  69.598  1.00  0.00    -0.120 C  
ENDROOT
BRANCH   2   3
HETATM    3  C   UNL     1      -7.850   5.473  70.664  1.00  0.00    -0.095 C  
BRANCH   3   4
HETATM    4  C   UNL     1      -9.197   5.047  71.246  1.00  0.00    -0.186 C  
BRANCH   4   5
HETATM    5  C   UNL     1      -9.087   4.876  72.754  1.00  0.00    -0.135 C  
BRANCH   5   6
HETATM    6  C   UNL     1      -9.776   6.008  73.515  1.00  0.00    -0.162 C  
BRANCH   6   7
HETATM    7  C   UNL     1     -10.946   6.521  72.681  1.00  0.00    -0.287 C  
BRANCH   7   8
HETATM    8  C   UNL     1     -11.149   8.027  72.827  1.00  0.00    -0.381 C  
BRANCH   8   9
HETATM    9  N   UNL     1     -12.096   8.616  71.744  1.00  0.00    -0.316 N  
HETATM   10  C   UNL     1     -12.374   7.573  70.662  1.00  0.00     0.013 C  
HETATM   11  C   UNL     1     -13.412   9.064  72.382  1.00  0.00    -0.470 C  
BRANCH   9  12
HETATM   12  C   UNL     1     -11.354   9.839  71.135  1.00  0.00    -0.389 C  
BRANCH  12  13
HETATM   13  C   UNL     1     -10.985   9.637  69.668  1.00  0.00    -0.253 C  
BRANCH  13  14
HETATM   14  C   UNL     1     -11.642  10.667  68.753  1.00  0.00    -0.309 C  
BRANCH  14  15
HETATM   15  C   UNL     1     -10.750  10.879  67.531  1.00  0.00    -0.299 C  
BRANCH  15  16
HETATM   16  C   UNL     1      -9.609   9.873  67.469  1.00  0.00    -0.183 C  
BRANCH  16  17
HETATM   17  C   UNL     1      -9.766   8.973  66.245  1.00  0.00    -0.345 C  
BRANCH  17  18
HETATM   18  C   UNL     1      -9.584   7.504  66.611  1.00  0.00    -0.263 C  
HETATM   19  C   UNL     1     -10.895   6.887  67.069  1.00  0.00    -0.436 C  
ENDBRANCH  17  18
ENDBRANCH  16  17
ENDBRANCH  15  16
ENDBRANCH  14  15
ENDBRANCH  13  14
ENDBRANCH  12  13
ENDBRANCH   9  12
ENDBRANCH   8   9
ENDBRANCH   7   8
ENDBRANCH   6   7
ENDBRANCH   5   6
ENDBRANCH   4   5
ENDBRANCH   3   4
ENDBRANCH   2   3
TORSDOF 14
ENDMDL
MODEL      229
REMARK 921   NORMALIZED FREE ENERGY PREDICTED BY IDOCK:   -2.62 KCAL/MOL
REMARK 922        TOTAL FREE ENERGY PREDICTED BY IDOCK:   -6.50 KCAL/MOL
REMARK 923 INTER-LIGAND FREE ENERGY PREDICTED BY IDOCK:   -5.22 KCAL/MOL
REMARK 924 INTRA-LIGAND FREE ENERGY PREDICTED BY IDOCK:   -1.28 KCAL/MOL
REMARK 927      BINDING AFFINITY PREDICTED BY RF-SCORE:    0.00 PKD
ROOT
HETATM    1  C   UNL     1     -11.332  10.185  69.458  1.00  0.00    -0.260 C  
HETATM    2  C   UNL     1     -10.017   9.528  69.068  1.00  0.00    -0.185 C  
ENDROOT
BRANCH   2   3
HETATM    3  C   UNL     1      -8.886  10.547  69.020  1.00  0.00    -0.174 C  
BRANCH   3   4
HETATM    4  C   UNL     1      -8.430  10.803  67.584  1.00  0.00    -0.119 C  
BRANCH   4   5
HETATM    5  C   UNL     1      -8.843   9.643  66.689  1.00  0.00    -0.153 C  
BRANCH   5   6
HETATM    6  C   UNL     1      -9.570  10.115  65.430  1.00  0.00    -0.325 C  
BRANCH   6   7
HETATM    7  C   UNL     1     -10.779  10.948  65.844  1.00  0.00    -0.193 C  
BRANCH   7   8
HETATM    8  C   UNL     1     -11.077  12.073  64.857  1.00  0.00    -0.316 C  
BRANCH   8   9
HETATM    9  N   UNL     1     -11.285  13.448  65.553  1.00  0.00    -0.287 N  
HETATM   10  C   UNL     1     -12.165  14.350  64.687  1.00  0.00    -0.464 C  
HETATM   11  C   UNL     1     -11.936  13.251  66.923  1.00  0.00    -0.375 C  
BRANCH   9  12
HETATM   12  C   UNL     1      -9.871  14.073  65.717  1.00  0.00    -0.256 C  
BRANCH  12  13
HETATM   13  C   UNL     1      -9.454  14.218  67.177  1.00  0.00    -0.229 C  
BRANCH  13  14
HETATM   14  C   UNL     1      -8.707  15.523  67.443  1.00  0.00    -0.194 C  
BRANCH  14  15
HETATM   15  C   UNL     1      -8.952  16.477  66.275  1.00  0.00    -0.359 C  
BRANCH  15  16
HETATM   16  C   UNL     1      -8.508  17.899  66.591  1.00  0.00    -0.281 C  
BRANCH  16  17
HETATM   17  C   UNL     1      -9.313  18.455  67.763  1.00  0.00    -0.283 C  
BRANCH  17  18
HETATM   18  C   UNL     1     -10.535  19.228  67.280  1.00  0.00    -0.566 C  
HETATM   19  C   UNL     1     -10.235  20.714  67.168  1.00  0.00    -0.201 C  
ENDBRANCH  17  18
ENDBRANCH  16  17
ENDBRANCH  15  16
ENDBRANCH  14  15
ENDBRANCH  13  14
ENDBRANCH  12  13
ENDBRANCH   9  12
ENDBRANCH   8   9
ENDBRANCH   7   8
ENDBRANCH   6   7
ENDBRANCH   5   6
ENDBRANCH   4   5
ENDBRANCH   3   4
ENDBRANCH   2   3
TORSDOF 14
ENDMDL
MODEL      230
REMARK 921   NORMALIZED FREE ENERGY PREDICTED BY IDOCK:   -2.62 KCAL/MOL
REMARK 922        TOTAL FREE ENERGY PREDICTED BY IDOCK:   -6.50 KCAL/MOL
REMARK 923 INTER-LIGAND FREE ENERGY PREDICTED BY IDOCK:   -5.46 KCAL/MOL
REMARK 924 INTRA-LIGAND FREE ENERGY PREDICTED BY IDOCK:   -1.04 KCAL/MOL
REMARK 927      BINDING AFFINITY PREDICTED BY RF-SCORE:    0.00 PKD
ROOT
HETATM    1  C   UNL     1      -7.472  20.071  66.356  1.00  0.00    -0.313 C  
HETATM    2  C   UNL     1      -7.867  20.123  67.823  1.00  0.00    -0.309 C  
ENDROOT
BRANCH   2   3
HETATM    3  C   UNL     1      -6.668  19.856  68.724  1.00  0.00    -0.358 C  
BRANCH   3   4
HETATM    4  C   UNL     1      -5.689  18.882  68.071  1.00  0.00    -0.195 C  
BRANCH   4   5
HETATM    5  C   UNL     1      -5.453  17.685  68.981  1.00  0.00    -0.175 C  
BRANCH   5   6
HETATM    6  C   UNL     1      -6.761  17.043  69.442  1.00  0.00    -0.208 C  
BRANCH   6   7
HETATM    7  C   UNL     1      -7.499  16.499  68.223  1.00  0.00    -0.171 C  
BRANCH   7   8
HETATM    8  C   UNL     1      -8.799  15.794  68.595  1.00  0.00    -0.199 C  
BRANCH   8   9
HETATM    9  N   UNL     1      -9.848  15.815  67.447  1.00  0.00    -0.231 N  
HETATM   10  C   UNL     1     -11.249  15.565  68.007  1.00  0.00    -0.332 C  
HETATM   11  C   UNL     1      -9.812  17.163  66.725  1.00  0.00    -0.285 C  
BRANCH   9  12
HETATM   12  C   UNL     1      -9.448  14.674  66.470  1.00  0.00    -0.297 C  
BRANCH  12  13
HETATM   13  C   UNL     1      -8.782  13.497  67.176  1.00  0.00    -0.222 C  
BRANCH  13  14
HETATM   14  C   UNL     1      -9.668  12.254  67.202  1.00  0.00    -0.203 C  
BRANCH  14  15
HETATM   15  C   UNL     1      -9.149  11.258  66.166  1.00  0.00    -0.216 C  
BRANCH  15  16
HETATM   16  C   UNL     1     -10.279  10.575  65.408  1.00  0.00    -0.340 C  
BRANCH  16  17
HETATM   17  C   UNL     1     -10.125  10.811  63.907  1.00  0.00    -0.397 C  
BRANCH  17  18
HETATM   18  C   UNL     1     -10.310  12.283  63.556  1.00  0.00    -0.443 C  
HETATM   19  C   UNL     1     -11.760  12.708  63.724  1.00  0.00    -0.566 C  
ENDBRANCH  17  18
ENDBRANCH  16  17
ENDBRANCH  15  16
ENDBRANCH  14  15
ENDBRANCH  13  14
ENDBRANCH  12  13
ENDBRANCH   9  12
ENDBRANCH   8   9
ENDBRANCH   7   8
ENDBRANCH   6   7
ENDBRANCH   5   6
ENDBRANCH   4   5
ENDBRANCH   3   4
ENDBRANCH   2   3
TORSDOF 14
ENDMDL
MODEL      231
REMARK 921   NORMALIZED FREE ENERGY PREDICTED BY IDOCK:   -2.62 KCAL/MOL
REMARK 922        TOTAL FREE ENERGY PREDICTED BY IDOCK:   -6.50 KCAL/MOL
REMARK 923 INTER-LIGAND FREE ENERGY PREDICTED BY IDOCK:   -4.47 KCAL/MOL
REMARK 924 INTRA-LIGAND FREE ENERGY PREDICTED BY IDOCK:   -2.02 KCAL/MOL
REMARK 927      BINDING AFFINITY PREDICTED BY RF-SCORE:    0.00 PKD
ROOT
HETATM    1  C   UNL     1     -10.921   6.363  67.400  1.00  0.00    -0.463 C  
HETATM    2  C   UNL     1     -11.228   6.461  68.885  1.00  0.00    -0.385 C  
ENDROOT
BRANCH   2   3
HETATM    3  C   UNL     1     -10.460   5.408  69.676  1.00  0.00    -0.361 C  
BRANCH   3   4
HETATM    4  C   UNL     1     -10.669   5.583  71.180  1.00  0.00    -0.280 C  
BRANCH   4   5
HETATM    5  C   UNL     1     -11.552   6.792  71.450  1.00  0.00    -0.350 C  
BRANCH   5   6
HETATM    6  C   UNL     1     -11.227   7.458  72.787  1.00  0.00    -0.380 C  
BRANCH   6   7
HETATM    7  C   UNL     1     -10.050   8.408  72.590  1.00  0.00    -0.322 C  
BRANCH   7   8
HETATM    8  C   UNL     1      -8.823   7.990  73.395  1.00  0.00    -0.269 C  
BRANCH   8   9
HETATM    9  N   UNL     1      -7.576   7.725  72.503  1.00  0.00    -0.091 N  
HETATM   10  C   UNL     1      -6.353   8.435  73.083  1.00  0.00    -0.102 C  
HETATM   11  C   UNL     1      -7.307   6.223  72.408  1.00  0.00    -0.092 C  
BRANCH   9  12
HETATM   12  C   UNL     1      -7.915   8.299  71.098  1.00  0.00    -0.102 C  
BRANCH  12  13
HETATM   13  C   UNL     1      -7.486   7.375  69.963  1.00  0.00    -0.084 C  
BRANCH  13  14
HETATM   14  C   UNL     1      -7.528   8.065  68.602  1.00  0.00    -0.098 C  
BRANCH  14  15
HETATM   15  C   UNL     1      -8.697   9.049  68.585  1.00  0.00    -0.133 C  
BRANCH  15  16
HETATM   16  C   UNL     1      -8.263  10.451  68.178  1.00  0.00    -0.116 C  
BRANCH  16  17
HETATM   17  C   UNL     1      -9.324  11.093  67.285  1.00  0.00    -0.170 C  
BRANCH  17  18
HETATM   18  C   UNL     1     -10.169  10.037  66.582  1.00  0.00    -0.288 C  
HETATM   19  C   UNL     1      -9.851   9.981  65.096  1.00  0.00    -0.388 C  
ENDBRANCH  17  18
ENDBRANCH  16  17
ENDBRANCH  15  16
ENDBRANCH  14  15
ENDBRANCH  13  14
ENDBRANCH  12  13
ENDBRANCH   9  12
ENDBRANCH   8   9
ENDBRANCH   7   8
ENDBRANCH   6   7
ENDBRANCH   5   6
ENDBRANCH   4   5
ENDBRANCH   3   4
ENDBRANCH   2   3
TORSDOF 14
ENDMDL
MODEL      232
REMARK 921   NORMALIZED FREE ENERGY PREDICTED BY IDOCK:   -2.62 KCAL/MOL
REMARK 922        TOTAL FREE ENERGY PREDICTED BY IDOCK:   -6.49 KCAL/MOL
REMARK 923 INTER-LIGAND FREE ENERGY PREDICTED BY IDOCK:   -5.35 KCAL/MOL
REMARK 924 INTRA-LIGAND FREE ENERGY PREDICTED BY IDOCK:   -1.14 KCAL/MOL
REMARK 927      BINDING AFFINITY PREDICTED BY RF-SCORE:    0.00 PKD
ROOT
HETATM    1  C   UNL     1     -11.206  12.291  63.575  1.00  0.00    -0.535 C  
HETATM    2  C   UNL     1     -11.869  12.183  64.939  1.00  0.00    -0.366 C  
ENDROOT
BRANCH   2   3
HETATM    3  C   UNL     1     -12.613  13.465  65.291  1.00  0.00    -0.518 C  
BRANCH   3   4
HETATM    4  C   UNL     1     -12.210  13.978  66.673  1.00  0.00    -0.463 C  
BRANCH   4   5
HETATM    5  C   UNL     1     -10.693  14.013  66.797  1.00  0.00    -0.285 C  
BRANCH   5   6
HETATM    6  C   UNL     1     -10.237  14.257  68.235  1.00  0.00    -0.244 C  
BRANCH   6   7
HETATM    7  C   UNL     1      -9.410  13.061  68.698  1.00  0.00     0.009 C  
BRANCH   7   8
HETATM    8  C   UNL     1      -9.401  11.929  67.674  1.00  0.00    -0.183 C  
BRANCH   8   9
HETATM    9  N   UNL     1      -9.762  10.549  68.295  1.00  0.00    -0.150 N  
HETATM   10  C   UNL     1     -10.432   9.659  67.248  1.00  0.00    -0.258 C  
HETATM   11  C   UNL     1      -8.502   9.866  68.827  1.00  0.00    -0.122 C  
BRANCH   9  12
HETATM   12  C   UNL     1     -10.747  10.841  69.463  1.00  0.00    -0.226 C  
BRANCH  12  13
HETATM   13  C   UNL     1     -10.490   9.966  70.685  1.00  0.00    -0.301 C  
BRANCH  13  14
HETATM   14  C   UNL     1     -11.556   8.886  70.864  1.00  0.00    -0.331 C  
BRANCH  14  15
HETATM   15  C   UNL     1     -10.879   7.517  70.822  1.00  0.00    -0.253 C  
BRANCH  15  16
HETATM   16  C   UNL     1     -11.674   6.507  70.006  1.00  0.00    -0.388 C  
BRANCH  16  17
HETATM   17  C   UNL     1     -11.024   6.306  68.638  1.00  0.00    -0.423 C  
BRANCH  17  18
HETATM   18  C   UNL     1      -9.535   6.006  68.770  1.00  0.00    -0.137 C  
HETATM   19  C   UNL     1      -9.222   4.583  68.336  1.00  0.00    -0.178 C  
ENDBRANCH  17  18
ENDBRANCH  16  17
ENDBRANCH  15  16
ENDBRANCH  14  15
ENDBRANCH  13  14
ENDBRANCH  12  13
ENDBRANCH   9  12
ENDBRANCH   8   9
ENDBRANCH   7   8
ENDBRANCH   6   7
ENDBRANCH   5   6
ENDBRANCH   4   5
ENDBRANCH   3   4
ENDBRANCH   2   3
TORSDOF 14
ENDMDL
MODEL      233
REMARK 921   NORMALIZED FREE ENERGY PREDICTED BY IDOCK:   -2.61 KCAL/MOL
REMARK 922        TOTAL FREE ENERGY PREDICTED BY IDOCK:   -6.48 KCAL/MOL
REMARK 923 INTER-LIGAND FREE ENERGY PREDICTED BY IDOCK:   -4.75 KCAL/MOL
REMARK 924 INTRA-LIGAND FREE ENERGY PREDICTED BY IDOCK:   -1.73 KCAL/MOL
REMARK 927      BINDING AFFINITY PREDICTED BY RF-SCORE:    0.00 PKD
ROOT
HETATM    1  C   UNL     1      -5.653  13.082  69.335  1.00  0.00    -0.084 C  
HETATM    2  C   UNL     1      -6.243  14.125  68.400  1.00  0.00    -0.103 C  
ENDROOT
BRANCH   2   3
HETATM    3  C   UNL     1      -7.440  13.566  67.639  1.00  0.00    -0.187 C  
BRANCH   3   4
HETATM    4  C   UNL     1      -8.416  14.676  67.249  1.00  0.00    -0.234 C  
BRANCH   4   5
HETATM    5  C   UNL     1      -9.409  14.162  66.217  1.00  0.00    -0.215 C  
BRANCH   5   6
HETATM    6  C   UNL     1     -10.421  15.231  65.806  1.00  0.00    -0.365 C  
BRANCH   6   7
HETATM    7  C   UNL     1      -9.688  16.556  65.621  1.00  0.00    -0.124 C  
BRANCH   7   8
HETATM    8  C   UNL     1     -10.387  17.713  66.329  1.00  0.00    -0.342 C  
BRANCH   8   9
HETATM    9  N   UNL     1      -9.391  18.752  66.918  1.00  0.00    -0.291 N  
HETATM   10  C   UNL     1      -8.039  18.646  66.212  1.00  0.00    -0.244 C  
HETATM   11  C   UNL     1      -9.950  20.166  66.757  1.00  0.00    -0.469 C  
BRANCH   9  12
HETATM   12  C   UNL     1      -9.239  18.404  68.426  1.00  0.00    -0.322 C  
BRANCH  12  13
HETATM   13  C   UNL     1     -10.510  17.812  69.027  1.00  0.00    -0.153 C  
BRANCH  13  14
HETATM   14  C   UNL     1     -10.239  16.537  69.824  1.00  0.00    -0.090 C  
BRANCH  14  15
HETATM   15  C   UNL     1     -11.330  15.516  69.503  1.00  0.00    -0.317 C  
BRANCH  15  16
HETATM   16  C   UNL     1     -11.701  14.670  70.713  1.00  0.00    -0.336 C  
BRANCH  16  17
HETATM   17  C   UNL     1     -12.210  13.302  70.264  1.00  0.00    -0.391 C  
BRANCH  17  18
HETATM   18  C   UNL     1     -11.137  12.536  69.497  1.00  0.00    -0.073 C  
HETATM   19  C   UNL     1     -11.557  12.302  68.055  1.00  0.00    -0.408 C  
ENDBRANCH  17  18
ENDBRANCH  16  17
ENDBRANCH  15  16
ENDBRANCH  14  15
ENDBRANCH  13  14
ENDBRANCH  12  13
ENDBRANCH   9  12
ENDBRANCH   8   9
ENDBRANCH   7   8
ENDBRANCH   6   7
ENDBRANCH   5   6
ENDBRANCH   4   5
ENDBRANCH   3   4
ENDBRANCH   2   3
TORSDOF 14
ENDMDL
MODEL      234
REMARK 921   NORMALIZED FREE ENERGY PREDICTED BY IDOCK:   -2.60 KCAL/MOL
REMARK 922        TOTAL FREE ENERGY PREDICTED BY IDOCK:   -6.47 KCAL/MOL
REMARK 923 INTER-LIGAND FREE ENERGY PREDICTED BY IDOCK:   -5.53 KCAL/MOL
REMARK 924 INTRA-LIGAND FREE ENERGY PREDICTED BY IDOCK:   -0.94 KCAL/MOL
REMARK 927      BINDING AFFINITY PREDICTED BY RF-SCORE:    0.00 PKD
ROOT
HETATM    1  C   UNL     1     -12.487  14.440  64.898  1.00  0.00    -0.368 C  
HETATM    2  C   UNL     1     -11.492  14.537  66.044  1.00  0.00    -0.348 C  
ENDROOT
BRANCH   2   3
HETATM    3  C   UNL     1     -11.720  13.428  67.064  1.00  0.00    -0.426 C  
BRANCH   3   4
HETATM    4  C   UNL     1     -11.646  12.049  66.409  1.00  0.00    -0.381 C  
BRANCH   4   5
HETATM    5  C   UNL     1     -10.221  11.756  65.964  1.00  0.00    -0.265 C  
BRANCH   5   6
HETATM    6  C   UNL     1      -9.355  11.227  67.108  1.00  0.00    -0.172 C  
BRANCH   6   7
HETATM    7  C   UNL     1     -10.066  10.043  67.755  1.00  0.00    -0.222 C  
BRANCH   7   8
HETATM    8  C   UNL     1     -10.187  10.193  69.269  1.00  0.00    -0.223 C  
BRANCH   8   9
HETATM    9  N   UNL     1      -9.259   9.218  70.049  1.00  0.00    -0.192 N  
HETATM   10  C   UNL     1      -9.152   7.885  69.309  1.00  0.00    -0.148 C  
HETATM   11  C   UNL     1      -7.868   9.834  70.212  1.00  0.00    -0.171 C  
BRANCH   9  12
HETATM   12  C   UNL     1      -9.919   9.010  71.442  1.00  0.00    -0.318 C  
BRANCH  12  13
HETATM   13  C   UNL     1     -11.416   9.301  71.437  1.00  0.00    -0.439 C  
BRANCH  13  14
HETATM   14  C   UNL     1     -12.225   8.210  72.136  1.00  0.00    -0.398 C  
BRANCH  14  15
HETATM   15  C   UNL     1     -11.749   6.847  71.635  1.00  0.00    -0.343 C  
BRANCH  15  16
HETATM   16  C   UNL     1     -11.862   5.769  72.704  1.00  0.00    -0.198 C  
BRANCH  16  17
HETATM   17  C   UNL     1     -10.613   5.766  73.583  1.00  0.00    -0.302 C  
BRANCH  17  18
HETATM   18  C   UNL     1     -10.471   4.450  74.340  1.00  0.00    -0.309 C  
HETATM   19  C   UNL     1     -10.790   3.265  73.443  1.00  0.00    -0.307 C  
ENDBRANCH  17  18
ENDBRANCH  16  17
ENDBRANCH  15  16
ENDBRANCH  14  15
ENDBRANCH  13  14
ENDBRANCH  12  13
ENDBRANCH   9  12
ENDBRANCH   8   9
ENDBRANCH   7   8
ENDBRANCH   6   7
ENDBRANCH   5   6
ENDBRANCH   4   5
ENDBRANCH   3   4
ENDBRANCH   2   3
TORSDOF 14
ENDMDL
MODEL      235
REMARK 921   NORMALIZED FREE ENERGY PREDICTED BY IDOCK:   -2.59 KCAL/MOL
REMARK 922        TOTAL FREE ENERGY PREDICTED BY IDOCK:   -6.45 KCAL/MOL
REMARK 923 INTER-LIGAND FREE ENERGY PREDICTED BY IDOCK:   -5.39 KCAL/MOL
REMARK 924 INTRA-LIGAND FREE ENERGY PREDICTED BY IDOCK:   -1.06 KCAL/MOL
REMARK 927      BINDING AFFINITY PREDICTED BY RF-SCORE:    0.00 PKD
ROOT
HETATM    1  C   UNL     1     -12.158  13.333  63.761  1.00  0.00    -0.546 C  
HETATM    2  C   UNL     1     -11.865  11.863  63.508  1.00  0.00    -0.560 C  
ENDROOT
BRANCH   2   3
HETATM    3  C   UNL     1     -10.372  11.574  63.614  1.00  0.00    -0.467 C  
BRANCH   3   4
HETATM    4  C   UNL     1     -10.092  10.477  64.640  1.00  0.00    -0.408 C  
BRANCH   4   5
HETATM    5  C   UNL     1     -10.328  11.003  66.048  1.00  0.00    -0.311 C  
BRANCH   5   6
HETATM    6  C   UNL     1      -9.067  11.618  66.655  1.00  0.00    -0.196 C  
BRANCH   6   7
HETATM    7  C   UNL     1      -9.069  11.358  68.159  1.00  0.00    -0.174 C  
BRANCH   7   8
HETATM    8  C   UNL     1      -8.481   9.996  68.515  1.00  0.00    -0.115 C  
BRANCH   8   9
HETATM    9  N   UNL     1      -9.365   9.200  69.518  1.00  0.00    -0.158 N  
HETATM   10  C   UNL     1      -8.665   9.099  70.873  1.00  0.00    -0.221 C  
HETATM   11  C   UNL     1     -10.721   9.889  69.685  1.00  0.00    -0.252 C  
BRANCH   9  12
HETATM   12  C   UNL     1      -9.555   7.785  68.903  1.00  0.00    -0.154 C  
BRANCH  12  13
HETATM   13  C   UNL     1     -11.019   7.364  68.831  1.00  0.00    -0.006 C  
BRANCH  13  14
HETATM   14  C   UNL     1     -11.349   6.229  69.798  1.00  0.00    -0.506 C  
BRANCH  14  15
HETATM   15  C   UNL     1     -11.993   6.822  71.050  1.00  0.00    -0.431 C  
BRANCH  15  16
HETATM   16  C   UNL     1     -11.606   6.063  72.312  1.00  0.00    -0.359 C  
BRANCH  16  17
HETATM   17  C   UNL     1     -10.101   5.798  72.326  1.00  0.00    -0.216 C  
BRANCH  17  18
HETATM   18  C   UNL     1      -9.778   4.477  73.016  1.00  0.00    -0.167 C  
HETATM   19  C   UNL     1     -10.259   3.295  72.189  1.00  0.00    -0.143 C  
ENDBRANCH  17  18
ENDBRANCH  16  17
ENDBRANCH  15  16
ENDBRANCH  14  15
ENDBRANCH  13  14
ENDBRANCH  12  13
ENDBRANCH   9  12
ENDBRANCH   8   9
ENDBRANCH   7   8
ENDBRANCH   6   7
ENDBRANCH   5   6
ENDBRANCH   4   5
ENDBRANCH   3   4
ENDBRANCH   2   3
TORSDOF 14
ENDMDL
MODEL      236
REMARK 921   NORMALIZED FREE ENERGY PREDICTED BY IDOCK:   -2.59 KCAL/MOL
REMARK 922        TOTAL FREE ENERGY PREDICTED BY IDOCK:   -6.45 KCAL/MOL
REMARK 923 INTER-LIGAND FREE ENERGY PREDICTED BY IDOCK:   -5.51 KCAL/MOL
REMARK 924 INTRA-LIGAND FREE ENERGY PREDICTED BY IDOCK:   -0.94 KCAL/MOL
REMARK 927      BINDING AFFINITY PREDICTED BY RF-SCORE:    0.00 PKD
ROOT
HETATM    1  C   UNL     1     -10.353  11.493  63.164  1.00  0.00    -0.376 C  
HETATM    2  C   UNL     1     -11.669  11.843  63.839  1.00  0.00    -0.509 C  
ENDROOT
BRANCH   2   3
HETATM    3  C   UNL     1     -12.199  13.185  63.347  1.00  0.00    -0.521 C  
BRANCH   3   4
HETATM    4  C   UNL     1     -12.165  14.234  64.457  1.00  0.00    -0.476 C  
BRANCH   4   5
HETATM    5  C   UNL     1     -10.729  14.636  64.756  1.00  0.00    -0.399 C  
BRANCH   5   6
HETATM    6  C   UNL     1     -10.607  15.416  66.065  1.00  0.00    -0.330 C  
BRANCH   6   7
HETATM    7  C   UNL     1      -9.704  14.639  67.019  1.00  0.00    -0.247 C  
BRANCH   7   8
HETATM    8  C   UNL     1      -9.304  13.276  66.461  1.00  0.00    -0.213 C  
BRANCH   8   9
HETATM    9  N   UNL     1      -9.380  12.143  67.524  1.00  0.00    -0.177 N  
HETATM   10  C   UNL     1      -8.095  12.109  68.351  1.00  0.00    -0.149 C  
HETATM   11  C   UNL     1     -10.582  12.363  68.444  1.00  0.00    -0.236 C  
BRANCH   9  12
HETATM   12  C   UNL     1      -9.546  10.815  66.734  1.00  0.00    -0.172 C  
BRANCH  12  13
HETATM   13  C   UNL     1     -10.591   9.888  67.348  1.00  0.00    -0.338 C  
BRANCH  13  14
HETATM   14  C   UNL     1      -9.992   8.565  67.820  1.00  0.00    -0.241 C  
BRANCH  14  15
HETATM   15  C   UNL     1     -10.854   7.419  67.292  1.00  0.00    -0.326 C  
BRANCH  15  16
HETATM   16  C   UNL     1     -10.221   6.058  67.545  1.00  0.00    -0.225 C  
BRANCH  16  17
HETATM   17  C   UNL     1     -10.365   5.171  66.310  1.00  0.00    -0.313 C  
BRANCH  17  18
HETATM   18  C   UNL     1      -9.035   4.528  65.932  1.00  0.00    -0.125 C  
HETATM   19  C   UNL     1      -8.238   5.425  64.999  1.00  0.00    -0.137 C  
ENDBRANCH  17  18
ENDBRANCH  16  17
ENDBRANCH  15  16
ENDBRANCH  14  15
ENDBRANCH  13  14
ENDBRANCH  12  13
ENDBRANCH   9  12
ENDBRANCH   8   9
ENDBRANCH   7   8
ENDBRANCH   6   7
ENDBRANCH   5   6
ENDBRANCH   4   5
ENDBRANCH   3   4
ENDBRANCH   2   3
TORSDOF 14
ENDMDL
MODEL      237
REMARK 921   NORMALIZED FREE ENERGY PREDICTED BY IDOCK:   -2.59 KCAL/MOL
REMARK 922        TOTAL FREE ENERGY PREDICTED BY IDOCK:   -6.45 KCAL/MOL
REMARK 923 INTER-LIGAND FREE ENERGY PREDICTED BY IDOCK:   -4.05 KCAL/MOL
REMARK 924 INTRA-LIGAND FREE ENERGY PREDICTED BY IDOCK:   -2.40 KCAL/MOL
REMARK 927      BINDING AFFINITY PREDICTED BY RF-SCORE:    0.00 PKD
ROOT
HETATM    1  C   UNL     1     -11.719  13.727  64.236  1.00  0.00    -0.426 C  
HETATM    2  C   UNL     1     -12.220  13.291  65.604  1.00  0.00    -0.514 C  
ENDROOT
BRANCH   2   3
HETATM    3  C   UNL     1     -11.453  12.074  66.107  1.00  0.00    -0.401 C  
BRANCH   3   4
HETATM    4  C   UNL     1     -11.984  11.606  67.462  1.00  0.00    -0.044 C  
BRANCH   4   5
HETATM    5  C   UNL     1     -11.125  10.470  67.998  1.00  0.00    -0.361 C  
BRANCH   5   6
HETATM    6  C   UNL     1     -11.035  10.483  69.524  1.00  0.00    -0.312 C  
BRANCH   6   7
HETATM    7  C   UNL     1     -10.121   9.347  69.972  1.00  0.00    -0.259 C  
BRANCH   7   8
HETATM    8  C   UNL     1      -8.649   9.750  69.975  1.00  0.00    -0.204 C  
BRANCH   8   9
HETATM    9  N   UNL     1      -7.786   8.897  69.002  1.00  0.00    -0.090 N  
HETATM   10  C   UNL     1      -6.569   8.331  69.734  1.00  0.00    -0.039 C  
HETATM   11  C   UNL     1      -8.621   7.753  68.424  1.00  0.00    -0.128 C  
BRANCH   9  12
HETATM   12  C   UNL     1      -7.333   9.856  67.866  1.00  0.00    -0.088 C  
BRANCH  12  13
HETATM   13  C   UNL     1      -7.644  11.319  68.167  1.00  0.00    -0.105 C  
BRANCH  13  14
HETATM   14  C   UNL     1      -7.726  12.171  66.903  1.00  0.00    -0.049 C  
BRANCH  14  15
HETATM   15  C   UNL     1      -8.237  13.561  67.279  1.00  0.00    -0.164 C  
BRANCH  15  16
HETATM   16  C   UNL     1      -9.055  13.546  68.563  1.00  0.00    -0.092 C  
BRANCH  16  17
HETATM   17  C   UNL     1     -10.155  14.604  68.500  1.00  0.00    -0.238 C  
BRANCH  17  18
HETATM   18  C   UNL     1     -11.182  14.402  69.609  1.00  0.00    -0.274 C  
HETATM   19  C   UNL     1     -12.261  15.472  69.557  1.00  0.00    -0.264 C  
ENDBRANCH  17  18
ENDBRANCH  16  17
ENDBRANCH  15  16
ENDBRANCH  14  15
ENDBRANCH  13  14
ENDBRANCH  12  13
ENDBRANCH   9  12
ENDBRANCH   8   9
ENDBRANCH   7   8
ENDBRANCH   6   7
ENDBRANCH   5   6
ENDBRANCH   4   5
ENDBRANCH   3   4
ENDBRANCH   2   3
TORSDOF 14
ENDMDL
MODEL      238
REMARK 921   NORMALIZED FREE ENERGY PREDICTED BY IDOCK:   -2.59 KCAL/MOL
REMARK 922        TOTAL FREE ENERGY PREDICTED BY IDOCK:   -6.44 KCAL/MOL
REMARK 923 INTER-LIGAND FREE ENERGY PREDICTED BY IDOCK:   -4.68 KCAL/MOL
REMARK 924 INTRA-LIGAND FREE ENERGY PREDICTED BY IDOCK:   -1.76 KCAL/MOL
REMARK 927      BINDING AFFINITY PREDICTED BY RF-SCORE:    0.00 PKD
ROOT
HETATM    1  C   UNL     1      -6.066  12.228  67.913  1.00  0.00    -0.082 C  
HETATM    2  C   UNL     1      -6.744  11.040  67.250  1.00  0.00    -0.086 C  
ENDROOT
BRANCH   2   3
HETATM    3  C   UNL     1      -6.420   9.744  67.983  1.00  0.00    -0.056 C  
BRANCH   3   4
HETATM    4  C   UNL     1      -7.689   8.954  68.299  1.00  0.00    -0.096 C  
BRANCH   4   5
HETATM    5  C   UNL     1      -8.600   9.766  69.207  1.00  0.00    -0.158 C  
BRANCH   5   6
HETATM    6  C   UNL     1      -9.981   9.990  68.591  1.00  0.00    -0.176 C  
BRANCH   6   7
HETATM    7  C   UNL     1     -10.343  11.467  68.717  1.00  0.00    -0.222 C  
BRANCH   7   8
HETATM    8  C   UNL     1     -10.636  12.111  67.366  1.00  0.00    -0.226 C  
BRANCH   8   9
HETATM    9  N   UNL     1     -10.759  13.660  67.448  1.00  0.00    -0.265 N  
HETATM   10  C   UNL     1     -12.026  14.048  68.209  1.00  0.00    -0.349 C  
HETATM   11  C   UNL     1      -9.533  14.248  68.149  1.00  0.00    -0.204 C  
BRANCH   9  12
HETATM   12  C   UNL     1     -10.834  14.170  65.982  1.00  0.00    -0.297 C  
BRANCH  12  13
HETATM   13  C   UNL     1     -12.226  14.027  65.376  1.00  0.00    -0.453 C  
BRANCH  13  14
HETATM   14  C   UNL     1     -12.282  12.957  64.288  1.00  0.00    -0.481 C  
BRANCH  14  15
HETATM   15  C   UNL     1     -10.860  12.669  63.808  1.00  0.00    -0.466 C  
BRANCH  15  16
HETATM   16  C   UNL     1     -10.615  11.182  63.593  1.00  0.00    -0.414 C  
BRANCH  16  17
HETATM   17  C   UNL     1      -9.312  10.759  64.269  1.00  0.00    -0.281 C  
BRANCH  17  18
HETATM   18  C   UNL     1      -9.483   9.452  65.035  1.00  0.00    -0.204 C  
HETATM   19  C   UNL     1      -8.279   8.544  64.845  1.00  0.00    -0.166 C  
ENDBRANCH  17  18
ENDBRANCH  16  17
ENDBRANCH  15  16
ENDBRANCH  14  15
ENDBRANCH  13  14
ENDBRANCH  12  13
ENDBRANCH   9  12
ENDBRANCH   8   9
ENDBRANCH   7   8
ENDBRANCH   6   7
ENDBRANCH   5   6
ENDBRANCH   4   5
ENDBRANCH   3   4
ENDBRANCH   2   3
TORSDOF 14
ENDMDL
MODEL      239
REMARK 921   NORMALIZED FREE ENERGY PREDICTED BY IDOCK:   -2.59 KCAL/MOL
REMARK 922        TOTAL FREE ENERGY PREDICTED BY IDOCK:   -6.44 KCAL/MOL
REMARK 923 INTER-LIGAND FREE ENERGY PREDICTED BY IDOCK:   -5.72 KCAL/MOL
REMARK 924 INTRA-LIGAND FREE ENERGY PREDICTED BY IDOCK:   -0.72 KCAL/MOL
REMARK 927      BINDING AFFINITY PREDICTED BY RF-SCORE:    0.00 PKD
ROOT
HETATM    1  C   UNL     1      -8.263  17.722  68.118  1.00  0.00    -0.260 C  
HETATM    2  C   UNL     1      -8.497  17.577  66.622  1.00  0.00    -0.288 C  
ENDROOT
BRANCH   2   3
HETATM    3  C   UNL     1      -9.850  18.151  66.220  1.00  0.00    -0.311 C  
BRANCH   3   4
HETATM    4  C   UNL     1     -10.631  17.169  65.347  1.00  0.00    -0.116 C  
BRANCH   4   5
HETATM    5  C   UNL     1     -10.485  15.755  65.889  1.00  0.00    -0.366 C  
BRANCH   5   6
HETATM    6  C   UNL     1     -11.345  14.750  65.122  1.00  0.00    -0.379 C  
BRANCH   6   7
HETATM    7  C   UNL     1     -12.042  13.835  66.124  1.00  0.00    -0.477 C  
BRANCH   7   8
HETATM    8  C   UNL     1     -12.140  14.460  67.513  1.00  0.00    -0.292 C  
BRANCH   8   9
HETATM    9  N   UNL     1     -11.489  13.580  68.619  1.00  0.00    -0.285 N  
HETATM   10  C   UNL     1      -9.979  13.811  68.655  1.00  0.00    -0.174 C  
HETATM   11  C   UNL     1     -12.098  13.913  69.982  1.00  0.00    -0.345 C  
BRANCH   9  12
HETATM   12  C   UNL     1     -11.798  12.104  68.240  1.00  0.00    -0.301 C  
BRANCH  12  13
HETATM   13  C   UNL     1     -10.594  11.184  68.413  1.00  0.00    -0.223 C  
BRANCH  13  14
HETATM   14  C   UNL     1     -10.968   9.847  69.048  1.00  0.00    -0.223 C  
BRANCH  14  15
HETATM   15  C   UNL     1     -10.550   9.866  70.518  1.00  0.00    -0.359 C  
BRANCH  15  16
HETATM   16  C   UNL     1     -11.683   9.445  71.443  1.00  0.00    -0.448 C  
BRANCH  16  17
HETATM   17  C   UNL     1     -11.983   7.958  71.268  1.00  0.00    -0.321 C  
BRANCH  17  18
HETATM   18  C   UNL     1     -10.960   7.096  72.000  1.00  0.00    -0.267 C  
HETATM   19  C   UNL     1     -11.626   5.910  72.677  1.00  0.00    -0.289 C  
ENDBRANCH  17  18
ENDBRANCH  16  17
ENDBRANCH  15  16
ENDBRANCH  14  15
ENDBRANCH  13  14
ENDBRANCH  12  13
ENDBRANCH   9  12
ENDBRANCH   8   9
ENDBRANCH   7   8
ENDBRANCH   6   7
ENDBRANCH   5   6
ENDBRANCH   4   5
ENDBRANCH   3   4
ENDBRANCH   2   3
TORSDOF 14
ENDMDL
MODEL      240
REMARK 921   NORMALIZED FREE ENERGY PREDICTED BY IDOCK:   -2.58 KCAL/MOL
REMARK 922        TOTAL FREE ENERGY PREDICTED BY IDOCK:   -6.42 KCAL/MOL
REMARK 923 INTER-LIGAND FREE ENERGY PREDICTED BY IDOCK:   -4.77 KCAL/MOL
REMARK 924 INTRA-LIGAND FREE ENERGY PREDICTED BY IDOCK:   -1.65 KCAL/MOL
REMARK 927      BINDING AFFINITY PREDICTED BY RF-SCORE:    0.00 PKD
ROOT
HETATM    1  C   UNL     1      -7.229   7.870  65.890  1.00  0.00    -0.072 C  
HETATM    2  C   UNL     1      -8.600   8.526  65.908  1.00  0.00    -0.183 C  
ENDROOT
BRANCH   2   3
HETATM    3  C   UNL     1      -8.884   9.169  67.260  1.00  0.00    -0.132 C  
BRANCH   3   4
HETATM    4  C   UNL     1     -10.030   8.461  67.982  1.00  0.00    -0.221 C  
BRANCH   4   5
HETATM    5  C   UNL     1      -9.490   7.638  69.142  1.00  0.00    -0.154 C  
BRANCH   5   6
HETATM    6  C   UNL     1      -9.809   6.151  68.994  1.00  0.00    -0.170 C  
BRANCH   6   7
HETATM    7  C   UNL     1      -9.099   5.383  70.105  1.00  0.00    -0.165 C  
BRANCH   7   8
HETATM    8  C   UNL     1      -8.873   6.236  71.350  1.00  0.00    -0.139 C  
BRANCH   8   9
HETATM    9  N   UNL     1      -9.472   5.598  72.636  1.00  0.00    -0.147 N  
HETATM   10  C   UNL     1      -9.941   4.172  72.349  1.00  0.00    -0.166 C  
HETATM   11  C   UNL     1      -8.426   5.584  73.752  1.00  0.00    -0.114 C  
BRANCH   9  12
HETATM   12  C   UNL     1     -10.678   6.490  73.044  1.00  0.00    -0.263 C  
BRANCH  12  13
HETATM   13  C   UNL     1     -11.961   6.124  72.305  1.00  0.00    -0.285 C  
BRANCH  13  14
HETATM   14  C   UNL     1     -12.390   7.202  71.312  1.00  0.00    -0.418 C  
BRANCH  14  15
HETATM   15  C   UNL     1     -12.698   8.485  72.082  1.00  0.00    -0.423 C  
BRANCH  15  16
HETATM   16  C   UNL     1     -11.884   9.669  71.577  1.00  0.00    -0.483 C  
BRANCH  16  17
HETATM   17  C   UNL     1     -12.707  10.491  70.588  1.00  0.00    -0.441 C  
BRANCH  17  18
HETATM   18  C   UNL     1     -11.998  11.790  70.222  1.00  0.00    -0.429 C  
HETATM   19  C   UNL     1     -11.639  11.821  68.745  1.00  0.00    -0.367 C  
ENDBRANCH  17  18
ENDBRANCH  16  17
ENDBRANCH  15  16
ENDBRANCH  14  15
ENDBRANCH  13  14
ENDBRANCH  12  13
ENDBRANCH   9  12
ENDBRANCH   8   9
ENDBRANCH   7   8
ENDBRANCH   6   7
ENDBRANCH   5   6
ENDBRANCH   4   5
ENDBRANCH   3   4
ENDBRANCH   2   3
TORSDOF 14
ENDMDL
MODEL      241
REMARK 921   NORMALIZED FREE ENERGY PREDICTED BY IDOCK:   -2.58 KCAL/MOL
REMARK 922        TOTAL FREE ENERGY PREDICTED BY IDOCK:   -6.42 KCAL/MOL
REMARK 923 INTER-LIGAND FREE ENERGY PREDICTED BY IDOCK:   -5.44 KCAL/MOL
REMARK 924 INTRA-LIGAND FREE ENERGY PREDICTED BY IDOCK:   -0.98 KCAL/MOL
REMARK 927      BINDING AFFINITY PREDICTED BY RF-SCORE:    0.00 PKD
ROOT
HETATM    1  C   UNL     1     -10.222  16.491  67.034  1.00  0.00    -0.288 C  
HETATM    2  C   UNL     1     -10.196  15.059  66.524  1.00  0.00    -0.281 C  
ENDROOT
BRANCH   2   3
HETATM    3  C   UNL     1     -11.418  14.283  67.002  1.00  0.00    -0.377 C  
BRANCH   3   4
HETATM    4  C   UNL     1     -11.733  13.115  66.068  1.00  0.00    -0.424 C  
BRANCH   4   5
HETATM    5  C   UNL     1     -11.085  13.340  64.710  1.00  0.00    -0.359 C  
BRANCH   5   6
HETATM    6  C   UNL     1     -10.178  12.179  64.303  1.00  0.00    -0.351 C  
BRANCH   6   7
HETATM    7  C   UNL     1     -10.404  11.018  65.266  1.00  0.00    -0.338 C  
BRANCH   7   8
HETATM    8  C   UNL     1      -9.124  10.598  65.983  1.00  0.00    -0.180 C  
BRANCH   8   9
HETATM    9  N   UNL     1      -9.359   9.473  67.031  1.00  0.00    -0.144 N  
HETATM   10  C   UNL     1     -10.643   8.709  66.705  1.00  0.00    -0.153 C  
HETATM   11  C   UNL     1      -8.172   8.509  67.043  1.00  0.00    -0.107 C  
BRANCH   9  12
HETATM   12  C   UNL     1      -9.489  10.181  68.409  1.00  0.00    -0.143 C  
BRANCH  12  13
HETATM   13  C   UNL     1     -10.928  10.553  68.750  1.00  0.00    -0.296 C  
BRANCH  13  14
HETATM   14  C   UNL     1     -11.263  10.306  70.219  1.00  0.00    -0.395 C  
BRANCH  14  15
HETATM   15  C   UNL     1     -11.275   8.800  70.474  1.00  0.00    -0.278 C  
BRANCH  15  16
HETATM   16  C   UNL     1     -11.345   8.467  71.958  1.00  0.00    -0.425 C  
BRANCH  16  17
HETATM   17  C   UNL     1     -11.595   6.973  72.153  1.00  0.00    -0.320 C  
BRANCH  17  18
HETATM   18  C   UNL     1     -10.434   6.307  72.881  1.00  0.00    -0.240 C  
HETATM   19  C   UNL     1      -9.715   7.295  73.786  1.00  0.00    -0.344 C  
ENDBRANCH  17  18
ENDBRANCH  16  17
ENDBRANCH  15  16
ENDBRANCH  14  15
ENDBRANCH  13  14
ENDBRANCH  12  13
ENDBRANCH   9  12
ENDBRANCH   8   9
ENDBRANCH   7   8
ENDBRANCH   6   7
ENDBRANCH   5   6
ENDBRANCH   4   5
ENDBRANCH   3   4
ENDBRANCH   2   3
TORSDOF 14
ENDMDL
MODEL      242
REMARK 921   NORMALIZED FREE ENERGY PREDICTED BY IDOCK:   -2.57 KCAL/MOL
REMARK 922        TOTAL FREE ENERGY PREDICTED BY IDOCK:   -6.41 KCAL/MOL
REMARK 923 INTER-LIGAND FREE ENERGY PREDICTED BY IDOCK:   -5.87 KCAL/MOL
REMARK 924 INTRA-LIGAND FREE ENERGY PREDICTED BY IDOCK:   -0.54 KCAL/MOL
REMARK 927      BINDING AFFINITY PREDICTED BY RF-SCORE:    0.00 PKD
ROOT
HETATM    1  C   UNL     1     -12.244  15.792  72.265  1.00  0.00    -0.555 C  
HETATM    2  C   UNL     1     -12.870  14.828  73.260  1.00  0.00    -0.621 C  
ENDROOT
BRANCH   2   3
HETATM    3  C   UNL     1     -13.763  13.814  72.556  1.00  0.00    -0.667 C  
BRANCH   3   4
HETATM    4  C   UNL     1     -12.960  12.947  71.586  1.00  0.00    -0.410 C  
BRANCH   4   5
HETATM    5  C   UNL     1     -13.043  11.485  71.998  1.00  0.00    -0.430 C  
BRANCH   5   6
HETATM    6  C   UNL     1     -12.955  10.541  70.799  1.00  0.00    -0.413 C  
BRANCH   6   7
HETATM    7  C   UNL     1     -11.499  10.451  70.350  1.00  0.00    -0.420 C  
BRANCH   7   8
HETATM    8  C   UNL     1     -11.021   9.009  70.208  1.00  0.00    -0.244 C  
BRANCH   8   9
HETATM    9  N   UNL     1     -10.285   8.746  68.863  1.00  0.00    -0.203 N  
HETATM   10  C   UNL     1     -10.828   9.673  67.775  1.00  0.00    -0.217 C  
HETATM   11  C   UNL     1      -8.782   8.972  69.033  1.00  0.00    -0.138 C  
BRANCH   9  12
HETATM   12  C   UNL     1     -10.566   7.262  68.496  1.00  0.00    -0.175 C  
BRANCH  12  13
HETATM   13  C   UNL     1     -10.607   7.023  66.990  1.00  0.00    -0.412 C  
BRANCH  13  14
HETATM   14  C   UNL     1     -10.495   5.543  66.630  1.00  0.00    -0.355 C  
BRANCH  14  15
HETATM   15  C   UNL     1      -9.186   5.318  65.875  1.00  0.00    -0.166 C  
BRANCH  15  16
HETATM   16  C   UNL     1      -9.254   4.110  64.952  1.00  0.00    -0.154 C  
BRANCH  16  17
HETATM   17  C   UNL     1      -8.375   2.983  65.491  1.00  0.00    -0.097 C  
BRANCH  17  18
HETATM   18  C   UNL     1      -9.026   2.295  66.685  1.00  0.00    -0.127 C  
HETATM   19  C   UNL     1      -8.047   2.162  67.841  1.00  0.00    -0.066 C  
ENDBRANCH  17  18
ENDBRANCH  16  17
ENDBRANCH  15  16
ENDBRANCH  14  15
ENDBRANCH  13  14
ENDBRANCH  12  13
ENDBRANCH   9  12
ENDBRANCH   8   9
ENDBRANCH   7   8
ENDBRANCH   6   7
ENDBRANCH   5   6
ENDBRANCH   4   5
ENDBRANCH   3   4
ENDBRANCH   2   3
TORSDOF 14
ENDMDL
MODEL      243
REMARK 921   NORMALIZED FREE ENERGY PREDICTED BY IDOCK:   -2.57 KCAL/MOL
REMARK 922        TOTAL FREE ENERGY PREDICTED BY IDOCK:   -6.41 KCAL/MOL
REMARK 923 INTER-LIGAND FREE ENERGY PREDICTED BY IDOCK:   -5.34 KCAL/MOL
REMARK 924 INTRA-LIGAND FREE ENERGY PREDICTED BY IDOCK:   -1.07 KCAL/MOL
REMARK 927      BINDING AFFINITY PREDICTED BY RF-SCORE:    0.00 PKD
ROOT
HETATM    1  C   UNL     1      -9.048   7.781  72.007  1.00  0.00    -0.180 C  
HETATM    2  C   UNL     1      -8.491   8.907  71.151  1.00  0.00    -0.250 C  
ENDROOT
BRANCH   2   3
HETATM    3  C   UNL     1      -9.098   8.887  69.753  1.00  0.00    -0.151 C  
BRANCH   3   4
HETATM    4  C   UNL     1     -10.625   8.886  69.812  1.00  0.00    -0.230 C  
BRANCH   4   5
HETATM    5  C   UNL     1     -11.179  10.081  69.049  1.00  0.00    -0.180 C  
BRANCH   5   6
HETATM    6  C   UNL     1     -10.501  11.390  69.452  1.00  0.00    -0.040 C  
BRANCH   6   7
HETATM    7  C   UNL     1     -10.525  12.342  68.260  1.00  0.00    -0.234 C  
BRANCH   7   8
HETATM    8  C   UNL     1      -9.133  12.594  67.687  1.00  0.00    -0.192 C  
BRANCH   8   9
HETATM    9  N   UNL     1      -8.772  14.105  67.619  1.00  0.00    -0.175 N  
HETATM   10  C   UNL     1      -7.254  14.287  67.662  1.00  0.00    -0.183 C  
HETATM   11  C   UNL     1      -9.331  14.722  66.336  1.00  0.00    -0.291 C  
BRANCH   9  12
HETATM   12  C   UNL     1      -9.429  14.767  68.863  1.00  0.00    -0.191 C  
BRANCH  12  13
HETATM   13  C   UNL     1      -9.974  16.162  68.571  1.00  0.00    -0.229 C  
BRANCH  13  14
HETATM   14  C   UNL     1     -11.401  16.348  69.079  1.00  0.00    -0.253 C  
BRANCH  14  15
HETATM   15  C   UNL     1     -11.541  15.640  70.426  1.00  0.00    -0.368 C  
BRANCH  15  16
HETATM   16  C   UNL     1     -12.968  15.179  70.689  1.00  0.00    -0.420 C  
BRANCH  16  17
HETATM   17  C   UNL     1     -13.234  15.120  72.192  1.00  0.00    -0.470 C  
BRANCH  17  18
HETATM   18  C   UNL     1     -12.338  16.092  72.953  1.00  0.00    -0.609 C  
HETATM   19  C   UNL     1     -12.277  15.739  74.430  1.00  0.00    -0.695 C  
ENDBRANCH  17  18
ENDBRANCH  16  17
ENDBRANCH  15  16
ENDBRANCH  14  15
ENDBRANCH  13  14
ENDBRANCH  12  13
ENDBRANCH   9  12
ENDBRANCH   8   9
ENDBRANCH   7   8
ENDBRANCH   6   7
ENDBRANCH   5   6
ENDBRANCH   4   5
ENDBRANCH   3   4
ENDBRANCH   2   3
TORSDOF 14
ENDMDL
MODEL      244
REMARK 921   NORMALIZED FREE ENERGY PREDICTED BY IDOCK:   -2.56 KCAL/MOL
REMARK 922        TOTAL FREE ENERGY PREDICTED BY IDOCK:   -6.39 KCAL/MOL
REMARK 923 INTER-LIGAND FREE ENERGY PREDICTED BY IDOCK:   -5.73 KCAL/MOL
REMARK 924 INTRA-LIGAND FREE ENERGY PREDICTED BY IDOCK:   -0.66 KCAL/MOL
REMARK 927      BINDING AFFINITY PREDICTED BY RF-SCORE:    0.00 PKD
ROOT
HETATM    1  C   UNL     1     -10.731   7.440  72.728  1.00  0.00    -0.362 C  
HETATM    2  C   UNL     1     -11.526   8.663  72.300  1.00  0.00    -0.423 C  
ENDROOT
BRANCH   2   3
HETATM    3  C   UNL     1     -11.764   8.664  70.794  1.00  0.00    -0.239 C  
BRANCH   3   4
HETATM    4  C   UNL     1     -10.558   8.101  70.043  1.00  0.00    -0.239 C  
BRANCH   4   5
HETATM    5  C   UNL     1     -10.379   8.829  68.718  1.00  0.00    -0.234 C  
BRANCH   5   6
HETATM    6  C   UNL     1     -10.962  10.241  68.751  1.00  0.00    -0.285 C  
BRANCH   6   7
HETATM    7  C   UNL     1     -10.419  11.025  67.560  1.00  0.00    -0.244 C  
BRANCH   7   8
HETATM    8  C   UNL     1     -11.492  11.870  66.880  1.00  0.00    -0.322 C  
BRANCH   8   9
HETATM    9  N   UNL     1     -11.149  12.208  65.401  1.00  0.00    -0.308 N  
HETATM   10  C   UNL     1     -10.329  11.078  64.778  1.00  0.00    -0.324 C  
HETATM   11  C   UNL     1     -12.434  12.420  64.598  1.00  0.00    -0.420 C  
BRANCH   9  12
HETATM   12  C   UNL     1     -10.317  13.521  65.436  1.00  0.00    -0.319 C  
BRANCH  12  13
HETATM   13  C   UNL     1     -11.138  14.730  65.871  1.00  0.00    -0.340 C  
BRANCH  13  14
HETATM   14  C   UNL     1     -10.855  15.965  65.018  1.00  0.00    -0.444 C  
BRANCH  14  15
HETATM   15  C   UNL     1     -10.438  17.112  65.937  1.00  0.00    -0.265 C  
BRANCH  15  16
HETATM   16  C   UNL     1      -9.027  16.932  66.480  1.00  0.00    -0.303 C  
BRANCH  16  17
HETATM   17  C   UNL     1      -9.075  16.577  67.965  1.00  0.00    -0.209 C  
BRANCH  17  18
HETATM   18  C   UNL     1      -7.743  16.869  68.647  1.00  0.00    -0.235 C  
HETATM   19  C   UNL     1      -7.257  15.666  69.438  1.00  0.00    -0.212 C  
ENDBRANCH  17  18
ENDBRANCH  16  17
ENDBRANCH  15  16
ENDBRANCH  14  15
ENDBRANCH  13  14
ENDBRANCH  12  13
ENDBRANCH   9  12
ENDBRANCH   8   9
ENDBRANCH   7   8
ENDBRANCH   6   7
ENDBRANCH   5   6
ENDBRANCH   4   5
ENDBRANCH   3   4
ENDBRANCH   2   3
TORSDOF 14
ENDMDL
MODEL      245
REMARK 921   NORMALIZED FREE ENERGY PREDICTED BY IDOCK:   -2.56 KCAL/MOL
REMARK 922        TOTAL FREE ENERGY PREDICTED BY IDOCK:   -6.39 KCAL/MOL
REMARK 923 INTER-LIGAND FREE ENERGY PREDICTED BY IDOCK:   -4.60 KCAL/MOL
REMARK 924 INTRA-LIGAND FREE ENERGY PREDICTED BY IDOCK:   -1.79 KCAL/MOL
REMARK 927      BINDING AFFINITY PREDICTED BY RF-SCORE:    0.00 PKD
ROOT
HETATM    1  C   UNL     1      -9.882  15.412  69.327  1.00  0.00    -0.262 C  
HETATM    2  C   UNL     1      -8.972  15.729  68.152  1.00  0.00    -0.180 C  
ENDROOT
BRANCH   2   3
HETATM    3  C   UNL     1      -7.751  14.816  68.140  1.00  0.00    -0.122 C  
BRANCH   3   4
HETATM    4  C   UNL     1      -8.090  13.446  67.555  1.00  0.00    -0.183 C  
BRANCH   4   5
HETATM    5  C   UNL     1      -6.824  12.617  67.395  1.00  0.00    -0.141 C  
BRANCH   5   6
HETATM    6  C   UNL     1      -7.126  11.164  67.031  1.00  0.00    -0.124 C  
BRANCH   6   7
HETATM    7  C   UNL     1      -7.304  10.362  68.317  1.00  0.00    -0.088 C  
BRANCH   7   8
HETATM    8  C   UNL     1      -8.041   9.046  68.085  1.00  0.00    -0.105 C  
BRANCH   8   9
HETATM    9  N   UNL     1      -9.273   8.870  69.018  1.00  0.00    -0.140 N  
HETATM   10  C   UNL     1     -10.405   8.167  68.270  1.00  0.00    -0.197 C  
HETATM   11  C   UNL     1      -8.885   8.057  70.254  1.00  0.00    -0.145 C  
BRANCH   9  12
HETATM   12  C   UNL     1      -9.711  10.302  69.436  1.00  0.00    -0.222 C  
BRANCH  12  13
HETATM   13  C   UNL     1     -11.194  10.389  69.782  1.00  0.00    -0.353 C  
BRANCH  13  14
HETATM   14  C   UNL     1     -11.978  11.240  68.785  1.00  0.00    -0.350 C  
BRANCH  14  15
HETATM   15  C   UNL     1     -11.008  11.790  67.740  1.00  0.00    -0.277 C  
BRANCH  15  16
HETATM   16  C   UNL     1     -11.732  12.364  66.529  1.00  0.00    -0.443 C  
BRANCH  16  17
HETATM   17  C   UNL     1     -11.977  13.859  66.722  1.00  0.00    -0.472 C  
BRANCH  17  18
HETATM   18  C   UNL     1     -11.501  14.659  65.514  1.00  0.00    -0.341 C  
HETATM   19  C   UNL     1     -10.452  13.891  64.727  1.00  0.00    -0.451 C  
ENDBRANCH  17  18
ENDBRANCH  16  17
ENDBRANCH  15  16
ENDBRANCH  14  15
ENDBRANCH  13  14
ENDBRANCH  12  13
ENDBRANCH   9  12
ENDBRANCH   8   9
ENDBRANCH   7   8
ENDBRANCH   6   7
ENDBRANCH   5   6
ENDBRANCH   4   5
ENDBRANCH   3   4
ENDBRANCH   2   3
TORSDOF 14
ENDMDL
MODEL      246
REMARK 921   NORMALIZED FREE ENERGY PREDICTED BY IDOCK:   -2.55 KCAL/MOL
REMARK 922        TOTAL FREE ENERGY PREDICTED BY IDOCK:   -6.36 KCAL/MOL
REMARK 923 INTER-LIGAND FREE ENERGY PREDICTED BY IDOCK:   -4.94 KCAL/MOL
REMARK 924 INTRA-LIGAND FREE ENERGY PREDICTED BY IDOCK:   -1.42 KCAL/MOL
REMARK 927      BINDING AFFINITY PREDICTED BY RF-SCORE:    0.00 PKD
ROOT
HETATM    1  C   UNL     1     -11.057   7.582  72.884  1.00  0.00    -0.426 C  
HETATM    2  C   UNL     1      -9.695   7.908  72.292  1.00  0.00    -0.269 C  
ENDROOT
BRANCH   2   3
HETATM    3  C   UNL     1      -9.793   9.047  71.284  1.00  0.00    -0.376 C  
BRANCH   3   4
HETATM    4  C   UNL     1      -9.327   8.602  69.898  1.00  0.00    -0.160 C  
BRANCH   4   5
HETATM    5  C   UNL     1     -10.395   7.744  69.236  1.00  0.00    -0.220 C  
BRANCH   5   6
HETATM    6  C   UNL     1      -9.822   6.864  68.125  1.00  0.00    -0.145 C  
BRANCH   6   7
HETATM    7  C   UNL     1      -8.869   7.700  67.277  1.00  0.00    -0.122 C  
BRANCH   7   8
HETATM    8  C   UNL     1      -9.518   8.194  65.987  1.00  0.00    -0.087 C  
BRANCH   8   9
HETATM    9  N   UNL     1      -9.084   9.639  65.608  1.00  0.00    -0.174 N  
HETATM   10  C   UNL     1      -7.841  10.043  66.401  1.00  0.00    -0.113 C  
HETATM   11  C   UNL     1      -8.793   9.724  64.109  1.00  0.00    -0.231 C  
BRANCH   9  12
HETATM   12  C   UNL     1     -10.280  10.563  65.974  1.00  0.00    -0.245 C  
BRANCH  12  13
HETATM   13  C   UNL     1     -10.112  11.237  67.332  1.00  0.00    -0.214 C  
BRANCH  13  14
HETATM   14  C   UNL     1     -11.328  11.041  68.235  1.00  0.00    -0.366 C  
BRANCH  14  15
HETATM   15  C   UNL     1     -11.643  12.365  68.930  1.00  0.00    -0.364 C  
BRANCH  15  16
HETATM   16  C   UNL     1     -11.985  13.469  67.938  1.00  0.00    -0.372 C  
BRANCH  16  17
HETATM   17  C   UNL     1     -11.449  14.810  68.436  1.00  0.00    -0.336 C  
BRANCH  17  18
HETATM   18  C   UNL     1     -12.092  15.207  69.760  1.00  0.00    -0.354 C  
HETATM   19  C   UNL     1     -11.104  15.943  70.650  1.00  0.00    -0.368 C  
ENDBRANCH  17  18
ENDBRANCH  16  17
ENDBRANCH  15  16
ENDBRANCH  14  15
ENDBRANCH  13  14
ENDBRANCH  12  13
ENDBRANCH   9  12
ENDBRANCH   8   9
ENDBRANCH   7   8
ENDBRANCH   6   7
ENDBRANCH   5   6
ENDBRANCH   4   5
ENDBRANCH   3   4
ENDBRANCH   2   3
TORSDOF 14
ENDMDL
MODEL      247
REMARK 921   NORMALIZED FREE ENERGY PREDICTED BY IDOCK:   -2.55 KCAL/MOL
REMARK 922        TOTAL FREE ENERGY PREDICTED BY IDOCK:   -6.36 KCAL/MOL
REMARK 923 INTER-LIGAND FREE ENERGY PREDICTED BY IDOCK:   -5.32 KCAL/MOL
REMARK 924 INTRA-LIGAND FREE ENERGY PREDICTED BY IDOCK:   -1.05 KCAL/MOL
REMARK 927      BINDING AFFINITY PREDICTED BY RF-SCORE:    0.00 PKD
ROOT
HETATM    1  C   UNL     1      -8.220  18.473  66.562  1.00  0.00    -0.299 C  
HETATM    2  C   UNL     1      -8.921  18.429  67.911  1.00  0.00    -0.296 C  
ENDROOT
BRANCH   2   3
HETATM    3  C   UNL     1      -9.973  17.327  67.948  1.00  0.00    -0.297 C  
BRANCH   3   4
HETATM    4  C   UNL     1      -9.325  15.946  68.051  1.00  0.00    -0.201 C  
BRANCH   4   5
HETATM    5  C   UNL     1      -9.740  15.082  66.870  1.00  0.00    -0.247 C  
BRANCH   5   6
HETATM    6  C   UNL     1     -10.776  15.774  65.983  1.00  0.00    -0.311 C  
BRANCH   6   7
HETATM    7  C   UNL     1     -11.160  14.830  64.848  1.00  0.00    -0.416 C  
BRANCH   7   8
HETATM    8  C   UNL     1     -10.288  13.578  64.811  1.00  0.00    -0.385 C  
BRANCH   8   9
HETATM    9  N   UNL     1     -11.117  12.266  64.710  1.00  0.00    -0.302 N  
HETATM   10  C   UNL     1     -12.611  12.579  64.794  1.00  0.00    -0.413 C  
HETATM   11  C   UNL     1     -10.811  11.550  63.394  1.00  0.00    -0.346 C  
BRANCH   9  12
HETATM   12  C   UNL     1     -10.684  11.383  65.914  1.00  0.00    -0.255 C  
BRANCH  12  13
HETATM   13  C   UNL     1     -11.509  11.648  67.169  1.00  0.00    -0.344 C  
BRANCH  13  14
HETATM   14  C   UNL     1     -10.750  11.307  68.449  1.00  0.00    -0.238 C  
BRANCH  14  15
HETATM   15  C   UNL     1      -9.807  10.139  68.166  1.00  0.00    -0.164 C  
BRANCH  15  16
HETATM   16  C   UNL     1     -10.468   8.791  68.417  1.00  0.00    -0.220 C  
BRANCH  16  17
HETATM   17  C   UNL     1      -9.545   7.896  69.242  1.00  0.00    -0.157 C  
BRANCH  17  18
HETATM   18  C   UNL     1     -10.111   6.487  69.374  1.00  0.00    -0.198 C  
HETATM   19  C   UNL     1      -9.796   5.894  70.737  1.00  0.00    -0.229 C  
ENDBRANCH  17  18
ENDBRANCH  16  17
ENDBRANCH  15  16
ENDBRANCH  14  15
ENDBRANCH  13  14
ENDBRANCH  12  13
ENDBRANCH   9  12
ENDBRANCH   8   9
ENDBRANCH   7   8
ENDBRANCH   6   7
ENDBRANCH   5   6
ENDBRANCH   4   5
ENDBRANCH   3   4
ENDBRANCH   2   3
TORSDOF 14
ENDMDL
MODEL      248
REMARK 921   NORMALIZED FREE ENERGY PREDICTED BY IDOCK:   -2.54 KCAL/MOL
REMARK 922        TOTAL FREE ENERGY PREDICTED BY IDOCK:   -6.36 KCAL/MOL
REMARK 923 INTER-LIGAND FREE ENERGY PREDICTED BY IDOCK:   -5.64 KCAL/MOL
REMARK 924 INTRA-LIGAND FREE ENERGY PREDICTED BY IDOCK:   -0.72 KCAL/MOL
REMARK 927      BINDING AFFINITY PREDICTED BY RF-SCORE:    0.00 PKD
ROOT
HETATM    1  C   UNL     1     -13.359  15.368  71.128  1.00  0.00    -0.580 C  
HETATM    2  C   UNL     1     -14.059  14.551  72.202  1.00  0.00    -0.616 C  
ENDROOT
BRANCH   2   3
HETATM    3  C   UNL     1     -13.630  13.089  72.147  1.00  0.00    -0.618 C  
BRANCH   3   4
HETATM    4  C   UNL     1     -12.545  12.870  71.093  1.00  0.00    -0.373 C  
BRANCH   4   5
HETATM    5  C   UNL     1     -12.366  11.383  70.827  1.00  0.00    -0.483 C  
BRANCH   5   6
HETATM    6  C   UNL     1     -11.795  11.109  69.436  1.00  0.00    -0.415 C  
BRANCH   6   7
HETATM    7  C   UNL     1     -11.886  12.387  68.607  1.00  0.00    -0.348 C  
BRANCH   7   8
HETATM    8  C   UNL     1     -11.571  12.149  67.133  1.00  0.00    -0.335 C  
BRANCH   8   9
HETATM    9  N   UNL     1     -10.557  13.178  66.558  1.00  0.00    -0.282 N  
HETATM   10  C   UNL     1     -11.241  14.070  65.523  1.00  0.00    -0.311 C  
HETATM   11  C   UNL     1      -9.983  14.037  67.685  1.00  0.00    -0.237 C  
BRANCH   9  12
HETATM   12  C   UNL     1      -9.426  12.347  65.889  1.00  0.00    -0.129 C  
BRANCH  12  13
HETATM   13  C   UNL     1      -9.660  10.843  65.986  1.00  0.00    -0.248 C  
BRANCH  13  14
HETATM   14  C   UNL     1      -8.429  10.033  65.584  1.00  0.00    -0.155 C  
BRANCH  14  15
HETATM   15  C   UNL     1      -8.551   9.654  64.108  1.00  0.00    -0.209 C  
BRANCH  15  16
HETATM   16  C   UNL     1      -7.605  10.459  63.227  1.00  0.00    -0.077 C  
BRANCH  16  17
HETATM   17  C   UNL     1      -6.421   9.595  62.798  1.00  0.00    -0.103 C  
BRANCH  17  18
HETATM   18  C   UNL     1      -6.271   8.374  63.697  1.00  0.00    -0.073 C  
HETATM   19  C   UNL     1      -6.237   7.092  62.880  1.00  0.00    -0.052 C  
ENDBRANCH  17  18
ENDBRANCH  16  17
ENDBRANCH  15  16
ENDBRANCH  14  15
ENDBRANCH  13  14
ENDBRANCH  12  13
ENDBRANCH   9  12
ENDBRANCH   8   9
ENDBRANCH   7   8
ENDBRANCH   6   7
ENDBRANCH   5   6
ENDBRANCH   4   5
ENDBRANCH   3   4
ENDBRANCH   2   3
TORSDOF 14
ENDMDL
MODEL      249
REMARK 921   NORMALIZED FREE ENERGY PREDICTED BY IDOCK:   -2.54 KCAL/MOL
REMARK 922        TOTAL FREE ENERGY PREDICTED BY IDOCK:   -6.36 KCAL/MOL
REMARK 923 INTER-LIGAND FREE ENERGY PREDICTED BY IDOCK:   -5.36 KCAL/MOL
REMARK 924 INTRA-LIGAND FREE ENERGY PREDICTED BY IDOCK:   -1.00 KCAL/MOL
REMARK 927      BINDING AFFINITY PREDICTED BY RF-SCORE:    0.00 PKD
ROOT
HETATM    1  C   UNL     1      -8.217  20.099  66.923  1.00  0.00    -0.363 C  
HETATM    2  C   UNL     1      -7.098  20.389  67.911  1.00  0.00    -0.327 C  
ENDROOT
BRANCH   2   3
HETATM    3  C   UNL     1      -5.819  19.658  67.523  1.00  0.00    -0.194 C  
BRANCH   3   4
HETATM    4  C   UNL     1      -6.103  18.201  67.158  1.00  0.00    -0.170 C  
BRANCH   4   5
HETATM    5  C   UNL     1      -5.741  17.289  68.321  1.00  0.00    -0.136 C  
BRANCH   5   6
HETATM    6  C   UNL     1      -6.964  16.895  69.150  1.00  0.00    -0.234 C  
BRANCH   6   7
HETATM    7  C   UNL     1      -7.993  16.245  68.230  1.00  0.00    -0.166 C  
BRANCH   7   8
HETATM    8  C   UNL     1      -8.885  15.250  68.965  1.00  0.00    -0.226 C  
BRANCH   8   9
HETATM    9  N   UNL     1      -9.917  14.558  68.030  1.00  0.00    -0.219 N  
HETATM   10  C   UNL     1     -11.336  14.780  68.553  1.00  0.00    -0.290 C  
HETATM   11  C   UNL     1      -9.796  15.114  66.610  1.00  0.00    -0.252 C  
BRANCH   9  12
HETATM   12  C   UNL     1      -9.570  13.043  68.043  1.00  0.00    -0.224 C  
BRANCH  12  13
HETATM   13  C   UNL     1     -10.740  12.171  68.487  1.00  0.00    -0.257 C  
BRANCH  13  14
HETATM   14  C   UNL     1     -10.286  10.822  69.041  1.00  0.00    -0.235 C  
BRANCH  14  15
HETATM   15  C   UNL     1     -11.177  10.453  70.227  1.00  0.00    -0.395 C  
BRANCH  15  16
HETATM   16  C   UNL     1     -12.294  11.465  70.445  1.00  0.00    -0.404 C  
BRANCH  16  17
HETATM   17  C   UNL     1     -12.862  11.326  71.856  1.00  0.00    -0.386 C  
BRANCH  17  18
HETATM   18  C   UNL     1     -13.631  12.576  72.269  1.00  0.00    -0.443 C  
HETATM   19  C   UNL     1     -12.951  13.834  71.753  1.00  0.00    -0.441 C  
ENDBRANCH  17  18
ENDBRANCH  16  17
ENDBRANCH  15  16
ENDBRANCH  14  15
ENDBRANCH  13  14
ENDBRANCH  12  13
ENDBRANCH   9  12
ENDBRANCH   8   9
ENDBRANCH   7   8
ENDBRANCH   6   7
ENDBRANCH   5   6
ENDBRANCH   4   5
ENDBRANCH   3   4
ENDBRANCH   2   3
TORSDOF 14
ENDMDL
MODEL      250
REMARK 921   NORMALIZED FREE ENERGY PREDICTED BY IDOCK:   -2.53 KCAL/MOL
REMARK 922        TOTAL FREE ENERGY PREDICTED BY IDOCK:   -6.34 KCAL/MOL
REMARK 923 INTER-LIGAND FREE ENERGY PREDICTED BY IDOCK:   -5.04 KCAL/MOL
REMARK 924 INTRA-LIGAND FREE ENERGY PREDICTED BY IDOCK:   -1.30 KCAL/MOL
REMARK 927      BINDING AFFINITY PREDICTED BY RF-SCORE:    0.00 PKD
ROOT
HETATM    1  C   UNL     1      -9.619  11.360  62.969  1.00  0.00    -0.397 C  
HETATM    2  C   UNL     1      -9.338  10.085  63.749  1.00  0.00    -0.307 C  
ENDROOT
BRANCH   2   3
HETATM    3  C   UNL     1      -9.984  10.131  65.128  1.00  0.00    -0.379 C  
BRANCH   3   4
HETATM    4  C   UNL     1      -9.476   8.995  66.016  1.00  0.00    -0.323 C  
BRANCH   4   5
HETATM    5  C   UNL     1     -10.584   8.520  66.944  1.00  0.00    -0.279 C  
BRANCH   5   6
HETATM    6  C   UNL     1     -10.478   7.027  67.254  1.00  0.00    -0.363 C  
BRANCH   6   7
HETATM    7  C   UNL     1     -10.508   6.835  68.767  1.00  0.00    -0.231 C  
BRANCH   7   8
HETATM    8  C   UNL     1     -10.675   8.153  69.518  1.00  0.00    -0.175 C  
BRANCH   8   9
HETATM    9  N   UNL     1      -9.431   8.524  70.373  1.00  0.00    -0.161 N  
HETATM   10  C   UNL     1      -8.413   7.384  70.347  1.00  0.00    -0.142 C  
HETATM   11  C   UNL     1      -8.787   9.805  69.839  1.00  0.00    -0.225 C  
BRANCH   9  12
HETATM   12  C   UNL     1      -9.949   8.749  71.822  1.00  0.00    -0.326 C  
BRANCH  12  13
HETATM   13  C   UNL     1      -9.049   8.115  72.877  1.00  0.00    -0.337 C  
BRANCH  13  14
HETATM   14  C   UNL     1      -9.830   7.260  73.873  1.00  0.00    -0.322 C  
BRANCH  14  15
HETATM   15  C   UNL     1     -11.024   6.634  73.153  1.00  0.00    -0.263 C  
BRANCH  15  16
HETATM   16  C   UNL     1     -10.953   5.114  73.136  1.00  0.00    -0.368 C  
BRANCH  16  17
HETATM   17  C   UNL     1     -10.338   4.629  71.824  1.00  0.00    -0.208 C  
BRANCH  17  18
HETATM   18  C   UNL     1      -8.927   4.094  72.039  1.00  0.00    -0.151 C  
HETATM   19  C   UNL     1      -8.821   3.339  73.354  1.00  0.00    -0.081 C  
ENDBRANCH  17  18
ENDBRANCH  16  17
ENDBRANCH  15  16
ENDBRANCH  14  15
ENDBRANCH  13  14
ENDBRANCH  12  13
ENDBRANCH   9  12
ENDBRANCH   8   9
ENDBRANCH   7   8
ENDBRANCH   6   7
ENDBRANCH   5   6
ENDBRANCH   4   5
ENDBRANCH   3   4
ENDBRANCH   2   3
TORSDOF 14
ENDMDL
MODEL      251
REMARK 921   NORMALIZED FREE ENERGY PREDICTED BY IDOCK:   -2.53 KCAL/MOL
REMARK 922        TOTAL FREE ENERGY PREDICTED BY IDOCK:   -6.33 KCAL/MOL
REMARK 923 INTER-LIGAND FREE ENERGY PREDICTED BY IDOCK:   -5.69 KCAL/MOL
REMARK 924 INTRA-LIGAND FREE ENERGY PREDICTED BY IDOCK:   -0.64 KCAL/MOL
REMARK 927      BINDING AFFINITY PREDICTED BY RF-SCORE:    0.00 PKD
ROOT
HETATM    1  C   UNL     1      -9.064   4.444  64.530  1.00  0.00    -0.152 C  
HETATM    2  C   UNL     1      -9.827   4.157  65.813  1.00  0.00    -0.207 C  
ENDROOT
BRANCH   2   3
HETATM    3  C   UNL     1      -9.568   5.235  66.859  1.00  0.00    -0.153 C  
BRANCH   3   4
HETATM    4  C   UNL     1     -10.874   5.867  67.339  1.00  0.00    -0.341 C  
BRANCH   4   5
HETATM    5  C   UNL     1     -10.761   7.384  67.316  1.00  0.00    -0.379 C  
BRANCH   5   6
HETATM    6  C   UNL     1      -9.314   7.859  67.443  1.00  0.00    -0.169 C  
BRANCH   6   7
HETATM    7  C   UNL     1      -9.208   9.271  66.875  1.00  0.00    -0.178 C  
BRANCH   7   8
HETATM    8  C   UNL     1     -10.477  10.087  67.105  1.00  0.00    -0.244 C  
BRANCH   8   9
HETATM    9  N   UNL     1     -10.245  11.619  66.962  1.00  0.00    -0.209 N  
HETATM   10  C   UNL     1      -9.313  12.117  68.066  1.00  0.00    -0.197 C  
HETATM   11  C   UNL     1      -9.641  11.933  65.592  1.00  0.00    -0.204 C  
BRANCH   9  12
HETATM   12  C   UNL     1     -11.643  12.286  67.096  1.00  0.00    -0.353 C  
BRANCH  12  13
HETATM   13  C   UNL     1     -11.696  13.678  66.475  1.00  0.00    -0.414 C  
BRANCH  13  14
HETATM   14  C   UNL     1     -11.789  14.783  67.525  1.00  0.00    -0.326 C  
BRANCH  14  15
HETATM   15  C   UNL     1     -10.510  15.617  67.475  1.00  0.00    -0.285 C  
BRANCH  15  16
HETATM   16  C   UNL     1     -10.626  16.899  68.289  1.00  0.00    -0.363 C  
BRANCH  16  17
HETATM   17  C   UNL     1     -10.653  18.112  67.361  1.00  0.00    -0.406 C  
BRANCH  17  18
HETATM   18  C   UNL     1     -10.099  19.352  68.054  1.00  0.00    -0.516 C  
HETATM   19  C   UNL     1      -9.801  20.454  67.050  1.00  0.00    -0.594 C  
ENDBRANCH  17  18
ENDBRANCH  16  17
ENDBRANCH  15  16
ENDBRANCH  14  15
ENDBRANCH  13  14
ENDBRANCH  12  13
ENDBRANCH   9  12
ENDBRANCH   8   9
ENDBRANCH   7   8
ENDBRANCH   6   7
ENDBRANCH   5   6
ENDBRANCH   4   5
ENDBRANCH   3   4
ENDBRANCH   2   3
TORSDOF 14
ENDMDL
MODEL      252
REMARK 921   NORMALIZED FREE ENERGY PREDICTED BY IDOCK:   -2.52 KCAL/MOL
REMARK 922        TOTAL FREE ENERGY PREDICTED BY IDOCK:   -6.33 KCAL/MOL
REMARK 923 INTER-LIGAND FREE ENERGY PREDICTED BY IDOCK:   -5.04 KCAL/MOL
REMARK 924 INTRA-LIGAND FREE ENERGY PREDICTED BY IDOCK:   -1.28 KCAL/MOL
REMARK 927      BINDING AFFINITY PREDICTED BY RF-SCORE:    0.00 PKD
ROOT
HETATM    1  C   UNL     1      -7.386  19.456  69.070  1.00  0.00    -0.395 C  
HETATM    2  C   UNL     1      -7.064  17.988  68.837  1.00  0.00    -0.268 C  
ENDROOT
BRANCH   2   3
HETATM    3  C   UNL     1      -5.797  17.580  69.578  1.00  0.00    -0.235 C  
BRANCH   3   4
HETATM    4  C   UNL     1      -5.218  16.283  69.015  1.00  0.00    -0.110 C  
BRANCH   4   5
HETATM    5  C   UNL     1      -6.267  15.559  68.182  1.00  0.00    -0.139 C  
BRANCH   5   6
HETATM    6  C   UNL     1      -6.366  14.076  68.539  1.00  0.00    -0.093 C  
BRANCH   6   7
HETATM    7  C   UNL     1      -6.951  13.323  67.349  1.00  0.00    -0.105 C  
BRANCH   7   8
HETATM    8  C   UNL     1      -7.582  11.994  67.754  1.00  0.00    -0.130 C  
BRANCH   8   9
HETATM    9  N   UNL     1      -9.110  11.938  67.468  1.00  0.00    -0.173 N  
HETATM   10  C   UNL     1      -9.383  11.098  66.221  1.00  0.00    -0.195 C  
HETATM   11  C   UNL     1      -9.848  11.342  68.667  1.00  0.00    -0.202 C  
BRANCH   9  12
HETATM   12  C   UNL     1      -9.564  13.407  67.237  1.00  0.00    -0.234 C  
BRANCH  12  13
HETATM   13  C   UNL     1     -11.081  13.556  67.177  1.00  0.00    -0.308 C  
BRANCH  13  14
HETATM   14  C   UNL     1     -11.514  14.952  66.737  1.00  0.00    -0.304 C  
BRANCH  14  15
HETATM   15  C   UNL     1     -10.433  15.539  65.830  1.00  0.00    -0.378 C  
BRANCH  15  16
HETATM   16  C   UNL     1     -10.460  17.061  65.813  1.00  0.00    -0.261 C  
BRANCH  16  17
HETATM   17  C   UNL     1     -10.355  17.607  67.236  1.00  0.00    -0.354 C  
BRANCH  17  18
HETATM   18  C   UNL     1     -10.637  19.104  67.277  1.00  0.00    -0.573 C  
HETATM   19  C   UNL     1     -10.496  19.727  65.898  1.00  0.00    -0.587 C  
ENDBRANCH  17  18
ENDBRANCH  16  17
ENDBRANCH  15  16
ENDBRANCH  14  15
ENDBRANCH  13  14
ENDBRANCH  12  13
ENDBRANCH   9  12
ENDBRANCH   8   9
ENDBRANCH   7   8
ENDBRANCH   6   7
ENDBRANCH   5   6
ENDBRANCH   4   5
ENDBRANCH   3   4
ENDBRANCH   2   3
TORSDOF 14
ENDMDL
MODEL      253
REMARK 921   NORMALIZED FREE ENERGY PREDICTED BY IDOCK:   -2.52 KCAL/MOL
REMARK 922        TOTAL FREE ENERGY PREDICTED BY IDOCK:   -6.32 KCAL/MOL
REMARK 923 INTER-LIGAND FREE ENERGY PREDICTED BY IDOCK:   -4.68 KCAL/MOL
REMARK 924 INTRA-LIGAND FREE ENERGY PREDICTED BY IDOCK:   -1.64 KCAL/MOL
REMARK 927      BINDING AFFINITY PREDICTED BY RF-SCORE:    0.00 PKD
ROOT
HETATM    1  C   UNL     1     -10.302  11.870  65.621  1.00  0.00    -0.285 C  
HETATM    2  C   UNL     1     -10.105  10.378  65.401  1.00  0.00    -0.354 C  
ENDROOT
BRANCH   2   3
HETATM    3  C   UNL     1     -10.062   9.628  66.726  1.00  0.00    -0.301 C  
BRANCH   3   4
HETATM    4  C   UNL     1      -9.575   8.192  66.535  1.00  0.00    -0.303 C  
BRANCH   4   5
HETATM    5  C   UNL     1     -10.356   7.249  67.438  1.00  0.00    -0.330 C  
BRANCH   5   6
HETATM    6  C   UNL     1      -9.439   6.367  68.285  1.00  0.00    -0.121 C  
BRANCH   6   7
HETATM    7  C   UNL     1     -10.229   5.839  69.478  1.00  0.00    -0.306 C  
BRANCH   7   8
HETATM    8  C   UNL     1     -11.616   6.467  69.582  1.00  0.00    -0.282 C  
BRANCH   8   9
HETATM    9  N   UNL     1     -11.819   7.268  70.900  1.00  0.00    -0.318 N  
HETATM   10  C   UNL     1     -11.530   8.751  70.665  1.00  0.00    -0.231 C  
HETATM   11  C   UNL     1     -13.251   7.093  71.407  1.00  0.00    -0.328 C  
BRANCH   9  12
HETATM   12  C   UNL     1     -10.811   6.680  71.927  1.00  0.00    -0.236 C  
BRANCH  12  13
HETATM   13  C   UNL     1     -10.627   7.571  73.152  1.00  0.00    -0.442 C  
BRANCH  13  14
HETATM   14  C   UNL     1      -9.351   7.245  73.925  1.00  0.00    -0.304 C  
BRANCH  14  15
HETATM   15  C   UNL     1      -8.219   7.006  72.926  1.00  0.00    -0.119 C  
BRANCH  15  16
HETATM   16  C   UNL     1      -7.001   7.870  73.220  1.00  0.00    -0.114 C  
BRANCH  16  17
HETATM   17  C   UNL     1      -6.655   8.726  72.003  1.00  0.00    -0.054 C  
BRANCH  17  18
HETATM   18  C   UNL     1      -7.510   8.348  70.799  1.00  0.00    -0.065 C  
HETATM   19  C   UNL     1      -8.103   9.581  70.138  1.00  0.00    -0.186 C  
ENDBRANCH  17  18
ENDBRANCH  16  17
ENDBRANCH  15  16
ENDBRANCH  14  15
ENDBRANCH  13  14
ENDBRANCH  12  13
ENDBRANCH   9  12
ENDBRANCH   8   9
ENDBRANCH   7   8
ENDBRANCH   6   7
ENDBRANCH   5   6
ENDBRANCH   4   5
ENDBRANCH   3   4
ENDBRANCH   2   3
TORSDOF 14
ENDMDL
MODEL      254
REMARK 921   NORMALIZED FREE ENERGY PREDICTED BY IDOCK:   -2.52 KCAL/MOL
REMARK 922        TOTAL FREE ENERGY PREDICTED BY IDOCK:   -6.31 KCAL/MOL
REMARK 923 INTER-LIGAND FREE ENERGY PREDICTED BY IDOCK:   -5.54 KCAL/MOL
REMARK 924 INTRA-LIGAND FREE ENERGY PREDICTED BY IDOCK:   -0.77 KCAL/MOL
REMARK 927      BINDING AFFINITY PREDICTED BY RF-SCORE:    0.00 PKD
ROOT
HETATM    1  C   UNL     1     -10.498  19.481  67.021  1.00  0.00    -0.587 C  
HETATM    2  C   UNL     1      -9.534  18.486  67.646  1.00  0.00    -0.295 C  
ENDROOT
BRANCH   2   3
HETATM    3  C   UNL     1      -8.247  18.384  66.836  1.00  0.00    -0.258 C  
BRANCH   3   4
HETATM    4  C   UNL     1      -8.096  16.999  66.208  1.00  0.00    -0.332 C  
BRANCH   4   5
HETATM    5  C   UNL     1      -8.543  15.926  67.190  1.00  0.00    -0.221 C  
BRANCH   5   6
HETATM    6  C   UNL     1      -8.988  14.645  66.484  1.00  0.00    -0.236 C  
BRANCH   6   7
HETATM    7  C   UNL     1     -10.199  14.960  65.611  1.00  0.00    -0.382 C  
BRANCH   7   8
HETATM    8  C   UNL     1     -10.423  13.911  64.525  1.00  0.00    -0.310 C  
BRANCH   8   9
HETATM    9  N   UNL     1     -11.724  13.086  64.741  1.00  0.00    -0.329 N  
HETATM   10  C   UNL     1     -12.647  13.804  65.725  1.00  0.00    -0.480 C  
HETATM   11  C   UNL     1     -12.445  12.884  63.407  1.00  0.00    -0.303 C  
BRANCH   9  12
HETATM   12  C   UNL     1     -11.278  11.715  65.322  1.00  0.00    -0.199 C  
BRANCH  12  13
HETATM   13  C   UNL     1      -9.774  11.486  65.214  1.00  0.00    -0.268 C  
BRANCH  13  14
HETATM   14  C   UNL     1      -9.191  10.832  66.464  1.00  0.00    -0.187 C  
BRANCH  14  15
HETATM   15  C   UNL     1     -10.028   9.601  66.810  1.00  0.00    -0.289 C  
BRANCH  15  16
HETATM   16  C   UNL     1      -9.174   8.452  67.330  1.00  0.00    -0.165 C  
BRANCH  16  17
HETATM   17  C   UNL     1      -9.305   7.239  66.411  1.00  0.00    -0.199 C  
BRANCH  17  18
HETATM   18  C   UNL     1     -10.073   6.110  67.090  1.00  0.00    -0.210 C  
HETATM   19  C   UNL     1     -11.111   6.656  68.056  1.00  0.00    -0.296 C  
ENDBRANCH  17  18
ENDBRANCH  16  17
ENDBRANCH  15  16
ENDBRANCH  14  15
ENDBRANCH  13  14
ENDBRANCH  12  13
ENDBRANCH   9  12
ENDBRANCH   8   9
ENDBRANCH   7   8
ENDBRANCH   6   7
ENDBRANCH   5   6
ENDBRANCH   4   5
ENDBRANCH   3   4
ENDBRANCH   2   3
TORSDOF 14
ENDMDL
MODEL      255
REMARK 921   NORMALIZED FREE ENERGY PREDICTED BY IDOCK:   -2.51 KCAL/MOL
REMARK 922        TOTAL FREE ENERGY PREDICTED BY IDOCK:   -6.30 KCAL/MOL
REMARK 923 INTER-LIGAND FREE ENERGY PREDICTED BY IDOCK:   -5.52 KCAL/MOL
REMARK 924 INTRA-LIGAND FREE ENERGY PREDICTED BY IDOCK:   -0.78 KCAL/MOL
REMARK 927      BINDING AFFINITY PREDICTED BY RF-SCORE:    0.00 PKD
ROOT
HETATM    1  C   UNL     1      -9.764   6.851  72.511  1.00  0.00    -0.169 C  
HETATM    2  C   UNL     1     -10.828   7.936  72.486  1.00  0.00    -0.403 C  
ENDROOT
BRANCH   2   3
HETATM    3  C   UNL     1     -11.530   7.985  71.134  1.00  0.00    -0.302 C  
BRANCH   3   4
HETATM    4  C   UNL     1     -10.583   7.584  70.003  1.00  0.00    -0.242 C  
BRANCH   4   5
HETATM    5  C   UNL     1     -10.608   8.633  68.901  1.00  0.00    -0.166 C  
BRANCH   5   6
HETATM    6  C   UNL     1     -11.001  10.013  69.425  1.00  0.00    -0.280 C  
BRANCH   6   7
HETATM    7  C   UNL     1     -10.539  11.069  68.425  1.00  0.00    -0.224 C  
BRANCH   7   8
HETATM    8  C   UNL     1     -11.702  11.871  67.847  1.00  0.00    -0.298 C  
BRANCH   8   9
HETATM    9  N   UNL     1     -11.234  13.105  67.024  1.00  0.00    -0.283 N  
HETATM   10  C   UNL     1     -10.258  12.671  65.931  1.00  0.00    -0.274 C  
HETATM   11  C   UNL     1     -12.440  13.804  66.393  1.00  0.00    -0.355 C  
BRANCH   9  12
HETATM   12  C   UNL     1     -10.529  14.058  68.029  1.00  0.00    -0.241 C  
BRANCH  12  13
HETATM   13  C   UNL     1     -11.424  14.450  69.201  1.00  0.00    -0.328 C  
BRANCH  13  14
HETATM   14  C   UNL     1     -11.710  15.949  69.240  1.00  0.00    -0.360 C  
BRANCH  14  15
HETATM   15  C   UNL     1     -10.388  16.705  69.115  1.00  0.00    -0.326 C  
BRANCH  15  16
HETATM   16  C   UNL     1     -10.487  17.882  68.153  1.00  0.00    -0.380 C  
BRANCH  16  17
HETATM   17  C   UNL     1      -9.113  18.521  67.960  1.00  0.00    -0.319 C  
BRANCH  17  18
HETATM   18  C   UNL     1      -8.008  17.646  68.539  1.00  0.00    -0.283 C  
HETATM   19  C   UNL     1      -6.786  18.475  68.901  1.00  0.00    -0.284 C  
ENDBRANCH  17  18
ENDBRANCH  16  17
ENDBRANCH  15  16
ENDBRANCH  14  15
ENDBRANCH  13  14
ENDBRANCH  12  13
ENDBRANCH   9  12
ENDBRANCH   8   9
ENDBRANCH   7   8
ENDBRANCH   6   7
ENDBRANCH   5   6
ENDBRANCH   4   5
ENDBRANCH   3   4
ENDBRANCH   2   3
TORSDOF 14
ENDMDL
MODEL      256
REMARK 921   NORMALIZED FREE ENERGY PREDICTED BY IDOCK:   -2.50 KCAL/MOL
REMARK 922        TOTAL FREE ENERGY PREDICTED BY IDOCK:   -6.27 KCAL/MOL
REMARK 923 INTER-LIGAND FREE ENERGY PREDICTED BY IDOCK:   -5.63 KCAL/MOL
REMARK 924 INTRA-LIGAND FREE ENERGY PREDICTED BY IDOCK:   -0.64 KCAL/MOL
REMARK 927      BINDING AFFINITY PREDICTED BY RF-SCORE:    0.00 PKD
ROOT
HETATM    1  C   UNL     1      -9.406   4.894  67.695  1.00  0.00    -0.149 C  
HETATM    2  C   UNL     1      -9.226   6.231  66.993  1.00  0.00    -0.130 C  
ENDROOT
BRANCH   2   3
HETATM    3  C   UNL     1     -10.530   7.019  66.971  1.00  0.00    -0.386 C  
BRANCH   3   4
HETATM    4  C   UNL     1     -10.637   7.946  68.181  1.00  0.00    -0.179 C  
BRANCH   4   5
HETATM    5  C   UNL     1     -10.581   9.400  67.735  1.00  0.00    -0.317 C  
BRANCH   5   6
HETATM    6  C   UNL     1     -10.383  10.358  68.909  1.00  0.00    -0.227 C  
BRANCH   6   7
HETATM    7  C   UNL     1      -9.951  11.717  68.367  1.00  0.00    -0.202 C  
BRANCH   7   8
HETATM    8  C   UNL     1     -11.130  12.661  68.154  1.00  0.00    -0.249 C  
BRANCH   8   9
HETATM    9  N   UNL     1     -10.910  13.645  66.969  1.00  0.00    -0.284 N  
HETATM   10  C   UNL     1     -10.148  12.951  65.841  1.00  0.00    -0.289 C  
HETATM   11  C   UNL     1     -12.257  14.152  66.450  1.00  0.00    -0.446 C  
BRANCH   9  12
HETATM   12  C   UNL     1     -10.075  14.828  67.535  1.00  0.00    -0.224 C  
BRANCH  12  13
HETATM   13  C   UNL     1     -10.929  16.045  67.876  1.00  0.00    -0.327 C  
BRANCH  13  14
HETATM   14  C   UNL     1     -10.344  17.343  67.323  1.00  0.00    -0.336 C  
BRANCH  14  15
HETATM   15  C   UNL     1     -10.408  18.414  68.410  1.00  0.00    -0.357 C  
BRANCH  15  16
HETATM   16  C   UNL     1      -9.755  19.718  67.973  1.00  0.00    -0.505 C  
BRANCH  16  17
HETATM   17  C   UNL     1      -8.248  19.663  68.220  1.00  0.00    -0.357 C  
BRANCH  17  18
HETATM   18  C   UNL     1      -7.476  20.344  67.096  1.00  0.00    -0.358 C  
HETATM   19  C   UNL     1      -7.215  19.382  65.948  1.00  0.00    -0.310 C  
ENDBRANCH  17  18
ENDBRANCH  16  17
ENDBRANCH  15  16
ENDBRANCH  14  15
ENDBRANCH  13  14
ENDBRANCH  12  13
ENDBRANCH   9  12
ENDBRANCH   8   9
ENDBRANCH   7   8
ENDBRANCH   6   7
ENDBRANCH   5   6
ENDBRANCH   4   5
ENDBRANCH   3   4
ENDBRANCH   2   3
TORSDOF 14
ENDMDL
MODEL      257
REMARK 921   NORMALIZED FREE ENERGY PREDICTED BY IDOCK:   -2.48 KCAL/MOL
REMARK 922        TOTAL FREE ENERGY PREDICTED BY IDOCK:   -6.25 KCAL/MOL
REMARK 923 INTER-LIGAND FREE ENERGY PREDICTED BY IDOCK:   -5.41 KCAL/MOL
REMARK 924 INTRA-LIGAND FREE ENERGY PREDICTED BY IDOCK:   -0.84 KCAL/MOL
REMARK 927      BINDING AFFINITY PREDICTED BY RF-SCORE:    0.00 PKD
ROOT
HETATM    1  C   UNL     1      -7.676   8.975  68.843  1.00  0.00    -0.094 C  
HETATM    2  C   UNL     1      -7.776   7.475  68.616  1.00  0.00    -0.119 C  
ENDROOT
BRANCH   2   3
HETATM    3  C   UNL     1      -6.932   6.709  69.628  1.00  0.00    -0.067 C  
BRANCH   3   4
HETATM    4  C   UNL     1      -7.666   6.556  70.960  1.00  0.00    -0.094 C  
BRANCH   4   5
HETATM    5  C   UNL     1      -7.175   7.601  71.951  1.00  0.00    -0.065 C  
BRANCH   5   6
HETATM    6  C   UNL     1      -8.314   8.184  72.787  1.00  0.00    -0.240 C  
BRANCH   6   7
HETATM    7  C   UNL     1      -9.622   7.519  72.368  1.00  0.00    -0.205 C  
BRANCH   7   8
HETATM    8  C   UNL     1     -10.700   8.534  72.000  1.00  0.00    -0.340 C  
BRANCH   8   9
HETATM    9  N   UNL     1     -11.821   7.929  71.108  1.00  0.00    -0.289 N  
HETATM   10  C   UNL     1     -11.209   7.225  69.897  1.00  0.00    -0.170 C  
HETATM   11  C   UNL     1     -12.658   6.936  71.916  1.00  0.00    -0.297 C  
BRANCH   9  12
HETATM   12  C   UNL     1     -12.704   9.122  70.647  1.00  0.00     0.224 C  
BRANCH  12  13
HETATM   13  C   UNL     1     -12.766  10.245  71.678  1.00  0.00    -0.561 C  
BRANCH  13  14
HETATM   14  C   UNL     1     -12.605  11.626  71.047  1.00  0.00    -0.431 C  
BRANCH  14  15
HETATM   15  C   UNL     1     -13.363  12.646  71.896  1.00  0.00    -0.485 C  
BRANCH  15  16
HETATM   16  C   UNL     1     -13.199  14.066  71.373  1.00  0.00    -0.404 C  
BRANCH  16  17
HETATM   17  C   UNL     1     -13.988  15.043  72.243  1.00  0.00    -0.611 C  
BRANCH  17  18
HETATM   18  C   UNL     1     -13.073  16.087  72.874  1.00  0.00    -0.548 C  
HETATM   19  C   UNL     1     -12.752  15.733  74.317  1.00  0.00    -0.611 C  
ENDBRANCH  17  18
ENDBRANCH  16  17
ENDBRANCH  15  16
ENDBRANCH  14  15
ENDBRANCH  13  14
ENDBRANCH  12  13
ENDBRANCH   9  12
ENDBRANCH   8   9
ENDBRANCH   7   8
ENDBRANCH   6   7
ENDBRANCH   5   6
ENDBRANCH   4   5
ENDBRANCH   3   4
ENDBRANCH   2   3
TORSDOF 14
ENDMDL
MODEL      258
REMARK 921   NORMALIZED FREE ENERGY PREDICTED BY IDOCK:   -2.48 KCAL/MOL
REMARK 922        TOTAL FREE ENERGY PREDICTED BY IDOCK:   -6.24 KCAL/MOL
REMARK 923 INTER-LIGAND FREE ENERGY PREDICTED BY IDOCK:   -5.10 KCAL/MOL
REMARK 924 INTRA-LIGAND FREE ENERGY PREDICTED BY IDOCK:   -1.14 KCAL/MOL
REMARK 927      BINDING AFFINITY PREDICTED BY RF-SCORE:    0.00 PKD
ROOT
HETATM    1  C   UNL     1      -9.370  15.338  66.444  1.00  0.00    -0.328 C  
HETATM    2  C   UNL     1     -10.670  14.593  66.186  1.00  0.00    -0.314 C  
ENDROOT
BRANCH   2   3
HETATM    3  C   UNL     1     -11.248  14.953  64.823  1.00  0.00    -0.393 C  
BRANCH   3   4
HETATM    4  C   UNL     1     -11.966  13.760  64.193  1.00  0.00    -0.473 C  
BRANCH   4   5
HETATM    5  C   UNL     1     -11.631  12.485  64.954  1.00  0.00    -0.386 C  
BRANCH   5   6
HETATM    6  C   UNL     1     -10.824  11.501  64.106  1.00  0.00    -0.435 C  
BRANCH   6   7
HETATM    7  C   UNL     1      -9.383  11.488  64.607  1.00  0.00    -0.040 C  
BRANCH   7   8
HETATM    8  C   UNL     1      -8.978  10.133  65.180  1.00  0.00    -0.192 C  
BRANCH   8   9
HETATM    9  N   UNL     1      -7.951  10.251  66.343  1.00  0.00    -0.117 N  
HETATM   10  C   UNL     1      -6.548  10.489  65.784  1.00  0.00    -0.123 C  
HETATM   11  C   UNL     1      -8.340  11.400  67.274  1.00  0.00    -0.149 C  
BRANCH   9  12
HETATM   12  C   UNL     1      -8.003   8.899  67.109  1.00  0.00    -0.096 C  
BRANCH  12  13
HETATM   13  C   UNL     1      -9.331   8.170  66.932  1.00  0.00    -0.219 C  
BRANCH  13  14
HETATM   14  C   UNL     1     -10.220   8.268  68.169  1.00  0.00    -0.255 C  
BRANCH  14  15
HETATM   15  C   UNL     1     -10.949   6.938  68.358  1.00  0.00    -0.198 C  
BRANCH  15  16
HETATM   16  C   UNL     1     -11.088   6.561  69.827  1.00  0.00    -0.430 C  
BRANCH  16  17
HETATM   17  C   UNL     1     -10.331   7.558  70.701  1.00  0.00    -0.211 C  
BRANCH  17  18
HETATM   18  C   UNL     1     -10.994   7.714  72.065  1.00  0.00    -0.291 C  
HETATM   19  C   UNL     1     -12.025   8.830  72.049  1.00  0.00    -0.446 C  
ENDBRANCH  17  18
ENDBRANCH  16  17
ENDBRANCH  15  16
ENDBRANCH  14  15
ENDBRANCH  13  14
ENDBRANCH  12  13
ENDBRANCH   9  12
ENDBRANCH   8   9
ENDBRANCH   7   8
ENDBRANCH   6   7
ENDBRANCH   5   6
ENDBRANCH   4   5
ENDBRANCH   3   4
ENDBRANCH   2   3
TORSDOF 14
ENDMDL
MODEL      259
REMARK 921   NORMALIZED FREE ENERGY PREDICTED BY IDOCK:   -2.48 KCAL/MOL
REMARK 922        TOTAL FREE ENERGY PREDICTED BY IDOCK:   -6.24 KCAL/MOL
REMARK 923 INTER-LIGAND FREE ENERGY PREDICTED BY IDOCK:   -4.96 KCAL/MOL
REMARK 924 INTRA-LIGAND FREE ENERGY PREDICTED BY IDOCK:   -1.28 KCAL/MOL
REMARK 927      BINDING AFFINITY PREDICTED BY RF-SCORE:    0.00 PKD
ROOT
HETATM    1  C   UNL     1      -9.928  10.713  63.840  1.00  0.00    -0.390 C  
HETATM    2  C   UNL     1     -10.238  10.484  65.311  1.00  0.00    -0.352 C  
ENDROOT
BRANCH   2   3
HETATM    3  C   UNL     1      -9.998  11.749  66.126  1.00  0.00    -0.254 C  
BRANCH   3   4
HETATM    4  C   UNL     1     -11.265  12.181  66.863  1.00  0.00    -0.375 C  
BRANCH   4   5
HETATM    5  C   UNL     1     -11.457  11.338  68.115  1.00  0.00    -0.376 C  
BRANCH   5   6
HETATM    6  C   UNL     1     -10.144  11.102  68.861  1.00  0.00    -0.199 C  
BRANCH   6   7
HETATM    7  C   UNL     1     -10.062   9.632  69.259  1.00  0.00    -0.201 C  
BRANCH   7   8
HETATM    8  C   UNL     1     -10.077   9.436  70.772  1.00  0.00    -0.298 C  
BRANCH   8   9
HETATM    9  N   UNL     1     -11.235   8.515  71.251  1.00  0.00    -0.252 N  
HETATM   10  C   UNL     1     -11.020   8.113  72.710  1.00  0.00    -0.330 C  
HETATM   11  C   UNL     1     -12.576   9.237  71.105  1.00  0.00    -0.257 C  
BRANCH   9  12
HETATM   12  C   UNL     1     -11.201   7.259  70.335  1.00  0.00    -0.276 C  
BRANCH  12  13
HETATM   13  C   UNL     1      -9.935   6.427  70.520  1.00  0.00    -0.214 C  
BRANCH  13  14
HETATM   14  C   UNL     1     -10.218   4.927  70.522  1.00  0.00    -0.288 C  
BRANCH  14  15
HETATM   15  C   UNL     1      -9.902   4.365  69.137  1.00  0.00    -0.198 C  
BRANCH  15  16
HETATM   16  C   UNL     1      -9.143   5.361  68.271  1.00  0.00    -0.116 C  
BRANCH  16  17
HETATM   17  C   UNL     1      -9.919   5.641  66.985  1.00  0.00    -0.195 C  
BRANCH  17  18
HETATM   18  C   UNL     1      -9.963   7.133  66.677  1.00  0.00    -0.234 C  
HETATM   19  C   UNL     1      -8.571   7.676  66.400  1.00  0.00    -0.149 C  
ENDBRANCH  17  18
ENDBRANCH  16  17
ENDBRANCH  15  16
ENDBRANCH  14  15
ENDBRANCH  13  14
ENDBRANCH  12  13
ENDBRANCH   9  12
ENDBRANCH   8   9
ENDBRANCH   7   8
ENDBRANCH   6   7
ENDBRANCH   5   6
ENDBRANCH   4   5
ENDBRANCH   3   4
ENDBRANCH   2   3
TORSDOF 14
ENDMDL
MODEL      260
REMARK 921   NORMALIZED FREE ENERGY PREDICTED BY IDOCK:   -2.47 KCAL/MOL
REMARK 922        TOTAL FREE ENERGY PREDICTED BY IDOCK:   -6.23 KCAL/MOL
REMARK 923 INTER-LIGAND FREE ENERGY PREDICTED BY IDOCK:   -5.20 KCAL/MOL
REMARK 924 INTRA-LIGAND FREE ENERGY PREDICTED BY IDOCK:   -1.04 KCAL/MOL
REMARK 927      BINDING AFFINITY PREDICTED BY RF-SCORE:    0.00 PKD
ROOT
HETATM    1  C   UNL     1      -7.137  10.092  69.593  1.00  0.00    -0.104 C  
HETATM    2  C   UNL     1      -7.130   8.845  70.463  1.00  0.00    -0.064 C  
ENDROOT
BRANCH   2   3
HETATM    3  C   UNL     1      -8.184   8.936  71.561  1.00  0.00    -0.143 C  
BRANCH   3   4
HETATM    4  C   UNL     1      -9.464   8.202  71.162  1.00  0.00    -0.192 C  
BRANCH   4   5
HETATM    5  C   UNL     1     -10.635   9.174  71.124  1.00  0.00    -0.379 C  
BRANCH   5   6
HETATM    6  C   UNL     1     -10.953   9.640  69.703  1.00  0.00    -0.253 C  
BRANCH   6   7
HETATM    7  C   UNL     1     -11.182  11.148  69.720  1.00  0.00    -0.318 C  
BRANCH   7   8
HETATM    8  C   UNL     1     -12.063  11.617  68.566  1.00  0.00    -0.080 C  
BRANCH   8   9
HETATM    9  N   UNL     1     -11.443  12.804  67.775  1.00  0.00    -0.304 N  
HETATM   10  C   UNL     1     -11.850  14.132  68.413  1.00  0.00    -0.353 C  
HETATM   11  C   UNL     1      -9.918  12.684  67.757  1.00  0.00    -0.218 C  
BRANCH   9  12
HETATM   12  C   UNL     1     -12.005  12.706  66.329  1.00  0.00    -0.374 C  
BRANCH  12  13
HETATM   13  C   UNL     1     -10.946  12.300  65.309  1.00  0.00    -0.347 C  
BRANCH  13  14
HETATM   14  C   UNL     1     -10.477  13.477  64.456  1.00  0.00    -0.426 C  
BRANCH  14  15
HETATM   15  C   UNL     1     -11.528  14.584  64.526  1.00  0.00    -0.349 C  
BRANCH  15  16
HETATM   16  C   UNL     1     -10.996  15.841  65.200  1.00  0.00    -0.394 C  
BRANCH  16  17
HETATM   17  C   UNL     1      -9.547  15.633  65.638  1.00  0.00    -0.319 C  
BRANCH  17  18
HETATM   18  C   UNL     1      -9.175  16.564  66.786  1.00  0.00    -0.256 C  
HETATM   19  C   UNL     1      -7.992  17.444  66.416  1.00  0.00    -0.325 C  
ENDBRANCH  17  18
ENDBRANCH  16  17
ENDBRANCH  15  16
ENDBRANCH  14  15
ENDBRANCH  13  14
ENDBRANCH  12  13
ENDBRANCH   9  12
ENDBRANCH   8   9
ENDBRANCH   7   8
ENDBRANCH   6   7
ENDBRANCH   5   6
ENDBRANCH   4   5
ENDBRANCH   3   4
ENDBRANCH   2   3
TORSDOF 14
ENDMDL
MODEL      261
REMARK 921   NORMALIZED FREE ENERGY PREDICTED BY IDOCK:   -2.46 KCAL/MOL
REMARK 922        TOTAL FREE ENERGY PREDICTED BY IDOCK:   -6.21 KCAL/MOL
REMARK 923 INTER-LIGAND FREE ENERGY PREDICTED BY IDOCK:   -5.70 KCAL/MOL
REMARK 924 INTRA-LIGAND FREE ENERGY PREDICTED BY IDOCK:   -0.52 KCAL/MOL
REMARK 927      BINDING AFFINITY PREDICTED BY RF-SCORE:    0.00 PKD
ROOT
HETATM    1  C   UNL     1      -7.338  20.052  68.395  1.00  0.00    -0.285 C  
HETATM    2  C   UNL     1      -8.057  18.715  68.317  1.00  0.00    -0.339 C  
ENDROOT
BRANCH   2   3
HETATM    3  C   UNL     1      -9.548  18.876  68.589  1.00  0.00    -0.443 C  
BRANCH   3   4
HETATM    4  C   UNL     1     -10.251  19.575  67.426  1.00  0.00    -0.550 C  
BRANCH   4   5
HETATM    5  C   UNL     1     -10.349  18.637  66.232  1.00  0.00    -0.483 C  
BRANCH   5   6
HETATM    6  C   UNL     1     -10.473  17.173  66.656  1.00  0.00    -0.259 C  
BRANCH   6   7
HETATM    7  C   UNL     1     -10.772  16.328  65.421  1.00  0.00    -0.342 C  
BRANCH   7   8
HETATM    8  C   UNL     1     -10.143  14.940  65.500  1.00  0.00    -0.370 C  
BRANCH   8   9
HETATM    9  N   UNL     1     -11.194  13.796  65.429  1.00  0.00    -0.298 N  
HETATM   10  C   UNL     1     -12.063  13.799  66.687  1.00  0.00    -0.429 C  
HETATM   11  C   UNL     1     -12.075  13.966  64.191  1.00  0.00    -0.425 C  
BRANCH   9  12
HETATM   12  C   UNL     1     -10.389  12.469  65.336  1.00  0.00    -0.282 C  
BRANCH  12  13
HETATM   13  C   UNL     1     -10.895  11.400  66.299  1.00  0.00    -0.318 C  
BRANCH  13  14
HETATM   14  C   UNL     1     -10.196  10.058  66.101  1.00  0.00    -0.283 C  
BRANCH  14  15
HETATM   15  C   UNL     1      -8.718  10.311  65.805  1.00  0.00    -0.169 C  
BRANCH  15  16
HETATM   16  C   UNL     1      -7.859   9.082  66.068  1.00  0.00    -0.102 C  
BRANCH  16  17
HETATM   17  C   UNL     1      -7.934   8.123  64.882  1.00  0.00    -0.145 C  
BRANCH  17  18
HETATM   18  C   UNL     1      -7.348   8.751  63.623  1.00  0.00    -0.103 C  
HETATM   19  C   UNL     1      -5.847   8.528  63.546  1.00  0.00    -0.072 C  
ENDBRANCH  17  18
ENDBRANCH  16  17
ENDBRANCH  15  16
ENDBRANCH  14  15
ENDBRANCH  13  14
ENDBRANCH  12  13
ENDBRANCH   9  12
ENDBRANCH   8   9
ENDBRANCH   7   8
ENDBRANCH   6   7
ENDBRANCH   5   6
ENDBRANCH   4   5
ENDBRANCH   3   4
ENDBRANCH   2   3
TORSDOF 14
ENDMDL
MODEL      262
REMARK 921   NORMALIZED FREE ENERGY PREDICTED BY IDOCK:   -2.46 KCAL/MOL
REMARK 922        TOTAL FREE ENERGY PREDICTED BY IDOCK:   -6.21 KCAL/MOL
REMARK 923 INTER-LIGAND FREE ENERGY PREDICTED BY IDOCK:   -4.82 KCAL/MOL
REMARK 924 INTRA-LIGAND FREE ENERGY PREDICTED BY IDOCK:   -1.39 KCAL/MOL
REMARK 927      BINDING AFFINITY PREDICTED BY RF-SCORE:    0.00 PKD
ROOT
HETATM    1  C   UNL     1     -10.279   8.533  68.042  1.00  0.00    -0.264 C  
HETATM    2  C   UNL     1      -8.875   8.159  67.596  1.00  0.00    -0.136 C  
ENDROOT
BRANCH   2   3
HETATM    3  C   UNL     1      -7.849   8.500  68.670  1.00  0.00    -0.108 C  
BRANCH   3   4
HETATM    4  C   UNL     1      -7.440   9.971  68.600  1.00  0.00    -0.083 C  
BRANCH   4   5
HETATM    5  C   UNL     1      -7.499  10.463  67.161  1.00  0.00    -0.092 C  
BRANCH   5   6
HETATM    6  C   UNL     1      -7.977  11.911  67.064  1.00  0.00    -0.158 C  
BRANCH   6   7
HETATM    7  C   UNL     1      -8.830  12.230  68.288  1.00  0.00    -0.178 C  
BRANCH   7   8
HETATM    8  C   UNL     1     -10.318  12.307  67.958  1.00  0.00    -0.214 C  
BRANCH   8   9
HETATM    9  N   UNL     1     -11.030  13.504  68.649  1.00  0.00    -0.256 N  
HETATM   10  C   UNL     1     -11.848  13.013  69.844  1.00  0.00    -0.307 C  
HETATM   11  C   UNL     1      -9.998  14.532  69.115  1.00  0.00    -0.106 C  
BRANCH   9  12
HETATM   12  C   UNL     1     -11.966  14.132  67.579  1.00  0.00    -0.384 C  
BRANCH  12  13
HETATM   13  C   UNL     1     -11.501  13.857  66.152  1.00  0.00    -0.351 C  
BRANCH  13  14
HETATM   14  C   UNL     1     -11.157  15.137  65.394  1.00  0.00    -0.371 C  
BRANCH  14  15
HETATM   15  C   UNL     1      -9.644  15.348  65.447  1.00  0.00    -0.161 C  
BRANCH  15  16
HETATM   16  C   UNL     1      -9.261  16.559  66.286  1.00  0.00    -0.345 C  
BRANCH  16  17
HETATM   17  C   UNL     1     -10.393  17.585  66.279  1.00  0.00    -0.335 C  
BRANCH  17  18
HETATM   18  C   UNL     1      -9.851  19.008  66.224  1.00  0.00    -0.417 C  
HETATM   19  C   UNL     1     -10.088  19.737  67.537  1.00  0.00    -0.554 C  
ENDBRANCH  17  18
ENDBRANCH  16  17
ENDBRANCH  15  16
ENDBRANCH  14  15
ENDBRANCH  13  14
ENDBRANCH  12  13
ENDBRANCH   9  12
ENDBRANCH   8   9
ENDBRANCH   7   8
ENDBRANCH   6   7
ENDBRANCH   5   6
ENDBRANCH   4   5
ENDBRANCH   3   4
ENDBRANCH   2   3
TORSDOF 14
ENDMDL
MODEL      263
REMARK 921   NORMALIZED FREE ENERGY PREDICTED BY IDOCK:   -2.45 KCAL/MOL
REMARK 922        TOTAL FREE ENERGY PREDICTED BY IDOCK:   -6.20 KCAL/MOL
REMARK 923 INTER-LIGAND FREE ENERGY PREDICTED BY IDOCK:   -5.11 KCAL/MOL
REMARK 924 INTRA-LIGAND FREE ENERGY PREDICTED BY IDOCK:   -1.09 KCAL/MOL
REMARK 927      BINDING AFFINITY PREDICTED BY RF-SCORE:    0.00 PKD
ROOT
HETATM    1  C   UNL     1      -7.668  10.238  69.483  1.00  0.00    -0.167 C  
HETATM    2  C   UNL     1      -7.576   8.732  69.673  1.00  0.00    -0.076 C  
ENDROOT
BRANCH   2   3
HETATM    3  C   UNL     1      -6.928   8.385  71.007  1.00  0.00    -0.056 C  
BRANCH   3   4
HETATM    4  C   UNL     1      -7.809   7.438  71.821  1.00  0.00    -0.090 C  
BRANCH   4   5
HETATM    5  C   UNL     1      -7.859   7.887  73.274  1.00  0.00    -0.194 C  
BRANCH   5   6
HETATM    6  C   UNL     1      -9.180   7.517  73.948  1.00  0.00    -0.314 C  
BRANCH   6   7
HETATM    7  C   UNL     1     -10.111   6.907  72.905  1.00  0.00    -0.212 C  
BRANCH   7   8
HETATM    8  C   UNL     1     -11.394   7.712  72.726  1.00  0.00    -0.367 C  
BRANCH   8   9
HETATM    9  N   UNL     1     -12.039   7.519  71.324  1.00  0.00    -0.314 N  
HETATM   10  C   UNL     1     -11.437   6.297  70.630  1.00  0.00    -0.329 C  
HETATM   11  C   UNL     1     -13.552   7.344  71.461  1.00  0.00    -0.370 C  
BRANCH   9  12
HETATM   12  C   UNL     1     -11.720   8.808  70.516  1.00  0.00    -0.094 C  
BRANCH  12  13
HETATM   13  C   UNL     1     -11.714  10.063  71.383  1.00  0.00    -0.414 C  
BRANCH  13  14
HETATM   14  C   UNL     1     -12.002  11.329  70.579  1.00  0.00    -0.467 C  
BRANCH  14  15
HETATM   15  C   UNL     1     -12.110  10.959  69.101  1.00  0.00    -0.292 C  
BRANCH  15  16
HETATM   16  C   UNL     1     -11.427  11.979  68.200  1.00  0.00    -0.383 C  
BRANCH  16  17
HETATM   17  C   UNL     1     -11.094  11.351  66.849  1.00  0.00    -0.356 C  
BRANCH  17  18
HETATM   18  C   UNL     1     -10.739  12.414  65.815  1.00  0.00    -0.301 C  
HETATM   19  C   UNL     1     -10.038  11.800  64.615  1.00  0.00    -0.310 C  
ENDBRANCH  17  18
ENDBRANCH  16  17
ENDBRANCH  15  16
ENDBRANCH  14  15
ENDBRANCH  13  14
ENDBRANCH  12  13
ENDBRANCH   9  12
ENDBRANCH   8   9
ENDBRANCH   7   8
ENDBRANCH   6   7
ENDBRANCH   5   6
ENDBRANCH   4   5
ENDBRANCH   3   4
ENDBRANCH   2   3
TORSDOF 14
ENDMDL
MODEL      264
REMARK 921   NORMALIZED FREE ENERGY PREDICTED BY IDOCK:   -2.44 KCAL/MOL
REMARK 922        TOTAL FREE ENERGY PREDICTED BY IDOCK:   -6.17 KCAL/MOL
REMARK 923 INTER-LIGAND FREE ENERGY PREDICTED BY IDOCK:   -4.84 KCAL/MOL
REMARK 924 INTRA-LIGAND FREE ENERGY PREDICTED BY IDOCK:   -1.33 KCAL/MOL
REMARK 927      BINDING AFFINITY PREDICTED BY RF-SCORE:    0.00 PKD
ROOT
HETATM    1  C   UNL     1     -12.395  13.603  65.378  1.00  0.00    -0.510 C  
HETATM    2  C   UNL     1     -12.013  14.845  64.589  1.00  0.00    -0.407 C  
ENDROOT
BRANCH   2   3
HETATM    3  C   UNL     1     -10.671  15.400  65.053  1.00  0.00    -0.460 C  
BRANCH   3   4
HETATM    4  C   UNL     1     -10.841  16.326  66.256  1.00  0.00    -0.098 C  
BRANCH   4   5
HETATM    5  C   UNL     1     -10.441  17.746  65.885  1.00  0.00    -0.251 C  
BRANCH   5   6
HETATM    6  C   UNL     1     -10.758  18.746  66.997  1.00  0.00    -0.435 C  
BRANCH   6   7
HETATM    7  C   UNL     1      -9.454  19.371  67.483  1.00  0.00    -0.395 C  
BRANCH   7   8
HETATM    8  C   UNL     1      -8.658  18.433  68.385  1.00  0.00    -0.325 C  
BRANCH   8   9
HETATM    9  N   UNL     1      -7.121  18.554  68.178  1.00  0.00    -0.242 N  
HETATM   10  C   UNL     1      -6.821  19.212  66.831  1.00  0.00    -0.198 C  
HETATM   11  C   UNL     1      -6.501  19.379  69.307  1.00  0.00    -0.312 C  
BRANCH   9  12
HETATM   12  C   UNL     1      -6.562  17.103  68.205  1.00  0.00    -0.158 C  
BRANCH  12  13
HETATM   13  C   UNL     1      -7.440  16.117  67.442  1.00  0.00    -0.199 C  
BRANCH  13  14
HETATM   14  C   UNL     1      -7.337  14.696  67.994  1.00  0.00    -0.142 C  
BRANCH  14  15
HETATM   15  C   UNL     1      -8.337  13.808  67.254  1.00  0.00    -0.186 C  
BRANCH  15  16
HETATM   16  C   UNL     1      -8.921  12.727  68.153  1.00  0.00    -0.199 C  
BRANCH  16  17
HETATM   17  C   UNL     1      -7.843  11.708  68.521  1.00  0.00    -0.140 C  
BRANCH  17  18
HETATM   18  C   UNL     1      -7.180  11.129  67.277  1.00  0.00    -0.113 C  
HETATM   19  C   UNL     1      -6.647   9.730  67.540  1.00  0.00    -0.069 C  
ENDBRANCH  17  18
ENDBRANCH  16  17
ENDBRANCH  15  16
ENDBRANCH  14  15
ENDBRANCH  13  14
ENDBRANCH  12  13
ENDBRANCH   9  12
ENDBRANCH   8   9
ENDBRANCH   7   8
ENDBRANCH   6   7
ENDBRANCH   5   6
ENDBRANCH   4   5
ENDBRANCH   3   4
ENDBRANCH   2   3
TORSDOF 14
ENDMDL
MODEL      265
REMARK 921   NORMALIZED FREE ENERGY PREDICTED BY IDOCK:   -2.44 KCAL/MOL
REMARK 922        TOTAL FREE ENERGY PREDICTED BY IDOCK:   -6.16 KCAL/MOL
REMARK 923 INTER-LIGAND FREE ENERGY PREDICTED BY IDOCK:   -5.17 KCAL/MOL
REMARK 924 INTRA-LIGAND FREE ENERGY PREDICTED BY IDOCK:   -0.99 KCAL/MOL
REMARK 927      BINDING AFFINITY PREDICTED BY RF-SCORE:    0.00 PKD
ROOT
HETATM    1  C   UNL     1      -9.449   7.072  73.620  1.00  0.00    -0.239 C  
HETATM    2  C   UNL     1     -10.076   6.332  72.448  1.00  0.00    -0.195 C  
ENDROOT
BRANCH   2   3
HETATM    3  C   UNL     1     -11.553   6.677  72.308  1.00  0.00    -0.313 C  
BRANCH   3   4
HETATM    4  C   UNL     1     -11.785   7.666  71.166  1.00  0.00    -0.311 C  
BRANCH   4   5
HETATM    5  C   UNL     1     -12.300   8.989  71.715  1.00  0.00    -0.438 C  
BRANCH   5   6
HETATM    6  C   UNL     1     -11.580  10.189  71.101  1.00  0.00    -0.430 C  
BRANCH   6   7
HETATM    7  C   UNL     1     -11.220   9.861  69.655  1.00  0.00    -0.251 C  
BRANCH   7   8
HETATM    8  C   UNL     1      -9.903  10.498  69.223  1.00  0.00    -0.205 C  
BRANCH   8   9
HETATM    9  N   UNL     1      -9.740  10.561  67.678  1.00  0.00    -0.163 N  
HETATM   10  C   UNL     1      -8.286  10.297  67.290  1.00  0.00    -0.121 C  
HETATM   11  C   UNL     1     -10.650   9.528  67.011  1.00  0.00    -0.201 C  
BRANCH   9  12
HETATM   12  C   UNL     1     -10.159  11.996  67.253  1.00  0.00    -0.194 C  
BRANCH  12  13
HETATM   13  C   UNL     1      -8.965  12.890  66.932  1.00  0.00    -0.210 C  
BRANCH  13  14
HETATM   14  C   UNL     1      -8.779  14.006  67.957  1.00  0.00    -0.180 C  
BRANCH  14  15
HETATM   15  C   UNL     1     -10.089  14.196  68.720  1.00  0.00    -0.199 C  
BRANCH  15  16
HETATM   16  C   UNL     1     -10.810  15.475  68.317  1.00  0.00    -0.292 C  
BRANCH  16  17
HETATM   17  C   UNL     1     -11.833  15.862  69.384  1.00  0.00    -0.325 C  
BRANCH  17  18
HETATM   18  C   UNL     1     -11.671  15.014  70.641  1.00  0.00    -0.357 C  
HETATM   19  C   UNL     1     -11.989  15.819  71.890  1.00  0.00    -0.552 C  
ENDBRANCH  17  18
ENDBRANCH  16  17
ENDBRANCH  15  16
ENDBRANCH  14  15
ENDBRANCH  13  14
ENDBRANCH  12  13
ENDBRANCH   9  12
ENDBRANCH   8   9
ENDBRANCH   7   8
ENDBRANCH   6   7
ENDBRANCH   5   6
ENDBRANCH   4   5
ENDBRANCH   3   4
ENDBRANCH   2   3
TORSDOF 14
ENDMDL
MODEL      266
REMARK 921   NORMALIZED FREE ENERGY PREDICTED BY IDOCK:   -2.43 KCAL/MOL
REMARK 922        TOTAL FREE ENERGY PREDICTED BY IDOCK:   -6.15 KCAL/MOL
REMARK 923 INTER-LIGAND FREE ENERGY PREDICTED BY IDOCK:   -5.10 KCAL/MOL
REMARK 924 INTRA-LIGAND FREE ENERGY PREDICTED BY IDOCK:   -1.04 KCAL/MOL
REMARK 927      BINDING AFFINITY PREDICTED BY RF-SCORE:    0.00 PKD
ROOT
HETATM    1  C   UNL     1      -7.258  20.338  67.191  1.00  0.00    -0.327 C  
HETATM    2  C   UNL     1      -6.631  20.141  68.562  1.00  0.00    -0.337 C  
ENDROOT
BRANCH   2   3
HETATM    3  C   UNL     1      -5.429  19.207  68.487  1.00  0.00    -0.203 C  
BRANCH   3   4
HETATM    4  C   UNL     1      -5.747  17.961  67.661  1.00  0.00    -0.145 C  
BRANCH   4   5
HETATM    5  C   UNL     1      -5.763  16.729  68.555  1.00  0.00    -0.126 C  
BRANCH   5   6
HETATM    6  C   UNL     1      -7.101  16.554  69.274  1.00  0.00    -0.219 C  
BRANCH   6   7
HETATM    7  C   UNL     1      -8.205  16.413  68.230  1.00  0.00    -0.177 C  
BRANCH   7   8
HETATM    8  C   UNL     1      -9.327  15.487  68.690  1.00  0.00    -0.201 C  
BRANCH   8   9
HETATM    9  N   UNL     1     -10.740  16.014  68.310  1.00  0.00    -0.285 N  
HETATM   10  C   UNL     1     -11.679  15.923  69.512  1.00  0.00    -0.326 C  
HETATM   11  C   UNL     1     -10.649  17.464  67.831  1.00  0.00    -0.383 C  
BRANCH   9  12
HETATM   12  C   UNL     1     -11.250  15.102  67.159  1.00  0.00    -0.320 C  
BRANCH  12  13
HETATM   13  C   UNL     1     -10.622  13.712  67.184  1.00  0.00    -0.272 C  
BRANCH  13  14
HETATM   14  C   UNL     1     -11.606  12.635  67.637  1.00  0.00    -0.414 C  
BRANCH  14  15
HETATM   15  C   UNL     1     -11.336  11.357  66.843  1.00  0.00    -0.284 C  
BRANCH  15  16
HETATM   16  C   UNL     1     -10.011  11.413  66.095  1.00  0.00    -0.265 C  
BRANCH  16  17
HETATM   17  C   UNL     1      -9.579  10.007  65.683  1.00  0.00    -0.313 C  
BRANCH  17  18
HETATM   18  C   UNL     1      -9.813   9.003  66.806  1.00  0.00    -0.300 C  
HETATM   19  C   UNL     1      -9.526   7.585  66.342  1.00  0.00    -0.208 C  
ENDBRANCH  17  18
ENDBRANCH  16  17
ENDBRANCH  15  16
ENDBRANCH  14  15
ENDBRANCH  13  14
ENDBRANCH  12  13
ENDBRANCH   9  12
ENDBRANCH   8   9
ENDBRANCH   7   8
ENDBRANCH   6   7
ENDBRANCH   5   6
ENDBRANCH   4   5
ENDBRANCH   3   4
ENDBRANCH   2   3
TORSDOF 14
ENDMDL
MODEL      267
REMARK 921   NORMALIZED FREE ENERGY PREDICTED BY IDOCK:   -2.40 KCAL/MOL
REMARK 922        TOTAL FREE ENERGY PREDICTED BY IDOCK:   -6.10 KCAL/MOL
REMARK 923 INTER-LIGAND FREE ENERGY PREDICTED BY IDOCK:   -5.23 KCAL/MOL
REMARK 924 INTRA-LIGAND FREE ENERGY PREDICTED BY IDOCK:   -0.87 KCAL/MOL
REMARK 927      BINDING AFFINITY PREDICTED BY RF-SCORE:    0.00 PKD
ROOT
HETATM    1  C   UNL     1      -8.031  15.672  66.786  1.00  0.00    -0.246 C  
HETATM    2  C   UNL     1      -8.007  14.285  67.408  1.00  0.00    -0.211 C  
ENDROOT
BRANCH   2   3
HETATM    3  C   UNL     1      -9.379  13.626  67.337  1.00  0.00    -0.227 C  
BRANCH   3   4
HETATM    4  C   UNL     1     -10.127  14.041  66.070  1.00  0.00    -0.327 C  
BRANCH   4   5
HETATM    5  C   UNL     1     -10.986  12.890  65.568  1.00  0.00    -0.301 C  
BRANCH   5   6
HETATM    6  C   UNL     1     -10.545  12.398  64.190  1.00  0.00    -0.414 C  
BRANCH   6   7
HETATM    7  C   UNL     1     -10.371  10.883  64.242  1.00  0.00    -0.436 C  
BRANCH   7   8
HETATM    8  C   UNL     1      -9.386  10.374  63.194  1.00  0.00    -0.312 C  
BRANCH   8   9
HETATM    9  N   UNL     1      -8.297   9.438  63.792  1.00  0.00    -0.171 N  
HETATM   10  C   UNL     1      -8.107   8.212  62.899  1.00  0.00    -0.143 C  
HETATM   11  C   UNL     1      -6.973  10.191  63.927  1.00  0.00    -0.103 C  
BRANCH   9  12
HETATM   12  C   UNL     1      -8.814   9.008  65.194  1.00  0.00    -0.182 C  
BRANCH  12  13
HETATM   13  C   UNL     1      -8.343   7.614  65.596  1.00  0.00    -0.143 C  
BRANCH  13  14
HETATM   14  C   UNL     1      -9.350   6.892  66.488  1.00  0.00    -0.197 C  
BRANCH  14  15
HETATM   15  C   UNL     1     -10.369   7.908  67.001  1.00  0.00    -0.411 C  
BRANCH  15  16
HETATM   16  C   UNL     1     -10.580   7.803  68.505  1.00  0.00    -0.153 C  
BRANCH  16  17
HETATM   17  C   UNL     1     -11.045   6.396  68.875  1.00  0.00    -0.420 C  
BRANCH  17  18
HETATM   18  C   UNL     1     -11.015   6.181  70.384  1.00  0.00    -0.404 C  
HETATM   19  C   UNL     1     -12.144   6.935  71.068  1.00  0.00    -0.429 C  
ENDBRANCH  17  18
ENDBRANCH  16  17
ENDBRANCH  15  16
ENDBRANCH  14  15
ENDBRANCH  13  14
ENDBRANCH  12  13
ENDBRANCH   9  12
ENDBRANCH   8   9
ENDBRANCH   7   8
ENDBRANCH   6   7
ENDBRANCH   5   6
ENDBRANCH   4   5
ENDBRANCH   3   4
ENDBRANCH   2   3
TORSDOF 14
ENDMDL
MODEL      268
REMARK 921   NORMALIZED FREE ENERGY PREDICTED BY IDOCK:   -2.39 KCAL/MOL
REMARK 922        TOTAL FREE ENERGY PREDICTED BY IDOCK:   -6.07 KCAL/MOL
REMARK 923 INTER-LIGAND FREE ENERGY PREDICTED BY IDOCK:   -5.19 KCAL/MOL
REMARK 924 INTRA-LIGAND FREE ENERGY PREDICTED BY IDOCK:   -0.89 KCAL/MOL
REMARK 927      BINDING AFFINITY PREDICTED BY RF-SCORE:    0.00 PKD
ROOT
HETATM    1  C   UNL     1      -9.323  15.257  65.977  1.00  0.00    -0.346 C  
HETATM    2  C   UNL     1     -10.008  14.721  67.224  1.00  0.00    -0.231 C  
ENDROOT
BRANCH   2   3
HETATM    3  C   UNL     1     -11.525  14.748  67.072  1.00  0.00    -0.362 C  
BRANCH   3   4
HETATM    4  C   UNL     1     -12.219  14.319  68.365  1.00  0.00    -0.197 C  
BRANCH   4   5
HETATM    5  C   UNL     1     -11.334  13.353  69.139  1.00  0.00    -0.333 C  
BRANCH   5   6
HETATM    6  C   UNL     1     -11.976  11.974  69.286  1.00  0.00    -0.329 C  
BRANCH   6   7
HETATM    7  C   UNL     1     -11.426  11.057  68.198  1.00  0.00    -0.374 C  
BRANCH   7   8
HETATM    8  C   UNL     1     -10.355  10.106  68.723  1.00  0.00    -0.194 C  
BRANCH   8   9
HETATM    9  N   UNL     1      -9.357   9.651  67.620  1.00  0.00    -0.127 N  
HETATM   10  C   UNL     1     -10.103   8.922  66.503  1.00  0.00    -0.286 C  
HETATM   11  C   UNL     1      -8.619  10.861  67.046  1.00  0.00    -0.136 C  
BRANCH   9  12
HETATM   12  C   UNL     1      -8.351   8.689  68.312  1.00  0.00    -0.127 C  
BRANCH  12  13
HETATM   13  C   UNL     1      -8.928   7.295  68.541  1.00  0.00    -0.130 C  
BRANCH  13  14
HETATM   14  C   UNL     1      -9.201   7.011  70.016  1.00  0.00    -0.148 C  
BRANCH  14  15
HETATM   15  C   UNL     1     -10.221   5.878  70.118  1.00  0.00    -0.281 C  
BRANCH  15  16
HETATM   16  C   UNL     1     -11.491   6.310  70.838  1.00  0.00    -0.377 C  
BRANCH  16  17
HETATM   17  C   UNL     1     -11.541   7.833  70.951  1.00  0.00    -0.289 C  
BRANCH  17  18
HETATM   18  C   UNL     1     -12.155   8.270  72.276  1.00  0.00    -0.439 C  
HETATM   19  C   UNL     1     -13.520   8.904  72.066  1.00  0.00    -0.482 C  
ENDBRANCH  17  18
ENDBRANCH  16  17
ENDBRANCH  15  16
ENDBRANCH  14  15
ENDBRANCH  13  14
ENDBRANCH  12  13
ENDBRANCH   9  12
ENDBRANCH   8   9
ENDBRANCH   7   8
ENDBRANCH   6   7
ENDBRANCH   5   6
ENDBRANCH   4   5
ENDBRANCH   3   4
ENDBRANCH   2   3
TORSDOF 14
ENDMDL
MODEL      269
REMARK 921   NORMALIZED FREE ENERGY PREDICTED BY IDOCK:   -2.38 KCAL/MOL
REMARK 922        TOTAL FREE ENERGY PREDICTED BY IDOCK:   -6.07 KCAL/MOL
REMARK 923 INTER-LIGAND FREE ENERGY PREDICTED BY IDOCK:   -4.63 KCAL/MOL
REMARK 924 INTRA-LIGAND FREE ENERGY PREDICTED BY IDOCK:   -1.44 KCAL/MOL
REMARK 927      BINDING AFFINITY PREDICTED BY RF-SCORE:    0.00 PKD
ROOT
HETATM    1  C   UNL     1     -12.126  13.407  69.491  1.00  0.00    -0.334 C  
HETATM    2  C   UNL     1     -11.192  14.268  68.656  1.00  0.00    -0.287 C  
ENDROOT
BRANCH   2   3
HETATM    3  C   UNL     1     -10.408  15.237  69.531  1.00  0.00    -0.267 C  
BRANCH   3   4
HETATM    4  C   UNL     1     -10.764  16.688  69.209  1.00  0.00    -0.337 C  
BRANCH   4   5
HETATM    5  C   UNL     1      -9.953  17.174  68.017  1.00  0.00    -0.295 C  
BRANCH   5   6
HETATM    6  C   UNL     1     -10.719  18.194  67.174  1.00  0.00    -0.309 C  
BRANCH   6   7
HETATM    7  C   UNL     1      -9.788  19.358  66.846  1.00  0.00    -0.447 C  
BRANCH   7   8
HETATM    8  C   UNL     1      -8.839  19.687  67.994  1.00  0.00    -0.318 C  
BRANCH   8   9
HETATM    9  N   UNL     1      -7.342  19.621  67.579  1.00  0.00    -0.243 N  
HETATM   10  C   UNL     1      -7.216  19.148  66.131  1.00  0.00    -0.262 C  
HETATM   11  C   UNL     1      -6.692  20.996  67.734  1.00  0.00    -0.295 C  
BRANCH   9  12
HETATM   12  C   UNL     1      -6.669  18.599  68.539  1.00  0.00    -0.258 C  
BRANCH  12  13
HETATM   13  C   UNL     1      -6.410  17.249  67.878  1.00  0.00    -0.157 C  
BRANCH  13  14
HETATM   14  C   UNL     1      -6.876  16.078  68.741  1.00  0.00    -0.132 C  
BRANCH  14  15
HETATM   15  C   UNL     1      -6.241  14.793  68.212  1.00  0.00    -0.125 C  
BRANCH  15  16
HETATM   16  C   UNL     1      -7.074  13.562  68.539  1.00  0.00    -0.108 C  
BRANCH  16  17
HETATM   17  C   UNL     1      -7.134  12.630  67.330  1.00  0.00    -0.138 C  
BRANCH  17  18
HETATM   18  C   UNL     1      -8.570  12.410  66.870  1.00  0.00    -0.171 C  
HETATM   19  C   UNL     1      -8.995  10.964  67.069  1.00  0.00    -0.148 C  
ENDBRANCH  17  18
ENDBRANCH  16  17
ENDBRANCH  15  16
ENDBRANCH  14  15
ENDBRANCH  13  14
ENDBRANCH  12  13
ENDBRANCH   9  12
ENDBRANCH   8   9
ENDBRANCH   7   8
ENDBRANCH   6   7
ENDBRANCH   5   6
ENDBRANCH   4   5
ENDBRANCH   3   4
ENDBRANCH   2   3
TORSDOF 14
ENDMDL
MODEL      270
REMARK 921   NORMALIZED FREE ENERGY PREDICTED BY IDOCK:   -2.38 KCAL/MOL
REMARK 922        TOTAL FREE ENERGY PREDICTED BY IDOCK:   -6.05 KCAL/MOL
REMARK 923 INTER-LIGAND FREE ENERGY PREDICTED BY IDOCK:   -5.34 KCAL/MOL
REMARK 924 INTRA-LIGAND FREE ENERGY PREDICTED BY IDOCK:   -0.72 KCAL/MOL
REMARK 927      BINDING AFFINITY PREDICTED BY RF-SCORE:    0.00 PKD
ROOT
HETATM    1  C   UNL     1      -9.411   9.752  69.389  1.00  0.00    -0.212 C  
HETATM    2  C   UNL     1      -9.389   9.676  67.870  1.00  0.00    -0.141 C  
ENDROOT
BRANCH   2   3
HETATM    3  C   UNL     1     -10.781   9.891  67.289  1.00  0.00    -0.304 C  
BRANCH   3   4
HETATM    4  C   UNL     1     -11.243  11.335  67.479  1.00  0.00    -0.357 C  
BRANCH   4   5
HETATM    5  C   UNL     1     -10.707  12.209  66.355  1.00  0.00    -0.292 C  
BRANCH   5   6
HETATM    6  C   UNL     1      -9.361  12.843  66.707  1.00  0.00    -0.243 C  
BRANCH   6   7
HETATM    7  C   UNL     1      -9.459  14.351  66.500  1.00  0.00    -0.309 C  
BRANCH   7   8
HETATM    8  C   UNL     1     -10.677  14.956  67.191  1.00  0.00    -0.296 C  
BRANCH   8   9
HETATM    9  N   UNL     1     -10.405  15.330  68.677  1.00  0.00    -0.227 N  
HETATM   10  C   UNL     1     -11.176  14.392  69.606  1.00  0.00    -0.232 C  
HETATM   11  C   UNL     1      -8.908  15.240  68.976  1.00  0.00    -0.226 C  
BRANCH   9  12
HETATM   12  C   UNL     1     -10.901  16.792  68.856  1.00  0.00    -0.301 C  
BRANCH  12  13
HETATM   13  C   UNL     1     -10.753  17.627  67.587  1.00  0.00    -0.318 C  
BRANCH  13  14
HETATM   14  C   UNL     1      -9.766  18.779  67.758  1.00  0.00    -0.356 C  
BRANCH  14  15
HETATM   15  C   UNL     1      -8.639  18.616  66.739  1.00  0.00    -0.291 C  
BRANCH  15  16
HETATM   16  C   UNL     1      -8.264  19.937  66.080  1.00  0.00    -0.346 C  
BRANCH  16  17
HETATM   17  C   UNL     1      -6.861  20.361  66.512  1.00  0.00    -0.297 C  
BRANCH  17  18
HETATM   18  C   UNL     1      -6.350  19.499  67.661  1.00  0.00    -0.228 C  
HETATM   19  C   UNL     1      -6.008  20.349  68.874  1.00  0.00    -0.363 C  
ENDBRANCH  17  18
ENDBRANCH  16  17
ENDBRANCH  15  16
ENDBRANCH  14  15
ENDBRANCH  13  14
ENDBRANCH  12  13
ENDBRANCH   9  12
ENDBRANCH   8   9
ENDBRANCH   7   8
ENDBRANCH   6   7
ENDBRANCH   5   6
ENDBRANCH   4   5
ENDBRANCH   3   4
ENDBRANCH   2   3
TORSDOF 14
ENDMDL
MODEL      271
REMARK 921   NORMALIZED FREE ENERGY PREDICTED BY IDOCK:   -2.35 KCAL/MOL
REMARK 922        TOTAL FREE ENERGY PREDICTED BY IDOCK:   -6.02 KCAL/MOL
REMARK 923 INTER-LIGAND FREE ENERGY PREDICTED BY IDOCK:   -4.98 KCAL/MOL
REMARK 924 INTRA-LIGAND FREE ENERGY PREDICTED BY IDOCK:   -1.04 KCAL/MOL
REMARK 927      BINDING AFFINITY PREDICTED BY RF-SCORE:    0.00 PKD
ROOT
HETATM    1  C   UNL     1      -6.377  17.183  66.510  1.00  0.00    -0.253 C  
HETATM    2  C   UNL     1      -7.490  18.210  66.376  1.00  0.00    -0.287 C  
ENDROOT
BRANCH   2   3
HETATM    3  C   UNL     1      -8.711  17.808  67.194  1.00  0.00    -0.252 C  
BRANCH   3   4
HETATM    4  C   UNL     1      -8.302  17.113  68.493  1.00  0.00    -0.262 C  
BRANCH   4   5
HETATM    5  C   UNL     1      -9.249  15.959  68.790  1.00  0.00    -0.218 C  
BRANCH   5   6
HETATM    6  C   UNL     1     -10.698  16.423  68.935  1.00  0.00    -0.319 C  
BRANCH   6   7
HETATM    7  C   UNL     1     -11.571  15.617  67.978  1.00  0.00    -0.245 C  
BRANCH   7   8
HETATM    8  C   UNL     1     -10.860  14.374  67.449  1.00  0.00    -0.292 C  
BRANCH   8   9
HETATM    9  N   UNL     1     -11.144  14.111  65.943  1.00  0.00    -0.302 N  
HETATM   10  C   UNL     1     -12.651  14.074  65.689  1.00  0.00    -0.512 C  
HETATM   11  C   UNL     1     -10.502  15.204  65.087  1.00  0.00    -0.410 C  
BRANCH   9  12
HETATM   12  C   UNL     1     -10.509  12.731  65.614  1.00  0.00    -0.278 C  
BRANCH  12  13
HETATM   13  C   UNL     1     -10.301  11.865  66.853  1.00  0.00    -0.238 C  
BRANCH  13  14
HETATM   14  C   UNL     1     -10.528  10.381  66.573  1.00  0.00    -0.262 C  
BRANCH  14  15
HETATM   15  C   UNL     1      -9.844  10.020  65.254  1.00  0.00    -0.388 C  
BRANCH  15  16
HETATM   16  C   UNL     1      -8.725   9.006  65.445  1.00  0.00    -0.221 C  
BRANCH  16  17
HETATM   17  C   UNL     1      -7.402   9.579  64.939  1.00  0.00    -0.111 C  
BRANCH  17  18
HETATM   18  C   UNL     1      -6.481   9.952  66.095  1.00  0.00    -0.079 C  
HETATM   19  C   UNL     1      -5.714   8.740  66.598  1.00  0.00    -0.047 C  
ENDBRANCH  17  18
ENDBRANCH  16  17
ENDBRANCH  15  16
ENDBRANCH  14  15
ENDBRANCH  13  14
ENDBRANCH  12  13
ENDBRANCH   9  12
ENDBRANCH   8   9
ENDBRANCH   7   8
ENDBRANCH   6   7
ENDBRANCH   5   6
ENDBRANCH   4   5
ENDBRANCH   3   4
ENDBRANCH   2   3
TORSDOF 14
ENDMDL
MODEL      272
REMARK 921   NORMALIZED FREE ENERGY PREDICTED BY IDOCK:   -2.35 KCAL/MOL
REMARK 922        TOTAL FREE ENERGY PREDICTED BY IDOCK:   -6.01 KCAL/MOL
REMARK 923 INTER-LIGAND FREE ENERGY PREDICTED BY IDOCK:   -5.13 KCAL/MOL
REMARK 924 INTRA-LIGAND FREE ENERGY PREDICTED BY IDOCK:   -0.88 KCAL/MOL
REMARK 927      BINDING AFFINITY PREDICTED BY RF-SCORE:    0.00 PKD
ROOT
HETATM    1  C   UNL     1      -9.764   4.407  68.363  1.00  0.00    -0.172 C  
HETATM    2  C   UNL     1      -9.316   5.765  67.848  1.00  0.00    -0.107 C  
ENDROOT
BRANCH   2   3
HETATM    3  C   UNL     1     -10.327   6.339  66.862  1.00  0.00    -0.306 C  
BRANCH   3   4
HETATM    4  C   UNL     1     -10.851   7.695  67.332  1.00  0.00    -0.240 C  
BRANCH   4   5
HETATM    5  C   UNL     1     -10.012   8.816  66.738  1.00  0.00    -0.338 C  
BRANCH   5   6
HETATM    6  C   UNL     1     -10.576  10.198  67.068  1.00  0.00    -0.290 C  
BRANCH   6   7
HETATM    7  C   UNL     1     -10.158  11.174  65.972  1.00  0.00    -0.292 C  
BRANCH   7   8
HETATM    8  C   UNL     1     -10.522  12.617  66.307  1.00  0.00    -0.251 C  
BRANCH   8   9
HETATM    9  N   UNL     1     -11.177  13.369  65.113  1.00  0.00    -0.299 N  
HETATM   10  C   UNL     1     -11.007  12.563  63.826  1.00  0.00    -0.447 C  
HETATM   11  C   UNL     1     -12.664  13.598  65.388  1.00  0.00    -0.453 C  
BRANCH   9  12
HETATM   12  C   UNL     1     -10.438  14.731  64.997  1.00  0.00    -0.416 C  
BRANCH  12  13
HETATM   13  C   UNL     1      -9.594  15.053  66.227  1.00  0.00    -0.335 C  
BRANCH  13  14
HETATM   14  C   UNL     1      -9.130  16.507  66.252  1.00  0.00    -0.348 C  
BRANCH  14  15
HETATM   15  C   UNL     1      -8.642  16.844  67.660  1.00  0.00    -0.212 C  
BRANCH  15  16
HETATM   16  C   UNL     1      -8.532  15.608  68.542  1.00  0.00    -0.175 C  
BRANCH  16  17
HETATM   17  C   UNL     1      -7.258  15.670  69.381  1.00  0.00    -0.212 C  
BRANCH  17  18
HETATM   18  C   UNL     1      -6.564  14.313  69.436  1.00  0.00    -0.132 C  
HETATM   19  C   UNL     1      -6.960  13.447  68.252  1.00  0.00    -0.108 C  
ENDBRANCH  17  18
ENDBRANCH  16  17
ENDBRANCH  15  16
ENDBRANCH  14  15
ENDBRANCH  13  14
ENDBRANCH  12  13
ENDBRANCH   9  12
ENDBRANCH   8   9
ENDBRANCH   7   8
ENDBRANCH   6   7
ENDBRANCH   5   6
ENDBRANCH   4   5
ENDBRANCH   3   4
ENDBRANCH   2   3
TORSDOF 14
ENDMDL
MODEL      273
REMARK 921   NORMALIZED FREE ENERGY PREDICTED BY IDOCK:   -2.35 KCAL/MOL
REMARK 922        TOTAL FREE ENERGY PREDICTED BY IDOCK:   -6.00 KCAL/MOL
REMARK 923 INTER-LIGAND FREE ENERGY PREDICTED BY IDOCK:   -4.74 KCAL/MOL
REMARK 924 INTRA-LIGAND FREE ENERGY PREDICTED BY IDOCK:   -1.26 KCAL/MOL
REMARK 927      BINDING AFFINITY PREDICTED BY RF-SCORE:    0.00 PKD
ROOT
HETATM    1  C   UNL     1     -12.033  11.741  63.227  1.00  0.00    -0.354 C  
HETATM    2  C   UNL     1     -12.772  12.775  64.061  1.00  0.00    -0.297 C  
ENDROOT
BRANCH   2   3
HETATM    3  C   UNL     1     -11.941  14.042  64.227  1.00  0.00    -0.463 C  
BRANCH   3   4
HETATM    4  C   UNL     1     -11.242  14.072  65.586  1.00  0.00    -0.310 C  
BRANCH   4   5
HETATM    5  C   UNL     1     -12.271  14.188  66.702  1.00  0.00    -0.450 C  
BRANCH   5   6
HETATM    6  C   UNL     1     -11.835  13.452  67.968  1.00  0.00    -0.392 C  
BRANCH   6   7
HETATM    7  C   UNL     1     -11.043  12.211  67.568  1.00  0.00    -0.328 C  
BRANCH   7   8
HETATM    8  C   UNL     1      -9.974  11.846  68.594  1.00  0.00    -0.154 C  
BRANCH   8   9
HETATM    9  N   UNL     1      -8.533  12.168  68.106  1.00  0.00    -0.170 N  
HETATM   10  C   UNL     1      -7.524  11.258  68.806  1.00  0.00    -0.123 C  
HETATM   11  C   UNL     1      -8.436  11.979  66.591  1.00  0.00    -0.117 C  
BRANCH   9  12
HETATM   12  C   UNL     1      -8.268  13.654  68.478  1.00  0.00    -0.112 C  
BRANCH  12  13
HETATM   13  C   UNL     1      -8.095  14.548  67.255  1.00  0.00    -0.219 C  
BRANCH  13  14
HETATM   14  C   UNL     1      -8.048  16.031  67.618  1.00  0.00    -0.164 C  
BRANCH  14  15
HETATM   15  C   UNL     1      -6.705  16.332  68.282  1.00  0.00    -0.134 C  
BRANCH  15  16
HETATM   16  C   UNL     1      -5.769  17.105  67.364  1.00  0.00    -0.166 C  
BRANCH  16  17
HETATM   17  C   UNL     1      -5.268  18.368  68.063  1.00  0.00    -0.166 C  
BRANCH  17  18
HETATM   18  C   UNL     1      -5.898  18.524  69.443  1.00  0.00    -0.249 C  
HETATM   19  C   UNL     1      -6.677  19.825  69.546  1.00  0.00    -0.372 C  
ENDBRANCH  17  18
ENDBRANCH  16  17
ENDBRANCH  15  16
ENDBRANCH  14  15
ENDBRANCH  13  14
ENDBRANCH  12  13
ENDBRANCH   9  12
ENDBRANCH   8   9
ENDBRANCH   7   8
ENDBRANCH   6   7
ENDBRANCH   5   6
ENDBRANCH   4   5
ENDBRANCH   3   4
ENDBRANCH   2   3
TORSDOF 14
ENDMDL
MODEL      274
REMARK 921   NORMALIZED FREE ENERGY PREDICTED BY IDOCK:   -2.34 KCAL/MOL
REMARK 922        TOTAL FREE ENERGY PREDICTED BY IDOCK:   -6.00 KCAL/MOL
REMARK 923 INTER-LIGAND FREE ENERGY PREDICTED BY IDOCK:   -5.03 KCAL/MOL
REMARK 924 INTRA-LIGAND FREE ENERGY PREDICTED BY IDOCK:   -0.96 KCAL/MOL
REMARK 927      BINDING AFFINITY PREDICTED BY RF-SCORE:    0.00 PKD
ROOT
HETATM    1  C   UNL     1      -6.066  12.783  68.944  1.00  0.00    -0.079 C  
HETATM    2  C   UNL     1      -5.702  11.311  69.053  1.00  0.00    -0.040 C  
ENDROOT
BRANCH   2   3
HETATM    3  C   UNL     1      -5.929  10.792  70.468  1.00  0.00    -0.122 C  
BRANCH   3   4
HETATM    4  C   UNL     1      -6.573   9.406  70.453  1.00  0.00    -0.077 C  
BRANCH   4   5
HETATM    5  C   UNL     1      -6.131   8.609  71.672  1.00  0.00    -0.057 C  
BRANCH   5   6
HETATM    6  C   UNL     1      -7.314   8.001  72.425  1.00  0.00    -0.115 C  
BRANCH   6   7
HETATM    7  C   UNL     1      -8.596   8.688  71.964  1.00  0.00    -0.216 C  
BRANCH   7   8
HETATM    8  C   UNL     1      -9.842   7.861  72.266  1.00  0.00    -0.215 C  
BRANCH   8   9
HETATM    9  N   UNL     1     -10.521   7.302  70.983  1.00  0.00    -0.214 N  
HETATM   10  C   UNL     1     -10.116   8.135  69.766  1.00  0.00    -0.197 C  
HETATM   11  C   UNL     1     -10.121   5.842  70.768  1.00  0.00    -0.202 C  
BRANCH   9  12
HETATM   12  C   UNL     1     -12.054   7.407  71.221  1.00  0.00    -0.328 C  
BRANCH  12  13
HETATM   13  C   UNL     1     -12.412   8.359  72.358  1.00  0.00    -0.390 C  
BRANCH  13  14
HETATM   14  C   UNL     1     -13.594   9.262  72.013  1.00  0.00    -0.519 C  
BRANCH  14  15
HETATM   15  C   UNL     1     -13.213  10.136  70.818  1.00  0.00    -0.290 C  
BRANCH  15  16
HETATM   16  C   UNL     1     -12.435  11.376  71.237  1.00  0.00    -0.423 C  
BRANCH  16  17
HETATM   17  C   UNL     1     -13.341  12.329  72.014  1.00  0.00    -0.491 C  
BRANCH  17  18
HETATM   18  C   UNL     1     -13.035  13.784  71.675  1.00  0.00    -0.448 C  
HETATM   19  C   UNL     1     -13.058  14.654  72.921  1.00  0.00    -0.609 C  
ENDBRANCH  17  18
ENDBRANCH  16  17
ENDBRANCH  15  16
ENDBRANCH  14  15
ENDBRANCH  13  14
ENDBRANCH  12  13
ENDBRANCH   9  12
ENDBRANCH   8   9
ENDBRANCH   7   8
ENDBRANCH   6   7
ENDBRANCH   5   6
ENDBRANCH   4   5
ENDBRANCH   3   4
ENDBRANCH   2   3
TORSDOF 14
ENDMDL
MODEL      275
REMARK 921   NORMALIZED FREE ENERGY PREDICTED BY IDOCK:   -2.33 KCAL/MOL
REMARK 922        TOTAL FREE ENERGY PREDICTED BY IDOCK:   -5.98 KCAL/MOL
REMARK 923 INTER-LIGAND FREE ENERGY PREDICTED BY IDOCK:   -4.15 KCAL/MOL
REMARK 924 INTRA-LIGAND FREE ENERGY PREDICTED BY IDOCK:   -1.83 KCAL/MOL
REMARK 927      BINDING AFFINITY PREDICTED BY RF-SCORE:    0.00 PKD
ROOT
HETATM    1  C   UNL     1     -11.687  15.650  68.781  1.00  0.00    -0.382 C  
HETATM    2  C   UNL     1     -11.002  16.567  67.780  1.00  0.00    -0.252 C  
ENDROOT
BRANCH   2   3
HETATM    3  C   UNL     1      -9.643  17.024  68.295  1.00  0.00    -0.273 C  
BRANCH   3   4
HETATM    4  C   UNL     1      -8.505  16.364  67.515  1.00  0.00    -0.182 C  
BRANCH   4   5
HETATM    5  C   UNL     1      -7.281  16.209  68.405  1.00  0.00    -0.135 C  
BRANCH   5   6
HETATM    6  C   UNL     1      -6.213  15.318  67.770  1.00  0.00    -0.178 C  
BRANCH   6   7
HETATM    7  C   UNL     1      -6.192  13.979  68.500  1.00  0.00    -0.093 C  
BRANCH   7   8
HETATM    8  C   UNL     1      -5.411  12.913  67.738  1.00  0.00    -0.114 C  
BRANCH   8   9
HETATM    9  N   UNL     1      -5.918  11.471  68.026  1.00  0.00    -0.046 N  
HETATM   10  C   UNL     1      -5.748  10.594  66.785  1.00  0.00    -0.062 C  
HETATM   11  C   UNL     1      -5.144  10.865  69.198  1.00  0.00    -0.041 C  
BRANCH   9  12
HETATM   12  C   UNL     1      -7.423  11.602  68.390  1.00  0.00    -0.107 C  
BRANCH  12  13
HETATM   13  C   UNL     1      -8.299  10.584  67.666  1.00  0.00    -0.114 C  
BRANCH  13  14
HETATM   14  C   UNL     1      -9.536  11.220  67.037  1.00  0.00    -0.197 C  
BRANCH  14  15
HETATM   15  C   UNL     1      -9.352  12.737  67.015  1.00  0.00    -0.229 C  
BRANCH  15  16
HETATM   16  C   UNL     1     -10.317  13.420  66.056  1.00  0.00    -0.297 C  
BRANCH  16  17
HETATM   17  C   UNL     1     -11.734  12.891  66.268  1.00  0.00    -0.457 C  
BRANCH  17  18
HETATM   18  C   UNL     1     -12.638  13.240  65.091  1.00  0.00    -0.512 C  
HETATM   19  C   UNL     1     -12.199  14.535  64.428  1.00  0.00    -0.480 C  
ENDBRANCH  17  18
ENDBRANCH  16  17
ENDBRANCH  15  16
ENDBRANCH  14  15
ENDBRANCH  13  14
ENDBRANCH  12  13
ENDBRANCH   9  12
ENDBRANCH   8   9
ENDBRANCH   7   8
ENDBRANCH   6   7
ENDBRANCH   5   6
ENDBRANCH   4   5
ENDBRANCH   3   4
ENDBRANCH   2   3
TORSDOF 14
ENDMDL
MODEL      276
REMARK 921   NORMALIZED FREE ENERGY PREDICTED BY IDOCK:   -2.33 KCAL/MOL
REMARK 922        TOTAL FREE ENERGY PREDICTED BY IDOCK:   -5.97 KCAL/MOL
REMARK 923 INTER-LIGAND FREE ENERGY PREDICTED BY IDOCK:   -4.58 KCAL/MOL
REMARK 924 INTRA-LIGAND FREE ENERGY PREDICTED BY IDOCK:   -1.39 KCAL/MOL
REMARK 927      BINDING AFFINITY PREDICTED BY RF-SCORE:    0.00 PKD
ROOT
HETATM    1  C   UNL     1      -8.453   7.846  68.704  1.00  0.00    -0.128 C  
HETATM    2  C   UNL     1      -7.009   8.115  68.311  1.00  0.00    -0.076 C  
ENDROOT
BRANCH   2   3
HETATM    3  C   UNL     1      -6.339   9.066  69.296  1.00  0.00    -0.042 C  
BRANCH   3   4
HETATM    4  C   UNL     1      -6.875  10.489  69.144  1.00  0.00    -0.074 C  
BRANCH   4   5
HETATM    5  C   UNL     1      -6.921  10.877  67.673  1.00  0.00    -0.082 C  
BRANCH   5   6
HETATM    6  C   UNL     1      -8.106  11.789  67.353  1.00  0.00    -0.161 C  
BRANCH   6   7
HETATM    7  C   UNL     1      -7.665  13.241  67.512  1.00  0.00    -0.175 C  
BRANCH   7   8
HETATM    8  C   UNL     1      -8.501  13.994  68.543  1.00  0.00    -0.143 C  
BRANCH   8   9
HETATM    9  N   UNL     1      -8.891  15.425  68.076  1.00  0.00    -0.164 N  
HETATM   10  C   UNL     1      -7.928  16.454  68.668  1.00  0.00    -0.220 C  
HETATM   11  C   UNL     1      -8.862  15.507  66.549  1.00  0.00    -0.313 C  
BRANCH   9  12
HETATM   12  C   UNL     1     -10.334  15.676  68.598  1.00  0.00    -0.216 C  
BRANCH  12  13
HETATM   13  C   UNL     1     -11.038  14.393  69.030  1.00  0.00    -0.282 C  
BRANCH  13  14
HETATM   14  C   UNL     1     -12.099  13.944  68.027  1.00  0.00    -0.318 C  
BRANCH  14  15
HETATM   15  C   UNL     1     -11.842  12.483  67.662  1.00  0.00    -0.381 C  
BRANCH  15  16
HETATM   16  C   UNL     1     -11.282  12.331  66.254  1.00  0.00    -0.367 C  
BRANCH  16  17
HETATM   17  C   UNL     1     -11.829  13.433  65.348  1.00  0.00    -0.381 C  
BRANCH  17  18
HETATM   18  C   UNL     1     -11.894  12.974  63.895  1.00  0.00    -0.542 C  
HETATM   19  C   UNL     1     -10.772  11.999  63.578  1.00  0.00    -0.513 C  
ENDBRANCH  17  18
ENDBRANCH  16  17
ENDBRANCH  15  16
ENDBRANCH  14  15
ENDBRANCH  13  14
ENDBRANCH  12  13
ENDBRANCH   9  12
ENDBRANCH   8   9
ENDBRANCH   7   8
ENDBRANCH   6   7
ENDBRANCH   5   6
ENDBRANCH   4   5
ENDBRANCH   3   4
ENDBRANCH   2   3
TORSDOF 14
ENDMDL
MODEL      277
REMARK 921   NORMALIZED FREE ENERGY PREDICTED BY IDOCK:   -2.32 KCAL/MOL
REMARK 922        TOTAL FREE ENERGY PREDICTED BY IDOCK:   -5.96 KCAL/MOL
REMARK 923 INTER-LIGAND FREE ENERGY PREDICTED BY IDOCK:   -4.54 KCAL/MOL
REMARK 924 INTRA-LIGAND FREE ENERGY PREDICTED BY IDOCK:   -1.43 KCAL/MOL
REMARK 927      BINDING AFFINITY PREDICTED BY RF-SCORE:    0.00 PKD
ROOT
HETATM    1  C   UNL     1     -11.355  13.469  68.617  1.00  0.00    -0.323 C  
HETATM    2  C   UNL     1     -11.441  11.980  68.322  1.00  0.00    -0.361 C  
ENDROOT
BRANCH   2   3
HETATM    3  C   UNL     1     -10.433  11.196  69.154  1.00  0.00    -0.211 C  
BRANCH   3   4
HETATM    4  C   UNL     1     -10.912   9.766  69.400  1.00  0.00    -0.241 C  
BRANCH   4   5
HETATM    5  C   UNL     1     -11.025   9.501  70.895  1.00  0.00    -0.407 C  
BRANCH   5   6
HETATM    6  C   UNL     1     -11.706   8.166  71.195  1.00  0.00    -0.309 C  
BRANCH   6   7
HETATM    7  C   UNL     1     -11.433   7.791  72.648  1.00  0.00    -0.430 C  
BRANCH   7   8
HETATM    8  C   UNL     1      -9.951   7.871  73.001  1.00  0.00    -0.296 C  
BRANCH   8   9
HETATM    9  N   UNL     1      -9.368   6.509  73.477  1.00  0.00    -0.133 N  
HETATM   10  C   UNL     1      -8.096   6.736  74.295  1.00  0.00    -0.121 C  
HETATM   11  C   UNL     1     -10.401   5.762  74.323  1.00  0.00    -0.270 C  
BRANCH   9  12
HETATM   12  C   UNL     1      -9.044   5.700  72.190  1.00  0.00    -0.140 C  
BRANCH  12  13
HETATM   13  C   UNL     1      -7.581   5.816  71.772  1.00  0.00    -0.096 C  
BRANCH  13  14
HETATM   14  C   UNL     1      -7.396   6.692  70.535  1.00  0.00    -0.081 C  
BRANCH  14  15
HETATM   15  C   UNL     1      -8.721   6.759  69.777  1.00  0.00    -0.141 C  
BRANCH  15  16
HETATM   16  C   UNL     1      -8.745   5.828  68.573  1.00  0.00    -0.111 C  
BRANCH  16  17
HETATM   17  C   UNL     1     -10.167   5.704  68.030  1.00  0.00    -0.234 C  
BRANCH  17  18
HETATM   18  C   UNL     1     -10.605   6.982  67.324  1.00  0.00    -0.395 C  
HETATM   19  C   UNL     1      -9.473   7.564  66.493  1.00  0.00    -0.237 C  
ENDBRANCH  17  18
ENDBRANCH  16  17
ENDBRANCH  15  16
ENDBRANCH  14  15
ENDBRANCH  13  14
ENDBRANCH  12  13
ENDBRANCH   9  12
ENDBRANCH   8   9
ENDBRANCH   7   8
ENDBRANCH   6   7
ENDBRANCH   5   6
ENDBRANCH   4   5
ENDBRANCH   3   4
ENDBRANCH   2   3
TORSDOF 14
ENDMDL
MODEL      278
REMARK 921   NORMALIZED FREE ENERGY PREDICTED BY IDOCK:   -2.32 KCAL/MOL
REMARK 922        TOTAL FREE ENERGY PREDICTED BY IDOCK:   -5.96 KCAL/MOL
REMARK 923 INTER-LIGAND FREE ENERGY PREDICTED BY IDOCK:   -4.43 KCAL/MOL
REMARK 924 INTRA-LIGAND FREE ENERGY PREDICTED BY IDOCK:   -1.54 KCAL/MOL
REMARK 927      BINDING AFFINITY PREDICTED BY RF-SCORE:    0.00 PKD
ROOT
HETATM    1  C   UNL     1     -11.074  13.681  69.359  1.00  0.00    -0.193 C  
HETATM    2  C   UNL     1     -12.040  12.553  69.032  1.00  0.00    -0.181 C  
ENDROOT
BRANCH   2   3
HETATM    3  C   UNL     1     -11.513  11.215  69.537  1.00  0.00    -0.374 C  
BRANCH   3   4
HETATM    4  C   UNL     1     -11.456  10.182  68.412  1.00  0.00    -0.086 C  
BRANCH   4   5
HETATM    5  C   UNL     1     -10.360   9.164  68.691  1.00  0.00    -0.233 C  
BRANCH   5   6
HETATM    6  C   UNL     1     -10.302   8.070  67.624  1.00  0.00    -0.312 C  
BRANCH   6   7
HETATM    7  C   UNL     1     -11.146   6.886  68.088  1.00  0.00    -0.165 C  
BRANCH   7   8
HETATM    8  C   UNL     1     -10.898   6.533  69.552  1.00  0.00    -0.304 C  
BRANCH   8   9
HETATM    9  N   UNL     1      -9.785   5.461  69.735  1.00  0.00    -0.169 N  
HETATM   10  C   UNL     1     -10.223   4.417  70.761  1.00  0.00    -0.036 C  
HETATM   11  C   UNL     1      -9.485   4.781  68.398  1.00  0.00    -0.144 C  
BRANCH   9  12
HETATM   12  C   UNL     1      -8.528   6.222  70.243  1.00  0.00    -0.134 C  
BRANCH  12  13
HETATM   13  C   UNL     1      -8.457   6.298  71.765  1.00  0.00    -0.129 C  
BRANCH  13  14
HETATM   14  C   UNL     1      -8.689   7.713  72.290  1.00  0.00    -0.160 C  
BRANCH  14  15
HETATM   15  C   UNL     1     -10.082   7.784  72.914  1.00  0.00    -0.363 C  
BRANCH  15  16
HETATM   16  C   UNL     1     -10.964   8.822  72.234  1.00  0.00    -0.336 C  
BRANCH  16  17
HETATM   17  C   UNL     1     -12.425   8.614  72.632  1.00  0.00    -0.283 C  
BRANCH  17  18
HETATM   18  C   UNL     1     -13.358   8.832  71.446  1.00  0.00    -0.289 C  
HETATM   19  C   UNL     1     -14.371   7.705  71.331  1.00  0.00    -0.537 C  
ENDBRANCH  17  18
ENDBRANCH  16  17
ENDBRANCH  15  16
ENDBRANCH  14  15
ENDBRANCH  13  14
ENDBRANCH  12  13
ENDBRANCH   9  12
ENDBRANCH   8   9
ENDBRANCH   7   8
ENDBRANCH   6   7
ENDBRANCH   5   6
ENDBRANCH   4   5
ENDBRANCH   3   4
ENDBRANCH   2   3
TORSDOF 14
ENDMDL
MODEL      279
REMARK 921   NORMALIZED FREE ENERGY PREDICTED BY IDOCK:   -2.32 KCAL/MOL
REMARK 922        TOTAL FREE ENERGY PREDICTED BY IDOCK:   -5.96 KCAL/MOL
REMARK 923 INTER-LIGAND FREE ENERGY PREDICTED BY IDOCK:   -5.16 KCAL/MOL
REMARK 924 INTRA-LIGAND FREE ENERGY PREDICTED BY IDOCK:   -0.80 KCAL/MOL
REMARK 927      BINDING AFFINITY PREDICTED BY RF-SCORE:    0.00 PKD
ROOT
HETATM    1  C   UNL     1     -10.248  19.980  66.962  1.00  0.00    -0.587 C  
HETATM    2  C   UNL     1      -9.431  18.698  66.942  1.00  0.00    -0.310 C  
ENDROOT
BRANCH   2   3
HETATM    3  C   UNL     1      -7.944  18.991  67.092  1.00  0.00    -0.271 C  
BRANCH   3   4
HETATM    4  C   UNL     1      -7.372  18.327  68.344  1.00  0.00    -0.285 C  
BRANCH   4   5
HETATM    5  C   UNL     1      -7.061  16.864  68.065  1.00  0.00    -0.163 C  
BRANCH   5   6
HETATM    6  C   UNL     1      -7.225  15.991  69.309  1.00  0.00    -0.226 C  
BRANCH   6   7
HETATM    7  C   UNL     1      -8.510  15.179  69.174  1.00  0.00    -0.220 C  
BRANCH   7   8
HETATM    8  C   UNL     1      -9.738  15.946  69.655  1.00  0.00    -0.210 C  
BRANCH   8   9
HETATM    9  N   UNL     1     -11.013  15.059  69.732  1.00  0.00    -0.266 N  
HETATM   10  C   UNL     1     -11.431  14.862  71.189  1.00  0.00    -0.264 C  
HETATM   11  C   UNL     1     -12.155  15.710  68.949  1.00  0.00    -0.161 C  
BRANCH   9  12
HETATM   12  C   UNL     1     -10.634  13.694  69.091  1.00  0.00    -0.052 C  
BRANCH  12  13
HETATM   13  C   UNL     1     -11.818  12.737  68.996  1.00  0.00    -0.344 C  
BRANCH  13  14
HETATM   14  C   UNL     1     -11.569  11.598  68.010  1.00  0.00    -0.383 C  
BRANCH  14  15
HETATM   15  C   UNL     1     -10.867  12.161  66.775  1.00  0.00    -0.289 C  
BRANCH  15  16
HETATM   16  C   UNL     1     -10.643  11.100  65.706  1.00  0.00    -0.289 C  
BRANCH  16  17
HETATM   17  C   UNL     1      -9.148  10.915  65.451  1.00  0.00    -0.218 C  
BRANCH  17  18
HETATM   18  C   UNL     1      -8.898  10.096  64.190  1.00  0.00    -0.243 C  
HETATM   19  C   UNL     1      -9.630  10.688  62.997  1.00  0.00    -0.379 C  
ENDBRANCH  17  18
ENDBRANCH  16  17
ENDBRANCH  15  16
ENDBRANCH  14  15
ENDBRANCH  13  14
ENDBRANCH  12  13
ENDBRANCH   9  12
ENDBRANCH   8   9
ENDBRANCH   7   8
ENDBRANCH   6   7
ENDBRANCH   5   6
ENDBRANCH   4   5
ENDBRANCH   3   4
ENDBRANCH   2   3
TORSDOF 14
ENDMDL
MODEL      280
REMARK 921   NORMALIZED FREE ENERGY PREDICTED BY IDOCK:   -2.32 KCAL/MOL
REMARK 922        TOTAL FREE ENERGY PREDICTED BY IDOCK:   -5.95 KCAL/MOL
REMARK 923 INTER-LIGAND FREE ENERGY PREDICTED BY IDOCK:   -4.91 KCAL/MOL
REMARK 924 INTRA-LIGAND FREE ENERGY PREDICTED BY IDOCK:   -1.05 KCAL/MOL
REMARK 927      BINDING AFFINITY PREDICTED BY RF-SCORE:    0.00 PKD
ROOT
HETATM    1  C   UNL     1     -10.623  11.253  65.939  1.00  0.00    -0.309 C  
HETATM    2  C   UNL     1     -11.295  12.162  64.922  1.00  0.00    -0.378 C  
ENDROOT
BRANCH   2   3
HETATM    3  C   UNL     1     -10.473  13.423  64.685  1.00  0.00    -0.428 C  
BRANCH   3   4
HETATM    4  C   UNL     1     -11.239  14.674  65.114  1.00  0.00    -0.374 C  
BRANCH   4   5
HETATM    5  C   UNL     1     -10.819  15.091  66.516  1.00  0.00    -0.320 C  
BRANCH   5   6
HETATM    6  C   UNL     1      -9.395  15.644  66.553  1.00  0.00    -0.305 C  
BRANCH   6   7
HETATM    7  C   UNL     1      -9.416  17.088  66.062  1.00  0.00    -0.195 C  
BRANCH   7   8
HETATM    8  C   UNL     1      -8.129  17.837  66.396  1.00  0.00    -0.261 C  
BRANCH   8   9
HETATM    9  N   UNL     1      -8.384  19.157  67.178  1.00  0.00    -0.274 N  
HETATM   10  C   UNL     1      -7.476  20.267  66.648  1.00  0.00    -0.276 C  
HETATM   11  C   UNL     1      -9.848  19.576  67.040  1.00  0.00    -0.360 C  
BRANCH   9  12
HETATM   12  C   UNL     1      -8.051  18.854  68.666  1.00  0.00    -0.347 C  
BRANCH  12  13
HETATM   13  C   UNL     1      -6.579  19.074  68.999  1.00  0.00    -0.317 C  
BRANCH  13  14
HETATM   14  C   UNL     1      -5.765  17.785  68.926  1.00  0.00    -0.180 C  
BRANCH  14  15
HETATM   15  C   UNL     1      -6.570  16.658  69.572  1.00  0.00    -0.212 C  
BRANCH  15  16
HETATM   16  C   UNL     1      -6.565  15.390  68.729  1.00  0.00    -0.106 C  
BRANCH  16  17
HETATM   17  C   UNL     1      -6.423  14.161  69.625  1.00  0.00    -0.134 C  
BRANCH  17  18
HETATM   18  C   UNL     1      -5.582  13.081  68.955  1.00  0.00    -0.070 C  
HETATM   19  C   UNL     1      -6.416  11.847  68.650  1.00  0.00    -0.062 C  
ENDBRANCH  17  18
ENDBRANCH  16  17
ENDBRANCH  15  16
ENDBRANCH  14  15
ENDBRANCH  13  14
ENDBRANCH  12  13
ENDBRANCH   9  12
ENDBRANCH   8   9
ENDBRANCH   7   8
ENDBRANCH   6   7
ENDBRANCH   5   6
ENDBRANCH   4   5
ENDBRANCH   3   4
ENDBRANCH   2   3
TORSDOF 14
ENDMDL
MODEL      281
REMARK 921   NORMALIZED FREE ENERGY PREDICTED BY IDOCK:   -2.32 KCAL/MOL
REMARK 922        TOTAL FREE ENERGY PREDICTED BY IDOCK:   -5.95 KCAL/MOL
REMARK 923 INTER-LIGAND FREE ENERGY PREDICTED BY IDOCK:   -4.37 KCAL/MOL
REMARK 924 INTRA-LIGAND FREE ENERGY PREDICTED BY IDOCK:   -1.58 KCAL/MOL
REMARK 927      BINDING AFFINITY PREDICTED BY RF-SCORE:    0.00 PKD
ROOT
HETATM    1  C   UNL     1     -11.836  12.602  68.210  1.00  0.00    -0.354 C  
HETATM    2  C   UNL     1     -11.487  11.178  68.612  1.00  0.00    -0.363 C  
ENDROOT
BRANCH   2   3
HETATM    3  C   UNL     1      -9.989  11.027  68.848  1.00  0.00    -0.201 C  
BRANCH   3   4
HETATM    4  C   UNL     1      -9.692   9.863  69.793  1.00  0.00    -0.266 C  
BRANCH   4   5
HETATM    5  C   UNL     1      -8.190   9.714  69.986  1.00  0.00    -0.197 C  
BRANCH   5   6
HETATM    6  C   UNL     1      -7.846   8.824  71.180  1.00  0.00    -0.161 C  
BRANCH   6   7
HETATM    7  C   UNL     1      -6.773   7.825  70.755  1.00  0.00    -0.038 C  
BRANCH   7   8
HETATM    8  C   UNL     1      -7.114   7.128  69.442  1.00  0.00    -0.075 C  
BRANCH   8   9
HETATM    9  N   UNL     1      -7.172   5.579  69.578  1.00  0.00    -0.064 N  
HETATM   10  C   UNL     1      -6.951   4.922  68.215  1.00  0.00    -0.057 C  
HETATM   11  C   UNL     1      -6.108   5.097  70.564  1.00  0.00    -0.018 C  
BRANCH   9  12
HETATM   12  C   UNL     1      -8.592   5.241  70.114  1.00  0.00    -0.117 C  
BRANCH  12  13
HETATM   13  C   UNL     1      -9.522   4.706  69.030  1.00  0.00    -0.221 C  
BRANCH  13  14
HETATM   14  C   UNL     1     -10.658   5.673  68.706  1.00  0.00    -0.286 C  
BRANCH  14  15
HETATM   15  C   UNL     1     -10.725   6.738  69.800  1.00  0.00    -0.288 C  
BRANCH  15  16
HETATM   16  C   UNL     1     -12.020   6.662  70.598  1.00  0.00    -0.404 C  
BRANCH  16  17
HETATM   17  C   UNL     1     -11.718   6.690  72.096  1.00  0.00    -0.342 C  
BRANCH  17  18
HETATM   18  C   UNL     1     -11.373   8.098  72.566  1.00  0.00    -0.469 C  
HETATM   19  C   UNL     1     -12.466   9.085  72.192  1.00  0.00    -0.450 C  
ENDBRANCH  17  18
ENDBRANCH  16  17
ENDBRANCH  15  16
ENDBRANCH  14  15
ENDBRANCH  13  14
ENDBRANCH  12  13
ENDBRANCH   9  12
ENDBRANCH   8   9
ENDBRANCH   7   8
ENDBRANCH   6   7
ENDBRANCH   5   6
ENDBRANCH   4   5
ENDBRANCH   3   4
ENDBRANCH   2   3
TORSDOF 14
ENDMDL
MODEL      282
REMARK 921   NORMALIZED FREE ENERGY PREDICTED BY IDOCK:   -2.32 KCAL/MOL
REMARK 922        TOTAL FREE ENERGY PREDICTED BY IDOCK:   -5.95 KCAL/MOL
REMARK 923 INTER-LIGAND FREE ENERGY PREDICTED BY IDOCK:   -5.23 KCAL/MOL
REMARK 924 INTRA-LIGAND FREE ENERGY PREDICTED BY IDOCK:   -0.72 KCAL/MOL
REMARK 927      BINDING AFFINITY PREDICTED BY RF-SCORE:    0.00 PKD
ROOT
HETATM    1  C   UNL     1      -9.301  11.001  62.894  1.00  0.00    -0.380 C  
HETATM    2  C   UNL     1     -10.746  10.996  63.367  1.00  0.00    -0.175 C  
ENDROOT
BRANCH   2   3
HETATM    3  C   UNL     1     -11.227  12.408  63.678  1.00  0.00    -0.544 C  
BRANCH   3   4
HETATM    4  C   UNL     1     -12.732  12.436  63.943  1.00  0.00    -0.457 C  
BRANCH   4   5
HETATM    5  C   UNL     1     -13.059  13.476  65.004  1.00  0.00    -0.062 C  
BRANCH   5   6
HETATM    6  C   UNL     1     -11.808  14.187  65.521  1.00  0.00    -0.364 C  
BRANCH   6   7
HETATM    7  C   UNL     1     -11.765  14.063  67.041  1.00  0.00    -0.425 C  
BRANCH   7   8
HETATM    8  C   UNL     1     -12.265  12.707  67.529  1.00  0.00     0.116 C  
BRANCH   8   9
HETATM    9  N   UNL     1     -11.109  11.736  67.907  1.00  0.00    -0.228 N  
HETATM   10  C   UNL     1     -11.225  10.441  67.103  1.00  0.00    -0.007 C  
HETATM   11  C   UNL     1      -9.758  12.397  67.633  1.00  0.00    -0.195 C  
BRANCH   9  12
HETATM   12  C   UNL     1     -11.265  11.444  69.425  1.00  0.00    -0.268 C  
BRANCH  12  13
HETATM   13  C   UNL     1     -12.594  11.935  69.990  1.00  0.00     0.026 C  
BRANCH  13  14
HETATM   14  C   UNL     1     -12.627  11.904  71.516  1.00  0.00    -0.298 C  
BRANCH  14  15
HETATM   15  C   UNL     1     -13.490  13.064  72.013  1.00  0.00    -0.584 C  
BRANCH  15  16
HETATM   16  C   UNL     1     -13.352  14.300  71.135  1.00  0.00    -0.363 C  
BRANCH  16  17
HETATM   17  C   UNL     1     -11.891  14.742  71.071  1.00  0.00    -0.383 C  
BRANCH  17  18
HETATM   18  C   UNL     1     -11.652  15.698  69.908  1.00  0.00    -0.354 C  
HETATM   19  C   UNL     1     -10.169  15.825  69.599  1.00  0.00    -0.289 C  
ENDBRANCH  17  18
ENDBRANCH  16  17
ENDBRANCH  15  16
ENDBRANCH  14  15
ENDBRANCH  13  14
ENDBRANCH  12  13
ENDBRANCH   9  12
ENDBRANCH   8   9
ENDBRANCH   7   8
ENDBRANCH   6   7
ENDBRANCH   5   6
ENDBRANCH   4   5
ENDBRANCH   3   4
ENDBRANCH   2   3
TORSDOF 14
ENDMDL
MODEL      283
REMARK 921   NORMALIZED FREE ENERGY PREDICTED BY IDOCK:   -2.32 KCAL/MOL
REMARK 922        TOTAL FREE ENERGY PREDICTED BY IDOCK:   -5.95 KCAL/MOL
REMARK 923 INTER-LIGAND FREE ENERGY PREDICTED BY IDOCK:   -4.82 KCAL/MOL
REMARK 924 INTRA-LIGAND FREE ENERGY PREDICTED BY IDOCK:   -1.13 KCAL/MOL
REMARK 927      BINDING AFFINITY PREDICTED BY RF-SCORE:    0.00 PKD
ROOT
HETATM    1  C   UNL     1      -7.107  10.459  62.694  1.00  0.00    -0.136 C  
HETATM    2  C   UNL     1      -7.588   9.664  63.898  1.00  0.00    -0.127 C  
ENDROOT
BRANCH   2   3
HETATM    3  C   UNL     1      -8.983  10.106  64.326  1.00  0.00    -0.267 C  
BRANCH   3   4
HETATM    4  C   UNL     1      -9.670  10.915  63.227  1.00  0.00    -0.398 C  
BRANCH   4   5
HETATM    5  C   UNL     1     -10.858  11.674  63.799  1.00  0.00    -0.493 C  
BRANCH   5   6
HETATM    6  C   UNL     1     -10.477  12.503  65.026  1.00  0.00    -0.323 C  
BRANCH   6   7
HETATM    7  C   UNL     1     -11.681  12.578  65.961  1.00  0.00    -0.472 C  
BRANCH   7   8
HETATM    8  C   UNL     1     -11.624  11.529  67.068  1.00  0.00    -0.122 C  
BRANCH   8   9
HETATM    9  N   UNL     1     -11.064  12.091  68.405  1.00  0.00    -0.226 N  
HETATM   10  C   UNL     1     -11.160  13.616  68.417  1.00  0.00    -0.264 C  
HETATM   11  C   UNL     1     -11.846  11.513  69.587  1.00  0.00    -0.354 C  
BRANCH   9  12
HETATM   12  C   UNL     1      -9.577  11.644  68.478  1.00  0.00    -0.178 C  
BRANCH  12  13
HETATM   13  C   UNL     1      -9.417  10.129  68.544  1.00  0.00    -0.159 C  
BRANCH  13  14
HETATM   14  C   UNL     1      -8.252   9.704  69.435  1.00  0.00    -0.132 C  
BRANCH  14  15
HETATM   15  C   UNL     1      -8.810   9.009  70.677  1.00  0.00    -0.259 C  
BRANCH  15  16
HETATM   16  C   UNL     1      -9.074   7.529  70.438  1.00  0.00    -0.153 C  
BRANCH  16  17
HETATM   17  C   UNL     1     -10.304   7.079  71.225  1.00  0.00    -0.217 C  
BRANCH  17  18
HETATM   18  C   UNL     1     -11.335   8.197  71.329  1.00  0.00    -0.300 C  
HETATM   19  C   UNL     1     -11.762   8.417  72.771  1.00  0.00    -0.245 C  
ENDBRANCH  17  18
ENDBRANCH  16  17
ENDBRANCH  15  16
ENDBRANCH  14  15
ENDBRANCH  13  14
ENDBRANCH  12  13
ENDBRANCH   9  12
ENDBRANCH   8   9
ENDBRANCH   7   8
ENDBRANCH   6   7
ENDBRANCH   5   6
ENDBRANCH   4   5
ENDBRANCH   3   4
ENDBRANCH   2   3
TORSDOF 14
ENDMDL
MODEL      284
REMARK 921   NORMALIZED FREE ENERGY PREDICTED BY IDOCK:   -2.31 KCAL/MOL
REMARK 922        TOTAL FREE ENERGY PREDICTED BY IDOCK:   -5.93 KCAL/MOL
REMARK 923 INTER-LIGAND FREE ENERGY PREDICTED BY IDOCK:   -5.18 KCAL/MOL
REMARK 924 INTRA-LIGAND FREE ENERGY PREDICTED BY IDOCK:   -0.75 KCAL/MOL
REMARK 927      BINDING AFFINITY PREDICTED BY RF-SCORE:    0.00 PKD
ROOT
HETATM    1  C   UNL     1     -13.036  15.569  71.212  1.00  0.00    -0.581 C  
HETATM    2  C   UNL     1     -14.196  15.276  72.150  1.00  0.00    -0.667 C  
ENDROOT
BRANCH   2   3
HETATM    3  C   UNL     1     -14.257  13.795  72.504  1.00  0.00    -0.384 C  
BRANCH   3   4
HETATM    4  C   UNL     1     -13.169  13.007  71.776  1.00  0.00    -0.486 C  
BRANCH   4   5
HETATM    5  C   UNL     1     -13.526  11.528  71.742  1.00  0.00    -0.203 C  
BRANCH   5   6
HETATM    6  C   UNL     1     -12.416  10.679  71.123  1.00  0.00    -0.523 C  
BRANCH   6   7
HETATM    7  C   UNL     1     -12.636   9.221  71.515  1.00  0.00    -0.430 C  
BRANCH   7   8
HETATM    8  C   UNL     1     -11.450   8.638  72.278  1.00  0.00    -0.353 C  
BRANCH   8   9
HETATM    9  N   UNL     1     -11.102   7.187  71.838  1.00  0.00    -0.232 N  
HETATM   10  C   UNL     1     -10.771   6.330  73.060  1.00  0.00    -0.253 C  
HETATM   11  C   UNL     1     -12.278   6.572  71.077  1.00  0.00    -0.177 C  
BRANCH   9  12
HETATM   12  C   UNL     1      -9.862   7.299  70.907  1.00  0.00    -0.184 C  
BRANCH  12  13
HETATM   13  C   UNL     1      -8.761   6.307  71.267  1.00  0.00    -0.135 C  
BRANCH  13  14
HETATM   14  C   UNL     1      -8.744   5.092  70.343  1.00  0.00    -0.130 C  
BRANCH  14  15
HETATM   15  C   UNL     1      -7.615   4.159  70.779  1.00  0.00    -0.048 C  
BRANCH  15  16
HETATM   16  C   UNL     1      -8.036   2.696  70.756  1.00  0.00    -0.061 C  
BRANCH  16  17
HETATM   17  C   UNL     1      -9.055   2.424  71.861  1.00  0.00    -0.141 C  
BRANCH  17  18
HETATM   18  C   UNL     1      -8.517   2.838  73.226  1.00  0.00    -0.078 C  
HETATM   19  C   UNL     1      -9.620   2.848  74.271  1.00  0.00    -0.119 C  
ENDBRANCH  17  18
ENDBRANCH  16  17
ENDBRANCH  15  16
ENDBRANCH  14  15
ENDBRANCH  13  14
ENDBRANCH  12  13
ENDBRANCH   9  12
ENDBRANCH   8   9
ENDBRANCH   7   8
ENDBRANCH   6   7
ENDBRANCH   5   6
ENDBRANCH   4   5
ENDBRANCH   3   4
ENDBRANCH   2   3
TORSDOF 14
ENDMDL
MODEL      285
REMARK 921   NORMALIZED FREE ENERGY PREDICTED BY IDOCK:   -2.31 KCAL/MOL
REMARK 922        TOTAL FREE ENERGY PREDICTED BY IDOCK:   -5.93 KCAL/MOL
REMARK 923 INTER-LIGAND FREE ENERGY PREDICTED BY IDOCK:   -3.80 KCAL/MOL
REMARK 924 INTRA-LIGAND FREE ENERGY PREDICTED BY IDOCK:   -2.13 KCAL/MOL
REMARK 927      BINDING AFFINITY PREDICTED BY RF-SCORE:    0.00 PKD
ROOT
HETATM    1  C   UNL     1      -6.879   2.559  74.151  1.00  0.00    -0.031 C  
HETATM    2  C   UNL     1      -6.939   4.078  74.181  1.00  0.00    -0.060 C  
ENDROOT
BRANCH   2   3
HETATM    3  C   UNL     1      -6.598   4.669  72.819  1.00  0.00    -0.050 C  
BRANCH   3   4
HETATM    4  C   UNL     1      -7.193   6.068  72.657  1.00  0.00    -0.086 C  
BRANCH   4   5
HETATM    5  C   UNL     1      -7.535   6.326  71.197  1.00  0.00    -0.085 C  
BRANCH   5   6
HETATM    6  C   UNL     1      -6.772   7.522  70.627  1.00  0.00    -0.043 C  
BRANCH   6   7
HETATM    7  C   UNL     1      -7.676   8.257  69.642  1.00  0.00    -0.100 C  
BRANCH   7   8
HETATM    8  C   UNL     1      -8.504   9.349  70.315  1.00  0.00    -0.212 C  
BRANCH   8   9
HETATM    9  N   UNL     1      -9.992   9.342  69.864  1.00  0.00    -0.193 N  
HETATM   10  C   UNL     1     -10.280  10.553  68.977  1.00  0.00    -0.216 C  
HETATM   11  C   UNL     1     -10.305   8.054  69.100  1.00  0.00    -0.220 C  
BRANCH   9  12
HETATM   12  C   UNL     1     -10.842   9.413  71.164  1.00  0.00    -0.357 C  
BRANCH  12  13
HETATM   13  C   UNL     1     -10.346   8.460  72.247  1.00  0.00    -0.403 C  
BRANCH  13  14
HETATM   14  C   UNL     1     -11.424   7.478  72.698  1.00  0.00    -0.369 C  
BRANCH  14  15
HETATM   15  C   UNL     1     -11.063   6.083  72.189  1.00  0.00    -0.328 C  
BRANCH  15  16
HETATM   16  C   UNL     1     -11.393   4.996  73.203  1.00  0.00    -0.397 C  
BRANCH  16  17
HETATM   17  C   UNL     1     -10.337   3.894  73.157  1.00  0.00    -0.241 C  
BRANCH  17  18
HETATM   18  C   UNL     1      -9.941   3.565  71.722  1.00  0.00    -0.202 C  
HETATM   19  C   UNL     1      -9.911   2.063  71.493  1.00  0.00    -0.205 C  
ENDBRANCH  17  18
ENDBRANCH  16  17
ENDBRANCH  15  16
ENDBRANCH  14  15
ENDBRANCH  13  14
ENDBRANCH  12  13
ENDBRANCH   9  12
ENDBRANCH   8   9
ENDBRANCH   7   8
ENDBRANCH   6   7
ENDBRANCH   5   6
ENDBRANCH   4   5
ENDBRANCH   3   4
ENDBRANCH   2   3
TORSDOF 14
ENDMDL
MODEL      286
REMARK 921   NORMALIZED FREE ENERGY PREDICTED BY IDOCK:   -2.31 KCAL/MOL
REMARK 922        TOTAL FREE ENERGY PREDICTED BY IDOCK:   -5.93 KCAL/MOL
REMARK 923 INTER-LIGAND FREE ENERGY PREDICTED BY IDOCK:   -4.65 KCAL/MOL
REMARK 924 INTRA-LIGAND FREE ENERGY PREDICTED BY IDOCK:   -1.28 KCAL/MOL
REMARK 927      BINDING AFFINITY PREDICTED BY RF-SCORE:    0.00 PKD
ROOT
HETATM    1  C   UNL     1     -12.284  13.477  63.479  1.00  0.00    -0.410 C  
HETATM    2  C   UNL     1     -11.965  11.996  63.349  1.00  0.00    -0.571 C  
ENDROOT
BRANCH   2   3
HETATM    3  C   UNL     1     -10.483  11.730  63.588  1.00  0.00    -0.490 C  
BRANCH   3   4
HETATM    4  C   UNL     1     -10.278  10.596  64.591  1.00  0.00    -0.404 C  
BRANCH   4   5
HETATM    5  C   UNL     1     -10.690  11.048  65.985  1.00  0.00    -0.242 C  
BRANCH   5   6
HETATM    6  C   UNL     1      -9.713  12.064  66.576  1.00  0.00    -0.230 C  
BRANCH   6   7
HETATM    7  C   UNL     1      -9.420  11.680  68.023  1.00  0.00    -0.185 C  
BRANCH   7   8
HETATM    8  C   UNL     1      -8.569  10.418  68.130  1.00  0.00    -0.125 C  
BRANCH   8   9
HETATM    9  N   UNL     1      -9.264   9.287  68.940  1.00  0.00    -0.141 N  
HETATM   10  C   UNL     1      -8.428   8.927  70.168  1.00  0.00    -0.146 C  
HETATM   11  C   UNL     1     -10.660   9.734  69.376  1.00  0.00    -0.228 C  
BRANCH   9  12
HETATM   12  C   UNL     1      -9.367   8.066  67.983  1.00  0.00    -0.138 C  
BRANCH  12  13
HETATM   13  C   UNL     1     -10.786   7.833  67.472  1.00  0.00    -0.265 C  
BRANCH  13  14
HETATM   14  C   UNL     1     -11.142   6.350  67.394  1.00  0.00    -0.412 C  
BRANCH  14  15
HETATM   15  C   UNL     1     -10.088   5.551  68.160  1.00  0.00    -0.221 C  
BRANCH  15  16
HETATM   16  C   UNL     1      -9.529   4.399  67.336  1.00  0.00    -0.201 C  
BRANCH  16  17
HETATM   17  C   UNL     1      -8.630   4.934  66.223  1.00  0.00    -0.115 C  
BRANCH  17  18
HETATM   18  C   UNL     1      -7.286   5.399  66.772  1.00  0.00    -0.078 C  
HETATM   19  C   UNL     1      -6.571   4.272  67.499  1.00  0.00    -0.046 C  
ENDBRANCH  17  18
ENDBRANCH  16  17
ENDBRANCH  15  16
ENDBRANCH  14  15
ENDBRANCH  13  14
ENDBRANCH  12  13
ENDBRANCH   9  12
ENDBRANCH   8   9
ENDBRANCH   7   8
ENDBRANCH   6   7
ENDBRANCH   5   6
ENDBRANCH   4   5
ENDBRANCH   3   4
ENDBRANCH   2   3
TORSDOF 14
ENDMDL
MODEL      287
REMARK 921   NORMALIZED FREE ENERGY PREDICTED BY IDOCK:   -2.30 KCAL/MOL
REMARK 922        TOTAL FREE ENERGY PREDICTED BY IDOCK:   -5.92 KCAL/MOL
REMARK 923 INTER-LIGAND FREE ENERGY PREDICTED BY IDOCK:   -5.35 KCAL/MOL
REMARK 924 INTRA-LIGAND FREE ENERGY PREDICTED BY IDOCK:   -0.58 KCAL/MOL
REMARK 927      BINDING AFFINITY PREDICTED BY RF-SCORE:    0.00 PKD
ROOT
HETATM    1  C   UNL     1     -13.025  15.464  70.813  1.00  0.00    -0.510 C  
HETATM    2  C   UNL     1     -14.204  15.134  71.715  1.00  0.00    -0.674 C  
ENDROOT
BRANCH   2   3
HETATM    3  C   UNL     1     -14.152  13.683  72.178  1.00  0.00    -0.553 C  
BRANCH   3   4
HETATM    4  C   UNL     1     -12.988  12.935  71.528  1.00  0.00    -0.388 C  
BRANCH   4   5
HETATM    5  C   UNL     1     -12.917  11.512  72.060  1.00  0.00    -0.373 C  
BRANCH   5   6
HETATM    6  C   UNL     1     -11.915  10.655  71.287  1.00  0.00    -0.344 C  
BRANCH   6   7
HETATM    7  C   UNL     1     -12.153   9.188  71.633  1.00  0.00    -0.432 C  
BRANCH   7   8
HETATM    8  C   UNL     1     -10.859   8.452  71.969  1.00  0.00    -0.320 C  
BRANCH   8   9
HETATM    9  N   UNL     1     -10.956   6.918  71.727  1.00  0.00    -0.226 N  
HETATM   10  C   UNL     1     -10.801   6.165  73.049  1.00  0.00    -0.257 C  
HETATM   11  C   UNL     1     -12.302   6.570  71.089  1.00  0.00    -0.135 C  
BRANCH   9  12
HETATM   12  C   UNL     1      -9.794   6.554  70.761  1.00  0.00    -0.184 C  
BRANCH  12  13
HETATM   13  C   UNL     1      -9.826   5.094  70.322  1.00  0.00    -0.295 C  
BRANCH  13  14
HETATM   14  C   UNL     1      -8.523   4.657  69.656  1.00  0.00    -0.088 C  
BRANCH  14  15
HETATM   15  C   UNL     1      -8.756   3.324  68.946  1.00  0.00    -0.143 C  
BRANCH  15  16
HETATM   16  C   UNL     1      -7.746   3.079  67.834  1.00  0.00    -0.056 C  
BRANCH  16  17
HETATM   17  C   UNL     1      -8.085   3.935  66.615  1.00  0.00    -0.097 C  
BRANCH  17  18
HETATM   18  C   UNL     1      -9.455   3.576  66.050  1.00  0.00    -0.145 C  
HETATM   19  C   UNL     1      -9.890   4.578  64.993  1.00  0.00    -0.125 C  
ENDBRANCH  17  18
ENDBRANCH  16  17
ENDBRANCH  15  16
ENDBRANCH  14  15
ENDBRANCH  13  14
ENDBRANCH  12  13
ENDBRANCH   9  12
ENDBRANCH   8   9
ENDBRANCH   7   8
ENDBRANCH   6   7
ENDBRANCH   5   6
ENDBRANCH   4   5
ENDBRANCH   3   4
ENDBRANCH   2   3
TORSDOF 14
ENDMDL
MODEL      288
REMARK 921   NORMALIZED FREE ENERGY PREDICTED BY IDOCK:   -2.28 KCAL/MOL
REMARK 922        TOTAL FREE ENERGY PREDICTED BY IDOCK:   -5.89 KCAL/MOL
REMARK 923 INTER-LIGAND FREE ENERGY PREDICTED BY IDOCK:   -4.92 KCAL/MOL
REMARK 924 INTRA-LIGAND FREE ENERGY PREDICTED BY IDOCK:   -0.96 KCAL/MOL
REMARK 927      BINDING AFFINITY PREDICTED BY RF-SCORE:    0.00 PKD
ROOT
HETATM    1  C   UNL     1     -10.521  18.758  67.627  1.00  0.00    -0.495 C  
HETATM    2  C   UNL     1     -10.535  17.237  67.618  1.00  0.00    -0.363 C  
ENDROOT
BRANCH   2   3
HETATM    3  C   UNL     1      -9.441  16.673  68.516  1.00  0.00    -0.239 C  
BRANCH   3   4
HETATM    4  C   UNL     1      -9.724  15.218  68.887  1.00  0.00    -0.220 C  
BRANCH   4   5
HETATM    5  C   UNL     1     -11.133  15.084  69.445  1.00  0.00    -0.290 C  
BRANCH   5   6
HETATM    6  C   UNL     1     -11.969  14.067  68.668  1.00  0.00    -0.389 C  
BRANCH   6   7
HETATM    7  C   UNL     1     -11.046  13.273  67.748  1.00  0.00    -0.289 C  
BRANCH   7   8
HETATM    8  C   UNL     1     -11.520  11.837  67.546  1.00  0.00    -0.303 C  
BRANCH   8   9
HETATM    9  N   UNL     1     -10.735  10.814  68.416  1.00  0.00    -0.201 N  
HETATM   10  C   UNL     1      -9.320  11.325  68.683  1.00  0.00    -0.164 C  
HETATM   11  C   UNL     1     -11.462  10.584  69.742  1.00  0.00    -0.294 C  
BRANCH   9  12
HETATM   12  C   UNL     1     -10.685   9.493  67.597  1.00  0.00    -0.250 C  
BRANCH  12  13
HETATM   13  C   UNL     1      -9.695   8.481  68.166  1.00  0.00    -0.175 C  
BRANCH  13  14
HETATM   14  C   UNL     1     -10.076   7.041  67.831  1.00  0.00    -0.204 C  
BRANCH  14  15
HETATM   15  C   UNL     1     -11.183   6.591  68.782  1.00  0.00    -0.319 C  
BRANCH  15  16
HETATM   16  C   UNL     1     -10.636   5.841  69.989  1.00  0.00    -0.380 C  
BRANCH  16  17
HETATM   17  C   UNL     1      -9.333   5.133  69.624  1.00  0.00    -0.182 C  
BRANCH  17  18
HETATM   18  C   UNL     1      -8.222   5.474  70.610  1.00  0.00    -0.116 C  
HETATM   19  C   UNL     1      -6.853   5.318  69.969  1.00  0.00    -0.052 C  
ENDBRANCH  17  18
ENDBRANCH  16  17
ENDBRANCH  15  16
ENDBRANCH  14  15
ENDBRANCH  13  14
ENDBRANCH  12  13
ENDBRANCH   9  12
ENDBRANCH   8   9
ENDBRANCH   7   8
ENDBRANCH   6   7
ENDBRANCH   5   6
ENDBRANCH   4   5
ENDBRANCH   3   4
ENDBRANCH   2   3
TORSDOF 14
ENDMDL
MODEL      289
REMARK 921   NORMALIZED FREE ENERGY PREDICTED BY IDOCK:   -2.28 KCAL/MOL
REMARK 922        TOTAL FREE ENERGY PREDICTED BY IDOCK:   -5.89 KCAL/MOL
REMARK 923 INTER-LIGAND FREE ENERGY PREDICTED BY IDOCK:   -4.71 KCAL/MOL
REMARK 924 INTRA-LIGAND FREE ENERGY PREDICTED BY IDOCK:   -1.17 KCAL/MOL
REMARK 927      BINDING AFFINITY PREDICTED BY RF-SCORE:    0.00 PKD
ROOT
HETATM    1  C   UNL     1      -6.922  17.479  66.046  1.00  0.00    -0.296 C  
HETATM    2  C   UNL     1      -6.981  18.568  67.106  1.00  0.00    -0.213 C  
ENDROOT
BRANCH   2   3
HETATM    3  C   UNL     1      -7.749  18.096  68.335  1.00  0.00    -0.303 C  
BRANCH   3   4
HETATM    4  C   UNL     1      -7.181  16.783  68.873  1.00  0.00    -0.225 C  
BRANCH   4   5
HETATM    5  C   UNL     1      -8.239  15.691  68.815  1.00  0.00    -0.183 C  
BRANCH   5   6
HETATM    6  C   UNL     1      -9.630  16.215  69.173  1.00  0.00    -0.249 C  
BRANCH   6   7
HETATM    7  C   UNL     1     -10.677  15.295  68.552  1.00  0.00    -0.247 C  
BRANCH   7   8
HETATM    8  C   UNL     1     -10.050  14.143  67.772  1.00  0.00    -0.239 C  
BRANCH   8   9
HETATM    9  N   UNL     1     -11.036  12.963  67.539  1.00  0.00    -0.258 N  
HETATM   10  C   UNL     1     -11.909  12.753  68.776  1.00  0.00    -0.307 C  
HETATM   11  C   UNL     1     -11.920  13.249  66.324  1.00  0.00    -0.417 C  
BRANCH   9  12
HETATM   12  C   UNL     1     -10.159  11.706  67.279  1.00  0.00    -0.199 C  
BRANCH  12  13
HETATM   13  C   UNL     1      -8.950  11.626  68.206  1.00  0.00    -0.185 C  
BRANCH  13  14
HETATM   14  C   UNL     1      -8.983  10.391  69.103  1.00  0.00    -0.188 C  
BRANCH  14  15
HETATM   15  C   UNL     1     -10.307   9.659  68.883  1.00  0.00    -0.220 C  
BRANCH  15  16
HETATM   16  C   UNL     1     -10.104   8.184  68.566  1.00  0.00    -0.220 C  
BRANCH  16  17
HETATM   17  C   UNL     1     -10.525   7.892  67.127  1.00  0.00    -0.414 C  
BRANCH  17  18
HETATM   18  C   UNL     1      -9.395   8.187  66.147  1.00  0.00    -0.232 C  
HETATM   19  C   UNL     1      -8.080   7.600  66.635  1.00  0.00    -0.119 C  
ENDBRANCH  17  18
ENDBRANCH  16  17
ENDBRANCH  15  16
ENDBRANCH  14  15
ENDBRANCH  13  14
ENDBRANCH  12  13
ENDBRANCH   9  12
ENDBRANCH   8   9
ENDBRANCH   7   8
ENDBRANCH   6   7
ENDBRANCH   5   6
ENDBRANCH   4   5
ENDBRANCH   3   4
ENDBRANCH   2   3
TORSDOF 14
ENDMDL
MODEL      290
REMARK 921   NORMALIZED FREE ENERGY PREDICTED BY IDOCK:   -2.28 KCAL/MOL
REMARK 922        TOTAL FREE ENERGY PREDICTED BY IDOCK:   -5.88 KCAL/MOL
REMARK 923 INTER-LIGAND FREE ENERGY PREDICTED BY IDOCK:   -5.26 KCAL/MOL
REMARK 924 INTRA-LIGAND FREE ENERGY PREDICTED BY IDOCK:   -0.62 KCAL/MOL
REMARK 927      BINDING AFFINITY PREDICTED BY RF-SCORE:    0.00 PKD
ROOT
HETATM    1  C   UNL     1      -9.679   5.817  68.808  1.00  0.00    -0.168 C  
HETATM    2  C   UNL     1     -10.965   5.949  69.609  1.00  0.00    -0.447 C  
ENDROOT
BRANCH   2   3
HETATM    3  C   UNL     1     -11.054   7.311  70.286  1.00  0.00    -0.289 C  
BRANCH   3   4
HETATM    4  C   UNL     1     -10.123   8.323  69.619  1.00  0.00    -0.199 C  
BRANCH   4   5
HETATM    5  C   UNL     1     -10.845   9.647  69.417  1.00  0.00    -0.239 C  
BRANCH   5   6
HETATM    6  C   UNL     1     -10.516  10.285  68.068  1.00  0.00    -0.234 C  
BRANCH   6   7
HETATM    7  C   UNL     1     -11.040  11.718  68.061  1.00  0.00    -0.297 C  
BRANCH   7   8
HETATM    8  C   UNL     1     -10.219  12.635  67.160  1.00  0.00    -0.225 C  
BRANCH   8   9
HETATM    9  N   UNL     1     -11.050  13.815  66.580  1.00  0.00    -0.303 N  
HETATM   10  C   UNL     1     -12.107  13.289  65.609  1.00  0.00    -0.441 C  
HETATM   11  C   UNL     1     -11.725  14.589  67.713  1.00  0.00    -0.374 C  
BRANCH   9  12
HETATM   12  C   UNL     1     -10.041  14.732  65.832  1.00  0.00    -0.321 C  
BRANCH  12  13
HETATM   13  C   UNL     1      -8.979  15.320  66.756  1.00  0.00    -0.291 C  
BRANCH  13  14
HETATM   14  C   UNL     1      -8.834  16.831  66.590  1.00  0.00    -0.286 C  
BRANCH  14  15
HETATM   15  C   UNL     1      -7.632  17.302  67.409  1.00  0.00    -0.201 C  
BRANCH  15  16
HETATM   16  C   UNL     1      -7.443  18.811  67.338  1.00  0.00    -0.233 C  
BRANCH  16  17
HETATM   17  C   UNL     1      -7.638  19.301  65.905  1.00  0.00    -0.266 C  
BRANCH  17  18
HETATM   18  C   UNL     1      -6.753  20.505  65.605  1.00  0.00    -0.255 C  
HETATM   19  C   UNL     1      -5.377  20.344  66.231  1.00  0.00    -0.193 C  
ENDBRANCH  17  18
ENDBRANCH  16  17
ENDBRANCH  15  16
ENDBRANCH  14  15
ENDBRANCH  13  14
ENDBRANCH  12  13
ENDBRANCH   9  12
ENDBRANCH   8   9
ENDBRANCH   7   8
ENDBRANCH   6   7
ENDBRANCH   5   6
ENDBRANCH   4   5
ENDBRANCH   3   4
ENDBRANCH   2   3
TORSDOF 14
ENDMDL
MODEL      291
REMARK 921   NORMALIZED FREE ENERGY PREDICTED BY IDOCK:   -2.28 KCAL/MOL
REMARK 922        TOTAL FREE ENERGY PREDICTED BY IDOCK:   -5.88 KCAL/MOL
REMARK 923 INTER-LIGAND FREE ENERGY PREDICTED BY IDOCK:   -4.16 KCAL/MOL
REMARK 924 INTRA-LIGAND FREE ENERGY PREDICTED BY IDOCK:   -1.72 KCAL/MOL
REMARK 927      BINDING AFFINITY PREDICTED BY RF-SCORE:    0.00 PKD
ROOT
HETATM    1  C   UNL     1     -11.344  13.269  68.707  1.00  0.00    -0.331 C  
HETATM    2  C   UNL     1     -11.990  11.942  68.344  1.00  0.00    -0.246 C  
ENDROOT
BRANCH   2   3
HETATM    3  C   UNL     1     -11.065  10.774  68.667  1.00  0.00    -0.312 C  
BRANCH   3   4
HETATM    4  C   UNL     1     -11.059   9.744  67.538  1.00  0.00    -0.089 C  
BRANCH   4   5
HETATM    5  C   UNL     1     -10.216   8.539  67.932  1.00  0.00    -0.273 C  
BRANCH   5   6
HETATM    6  C   UNL     1     -10.681   7.258  67.241  1.00  0.00    -0.391 C  
BRANCH   6   7
HETATM    7  C   UNL     1      -9.487   6.320  67.089  1.00  0.00    -0.136 C  
BRANCH   7   8
HETATM    8  C   UNL     1      -8.171   7.076  66.929  1.00  0.00    -0.117 C  
BRANCH   8   9
HETATM    9  N   UNL     1      -7.557   6.927  65.507  1.00  0.00    -0.086 N  
HETATM   10  C   UNL     1      -6.062   6.626  65.607  1.00  0.00    -0.038 C  
HETATM   11  C   UNL     1      -8.263   5.804  64.745  1.00  0.00    -0.135 C  
BRANCH   9  12
HETATM   12  C   UNL     1      -7.785   8.287  64.790  1.00  0.00    -0.114 C  
BRANCH  12  13
HETATM   13  C   UNL     1      -6.846   9.382  65.286  1.00  0.00    -0.083 C  
BRANCH  13  14
HETATM   14  C   UNL     1      -7.591  10.519  65.983  1.00  0.00    -0.140 C  
BRANCH  14  15
HETATM   15  C   UNL     1      -8.801  10.907  65.133  1.00  0.00    -0.167 C  
BRANCH  15  16
HETATM   16  C   UNL     1      -9.485  12.166  65.648  1.00  0.00    -0.117 C  
BRANCH  16  17
HETATM   17  C   UNL     1     -10.380  12.761  64.563  1.00  0.00    -0.373 C  
BRANCH  17  18
HETATM   18  C   UNL     1     -11.091  11.669  63.770  1.00  0.00    -0.499 C  
HETATM   19  C   UNL     1     -12.594  11.898  63.749  1.00  0.00    -0.509 C  
ENDBRANCH  17  18
ENDBRANCH  16  17
ENDBRANCH  15  16
ENDBRANCH  14  15
ENDBRANCH  13  14
ENDBRANCH  12  13
ENDBRANCH   9  12
ENDBRANCH   8   9
ENDBRANCH   7   8
ENDBRANCH   6   7
ENDBRANCH   5   6
ENDBRANCH   4   5
ENDBRANCH   3   4
ENDBRANCH   2   3
TORSDOF 14
ENDMDL
MODEL      292
REMARK 921   NORMALIZED FREE ENERGY PREDICTED BY IDOCK:   -2.28 KCAL/MOL
REMARK 922        TOTAL FREE ENERGY PREDICTED BY IDOCK:   -5.88 KCAL/MOL
REMARK 923 INTER-LIGAND FREE ENERGY PREDICTED BY IDOCK:   -5.08 KCAL/MOL
REMARK 924 INTRA-LIGAND FREE ENERGY PREDICTED BY IDOCK:   -0.80 KCAL/MOL
REMARK 927      BINDING AFFINITY PREDICTED BY RF-SCORE:    0.00 PKD
ROOT
HETATM    1  C   UNL     1      -7.327   4.546  68.434  1.00  0.00    -0.065 C  
HETATM    2  C   UNL     1      -8.437   5.522  68.077  1.00  0.00    -0.098 C  
ENDROOT
BRANCH   2   3
HETATM    3  C   UNL     1      -8.423   5.850  66.589  1.00  0.00    -0.111 C  
BRANCH   3   4
HETATM    4  C   UNL     1      -9.132   7.174  66.306  1.00  0.00    -0.182 C  
BRANCH   4   5
HETATM    5  C   UNL     1      -9.150   8.037  67.559  1.00  0.00    -0.146 C  
BRANCH   5   6
HETATM    6  C   UNL     1      -8.980   9.522  67.240  1.00  0.00    -0.143 C  
BRANCH   6   7
HETATM    7  C   UNL     1     -10.275  10.044  66.624  1.00  0.00    -0.288 C  
BRANCH   7   8
HETATM    8  C   UNL     1     -10.077  11.363  65.883  1.00  0.00    -0.243 C  
BRANCH   8   9
HETATM    9  N   UNL     1     -11.072  12.468  66.339  1.00  0.00    -0.277 N  
HETATM   10  C   UNL     1     -12.274  12.516  65.397  1.00  0.00    -0.412 C  
HETATM   11  C   UNL     1     -11.543  12.193  67.768  1.00  0.00    -0.342 C  
BRANCH   9  12
HETATM   12  C   UNL     1     -10.289  13.810  66.282  1.00  0.00    -0.294 C  
BRANCH  12  13
HETATM   13  C   UNL     1     -10.430  14.520  64.940  1.00  0.00    -0.435 C  
BRANCH  13  14
HETATM   14  C   UNL     1     -10.852  15.980  65.093  1.00  0.00    -0.411 C  
BRANCH  14  15
HETATM   15  C   UNL     1      -9.889  16.671  66.057  1.00  0.00    -0.335 C  
BRANCH  15  16
HETATM   16  C   UNL     1     -10.620  17.475  67.124  1.00  0.00    -0.264 C  
BRANCH  16  17
HETATM   17  C   UNL     1     -10.399  16.849  68.500  1.00  0.00    -0.336 C  
BRANCH  17  18
HETATM   18  C   UNL     1     -11.660  16.152  69.000  1.00  0.00    -0.298 C  
HETATM   19  C   UNL     1     -11.605  15.932  70.503  1.00  0.00    -0.402 C  
ENDBRANCH  17  18
ENDBRANCH  16  17
ENDBRANCH  15  16
ENDBRANCH  14  15
ENDBRANCH  13  14
ENDBRANCH  12  13
ENDBRANCH   9  12
ENDBRANCH   8   9
ENDBRANCH   7   8
ENDBRANCH   6   7
ENDBRANCH   5   6
ENDBRANCH   4   5
ENDBRANCH   3   4
ENDBRANCH   2   3
TORSDOF 14
ENDMDL
MODEL      293
REMARK 921   NORMALIZED FREE ENERGY PREDICTED BY IDOCK:   -2.27 KCAL/MOL
REMARK 922        TOTAL FREE ENERGY PREDICTED BY IDOCK:   -5.86 KCAL/MOL
REMARK 923 INTER-LIGAND FREE ENERGY PREDICTED BY IDOCK:   -4.29 KCAL/MOL
REMARK 924 INTRA-LIGAND FREE ENERGY PREDICTED BY IDOCK:   -1.57 KCAL/MOL
REMARK 927      BINDING AFFINITY PREDICTED BY RF-SCORE:    0.00 PKD
ROOT
HETATM    1  C   UNL     1      -8.516   8.704  64.849  1.00  0.00    -0.180 C  
HETATM    2  C   UNL     1      -9.591   9.650  65.360  1.00  0.00    -0.361 C  
ENDROOT
BRANCH   2   3
HETATM    3  C   UNL     1      -9.090  11.089  65.382  1.00  0.00    -0.213 C  
BRANCH   3   4
HETATM    4  C   UNL     1     -10.229  12.068  65.668  1.00  0.00    -0.284 C  
BRANCH   4   5
HETATM    5  C   UNL     1     -11.242  11.432  66.609  1.00  0.00    -0.298 C  
BRANCH   5   6
HETATM    6  C   UNL     1     -11.532  12.311  67.826  1.00  0.00    -0.392 C  
BRANCH   6   7
HETATM    7  C   UNL     1     -11.115  11.558  69.086  1.00  0.00    -0.316 C  
BRANCH   7   8
HETATM    8  C   UNL     1     -11.012  10.053  68.857  1.00  0.00    -0.207 C  
BRANCH   8   9
HETATM    9  N   UNL     1      -9.719   9.437  69.465  1.00  0.00    -0.173 N  
HETATM   10  C   UNL     1      -8.531  10.370  69.233  1.00  0.00    -0.154 C  
HETATM   11  C   UNL     1      -9.905   9.197  70.964  1.00  0.00    -0.296 C  
BRANCH   9  12
HETATM   12  C   UNL     1      -9.494   8.085  68.730  1.00  0.00    -0.147 C  
BRANCH  12  13
HETATM   13  C   UNL     1     -10.765   7.545  68.082  1.00  0.00    -0.145 C  
BRANCH  13  14
HETATM   14  C   UNL     1     -10.868   6.025  68.178  1.00  0.00    -0.365 C  
BRANCH  14  15
HETATM   15  C   UNL     1      -9.618   5.407  67.552  1.00  0.00    -0.138 C  
BRANCH  15  16
HETATM   16  C   UNL     1      -9.909   4.069  66.886  1.00  0.00    -0.157 C  
BRANCH  16  17
HETATM   17  C   UNL     1     -10.088   4.257  65.381  1.00  0.00    -0.238 C  
BRANCH  17  18
HETATM   18  C   UNL     1      -8.897   4.986  64.768  1.00  0.00    -0.128 C  
HETATM   19  C   UNL     1      -8.184   4.111  63.750  1.00  0.00    -0.094 C  
ENDBRANCH  17  18
ENDBRANCH  16  17
ENDBRANCH  15  16
ENDBRANCH  14  15
ENDBRANCH  13  14
ENDBRANCH  12  13
ENDBRANCH   9  12
ENDBRANCH   8   9
ENDBRANCH   7   8
ENDBRANCH   6   7
ENDBRANCH   5   6
ENDBRANCH   4   5
ENDBRANCH   3   4
ENDBRANCH   2   3
TORSDOF 14
ENDMDL
MODEL      294
REMARK 921   NORMALIZED FREE ENERGY PREDICTED BY IDOCK:   -2.25 KCAL/MOL
REMARK 922        TOTAL FREE ENERGY PREDICTED BY IDOCK:   -5.82 KCAL/MOL
REMARK 923 INTER-LIGAND FREE ENERGY PREDICTED BY IDOCK:   -4.99 KCAL/MOL
REMARK 924 INTRA-LIGAND FREE ENERGY PREDICTED BY IDOCK:   -0.83 KCAL/MOL
REMARK 927      BINDING AFFINITY PREDICTED BY RF-SCORE:    0.00 PKD
ROOT
HETATM    1  C   UNL     1      -8.856   4.329  64.253  1.00  0.00    -0.145 C  
HETATM    2  C   UNL     1      -9.565   4.503  65.586  1.00  0.00    -0.191 C  
ENDROOT
BRANCH   2   3
HETATM    3  C   UNL     1      -8.725   5.332  66.551  1.00  0.00    -0.115 C  
BRANCH   3   4
HETATM    4  C   UNL     1      -9.320   5.314  67.958  1.00  0.00    -0.135 C  
BRANCH   4   5
HETATM    5  C   UNL     1      -9.872   6.688  68.311  1.00  0.00    -0.137 C  
BRANCH   5   6
HETATM    6  C   UNL     1      -9.337   7.781  67.387  1.00  0.00    -0.168 C  
BRANCH   6   7
HETATM    7  C   UNL     1     -10.512   8.600  66.862  1.00  0.00    -0.329 C  
BRANCH   7   8
HETATM    8  C   UNL     1     -10.799   9.825  67.725  1.00  0.00    -0.246 C  
BRANCH   8   9
HETATM    9  N   UNL     1     -10.412  11.160  67.026  1.00  0.00    -0.224 N  
HETATM   10  C   UNL     1      -9.034  11.622  67.499  1.00  0.00    -0.165 C  
HETATM   11  C   UNL     1     -10.405  10.976  65.508  1.00  0.00    -0.260 C  
BRANCH   9  12
HETATM   12  C   UNL     1     -11.496  12.197  67.435  1.00  0.00    -0.345 C  
BRANCH  12  13
HETATM   13  C   UNL     1     -12.048  12.976  66.245  1.00  0.00    -0.453 C  
BRANCH  13  14
HETATM   14  C   UNL     1     -11.641  14.447  66.272  1.00  0.00    -0.377 C  
BRANCH  14  15
HETATM   15  C   UNL     1     -11.035  14.765  67.639  1.00  0.00    -0.292 C  
BRANCH  15  16
HETATM   16  C   UNL     1     -11.909  15.712  68.450  1.00  0.00    -0.211 C  
BRANCH  16  17
HETATM   17  C   UNL     1     -12.186  15.122  69.831  1.00  0.00    -0.353 C  
BRANCH  17  18
HETATM   18  C   UNL     1     -11.612  16.003  70.935  1.00  0.00    -0.453 C  
HETATM   19  C   UNL     1     -12.582  16.124  72.099  1.00  0.00    -0.394 C  
ENDBRANCH  17  18
ENDBRANCH  16  17
ENDBRANCH  15  16
ENDBRANCH  14  15
ENDBRANCH  13  14
ENDBRANCH  12  13
ENDBRANCH   9  12
ENDBRANCH   8   9
ENDBRANCH   7   8
ENDBRANCH   6   7
ENDBRANCH   5   6
ENDBRANCH   4   5
ENDBRANCH   3   4
ENDBRANCH   2   3
TORSDOF 14
ENDMDL
MODEL      295
REMARK 921   NORMALIZED FREE ENERGY PREDICTED BY IDOCK:   -2.25 KCAL/MOL
REMARK 922        TOTAL FREE ENERGY PREDICTED BY IDOCK:   -5.82 KCAL/MOL
REMARK 923 INTER-LIGAND FREE ENERGY PREDICTED BY IDOCK:   -5.17 KCAL/MOL
REMARK 924 INTRA-LIGAND FREE ENERGY PREDICTED BY IDOCK:   -0.65 KCAL/MOL
REMARK 927      BINDING AFFINITY PREDICTED BY RF-SCORE:    0.00 PKD
ROOT
HETATM    1  C   UNL     1      -9.472   5.835  66.416  1.00  0.00    -0.172 C  
HETATM    2  C   UNL     1      -8.546   6.734  65.611  1.00  0.00    -0.126 C  
ENDROOT
BRANCH   2   3
HETATM    3  C   UNL     1      -8.075   7.922  66.441  1.00  0.00    -0.108 C  
BRANCH   3   4
HETATM    4  C   UNL     1      -8.713   9.224  65.956  1.00  0.00    -0.175 C  
BRANCH   4   5
HETATM    5  C   UNL     1      -8.685   9.287  64.436  1.00  0.00    -0.211 C  
BRANCH   5   6
HETATM    6  C   UNL     1      -9.666  10.320  63.882  1.00  0.00    -0.325 C  
BRANCH   6   7
HETATM    7  C   UNL     1     -10.049  11.284  65.002  1.00  0.00    -0.331 C  
BRANCH   7   8
HETATM    8  C   UNL     1     -11.307  12.083  64.677  1.00  0.00    -0.318 C  
BRANCH   8   9
HETATM    9  N   UNL     1     -11.557  13.250  65.675  1.00  0.00    -0.324 N  
HETATM   10  C   UNL     1     -12.909  13.904  65.395  1.00  0.00    -0.427 C  
HETATM   11  C   UNL     1     -11.522  12.728  67.113  1.00  0.00    -0.337 C  
BRANCH   9  12
HETATM   12  C   UNL     1     -10.407  14.271  65.448  1.00  0.00    -0.370 C  
BRANCH  12  13
HETATM   13  C   UNL     1      -9.350  14.227  66.547  1.00  0.00    -0.292 C  
BRANCH  13  14
HETATM   14  C   UNL     1      -8.569  15.534  66.658  1.00  0.00    -0.325 C  
BRANCH  14  15
HETATM   15  C   UNL     1      -8.744  16.094  68.069  1.00  0.00    -0.176 C  
BRANCH  15  16
HETATM   16  C   UNL     1      -8.838  17.613  68.078  1.00  0.00    -0.257 C  
BRANCH  16  17
HETATM   17  C   UNL     1      -7.737  18.215  67.207  1.00  0.00    -0.226 C  
BRANCH  17  18
HETATM   18  C   UNL     1      -7.380  19.626  67.660  1.00  0.00    -0.289 C  
HETATM   19  C   UNL     1      -7.137  19.674  69.160  1.00  0.00    -0.378 C  
ENDBRANCH  17  18
ENDBRANCH  16  17
ENDBRANCH  15  16
ENDBRANCH  14  15
ENDBRANCH  13  14
ENDBRANCH  12  13
ENDBRANCH   9  12
ENDBRANCH   8   9
ENDBRANCH   7   8
ENDBRANCH   6   7
ENDBRANCH   5   6
ENDBRANCH   4   5
ENDBRANCH   3   4
ENDBRANCH   2   3
TORSDOF 14
ENDMDL
MODEL      296
REMARK 921   NORMALIZED FREE ENERGY PREDICTED BY IDOCK:   -2.24 KCAL/MOL
REMARK 922        TOTAL FREE ENERGY PREDICTED BY IDOCK:   -5.81 KCAL/MOL
REMARK 923 INTER-LIGAND FREE ENERGY PREDICTED BY IDOCK:   -3.70 KCAL/MOL
REMARK 924 INTRA-LIGAND FREE ENERGY PREDICTED BY IDOCK:   -2.11 KCAL/MOL
REMARK 927      BINDING AFFINITY PREDICTED BY RF-SCORE:    0.00 PKD
ROOT
HETATM    1  C   UNL     1      -9.427   3.886  71.416  1.00  0.00    -0.222 C  
HETATM    2  C   UNL     1      -8.555   5.051  71.857  1.00  0.00    -0.131 C  
ENDROOT
BRANCH   2   3
HETATM    3  C   UNL     1      -9.183   6.384  71.469  1.00  0.00    -0.145 C  
BRANCH   3   4
HETATM    4  C   UNL     1     -10.696   6.256  71.299  1.00  0.00    -0.299 C  
BRANCH   4   5
HETATM    5  C   UNL     1     -11.289   7.585  70.857  1.00  0.00    -0.297 C  
BRANCH   5   6
HETATM    6  C   UNL     1     -10.396   8.769  71.228  1.00  0.00    -0.331 C  
BRANCH   6   7
HETATM    7  C   UNL     1     -10.621   9.890  70.218  1.00  0.00    -0.359 C  
BRANCH   7   8
HETATM    8  C   UNL     1     -10.613   9.386  68.778  1.00  0.00    -0.208 C  
BRANCH   8   9
HETATM    9  N   UNL     1      -9.465  10.003  67.928  1.00  0.00    -0.144 N  
HETATM   10  C   UNL     1      -9.934  10.223  66.490  1.00  0.00    -0.224 C  
HETATM   11  C   UNL     1      -9.016  11.332  68.536  1.00  0.00    -0.166 C  
BRANCH   9  12
HETATM   12  C   UNL     1      -8.298   8.977  67.962  1.00  0.00    -0.117 C  
BRANCH  12  13
HETATM   13  C   UNL     1      -8.768   7.539  67.771  1.00  0.00    -0.123 C  
BRANCH  13  14
HETATM   14  C   UNL     1      -7.608   6.566  67.575  1.00  0.00    -0.105 C  
BRANCH  14  15
HETATM   15  C   UNL     1      -8.001   5.208  68.155  1.00  0.00    -0.087 C  
BRANCH  15  16
HETATM   16  C   UNL     1      -9.488   4.922  67.996  1.00  0.00    -0.173 C  
BRANCH  16  17
HETATM   17  C   UNL     1      -9.712   3.897  66.886  1.00  0.00    -0.189 C  
BRANCH  17  18
HETATM   18  C   UNL     1     -10.025   4.578  65.558  1.00  0.00    -0.230 C  
HETATM   19  C   UNL     1      -8.893   4.384  64.563  1.00  0.00    -0.148 C  
ENDBRANCH  17  18
ENDBRANCH  16  17
ENDBRANCH  15  16
ENDBRANCH  14  15
ENDBRANCH  13  14
ENDBRANCH  12  13
ENDBRANCH   9  12
ENDBRANCH   8   9
ENDBRANCH   7   8
ENDBRANCH   6   7
ENDBRANCH   5   6
ENDBRANCH   4   5
ENDBRANCH   3   4
ENDBRANCH   2   3
TORSDOF 14
ENDMDL
MODEL      297
REMARK 921   NORMALIZED FREE ENERGY PREDICTED BY IDOCK:   -2.24 KCAL/MOL
REMARK 922        TOTAL FREE ENERGY PREDICTED BY IDOCK:   -5.80 KCAL/MOL
REMARK 923 INTER-LIGAND FREE ENERGY PREDICTED BY IDOCK:   -4.92 KCAL/MOL
REMARK 924 INTRA-LIGAND FREE ENERGY PREDICTED BY IDOCK:   -0.89 KCAL/MOL
REMARK 927      BINDING AFFINITY PREDICTED BY RF-SCORE:    0.00 PKD
ROOT
HETATM    1  C   UNL     1      -7.424  19.213  68.674  1.00  0.00    -0.370 C  
HETATM    2  C   UNL     1      -7.154  17.719  68.750  1.00  0.00    -0.263 C  
ENDROOT
BRANCH   2   3
HETATM    3  C   UNL     1      -5.992  17.418  69.690  1.00  0.00    -0.248 C  
BRANCH   3   4
HETATM    4  C   UNL     1      -5.453  16.005  69.469  1.00  0.00    -0.122 C  
BRANCH   4   5
HETATM    5  C   UNL     1      -6.443  15.187  68.653  1.00  0.00    -0.087 C  
BRANCH   5   6
HETATM    6  C   UNL     1      -6.601  13.765  69.191  1.00  0.00    -0.112 C  
BRANCH   6   7
HETATM    7  C   UNL     1      -6.824  12.817  68.017  1.00  0.00    -0.100 C  
BRANCH   7   8
HETATM    8  C   UNL     1      -7.610  11.572  68.415  1.00  0.00    -0.125 C  
BRANCH   8   9
HETATM    9  N   UNL     1      -8.982  11.465  67.689  1.00  0.00    -0.138 N  
HETATM   10  C   UNL     1      -8.789  11.578  66.177  1.00  0.00    -0.167 C  
HETATM   11  C   UNL     1      -9.654  10.134  68.028  1.00  0.00    -0.145 C  
BRANCH   9  12
HETATM   12  C   UNL     1      -9.844  12.649  68.212  1.00  0.00    -0.227 C  
BRANCH  12  13
HETATM   13  C   UNL     1     -11.271  12.623  67.674  1.00  0.00    -0.329 C  
BRANCH  13  14
HETATM   14  C   UNL     1     -12.102  13.806  68.166  1.00  0.00    -0.316 C  
BRANCH  14  15
HETATM   15  C   UNL     1     -11.159  14.958  68.511  1.00  0.00    -0.275 C  
BRANCH  15  16
HETATM   16  C   UNL     1     -11.660  15.778  69.693  1.00  0.00    -0.363 C  
BRANCH  16  17
HETATM   17  C   UNL     1     -12.089  14.854  70.831  1.00  0.00    -0.377 C  
BRANCH  17  18
HETATM   18  C   UNL     1     -12.657  15.647  72.003  1.00  0.00    -0.503 C  
HETATM   19  C   UNL     1     -14.147  15.394  72.165  1.00  0.00    -0.651 C  
ENDBRANCH  17  18
ENDBRANCH  16  17
ENDBRANCH  15  16
ENDBRANCH  14  15
ENDBRANCH  13  14
ENDBRANCH  12  13
ENDBRANCH   9  12
ENDBRANCH   8   9
ENDBRANCH   7   8
ENDBRANCH   6   7
ENDBRANCH   5   6
ENDBRANCH   4   5
ENDBRANCH   3   4
ENDBRANCH   2   3
TORSDOF 14
ENDMDL
MODEL      298
REMARK 921   NORMALIZED FREE ENERGY PREDICTED BY IDOCK:   -2.23 KCAL/MOL
REMARK 922        TOTAL FREE ENERGY PREDICTED BY IDOCK:   -5.79 KCAL/MOL
REMARK 923 INTER-LIGAND FREE ENERGY PREDICTED BY IDOCK:   -4.53 KCAL/MOL
REMARK 924 INTRA-LIGAND FREE ENERGY PREDICTED BY IDOCK:   -1.26 KCAL/MOL
REMARK 927      BINDING AFFINITY PREDICTED BY RF-SCORE:    0.00 PKD
ROOT
HETATM    1  C   UNL     1     -12.751  11.855  63.394  1.00  0.00    -0.496 C  
HETATM    2  C   UNL     1     -12.362  12.794  64.524  1.00  0.00    -0.515 C  
ENDROOT
BRANCH   2   3
HETATM    3  C   UNL     1     -10.864  13.074  64.515  1.00  0.00    -0.390 C  
BRANCH   3   4
HETATM    4  C   UNL     1     -10.063  11.817  64.853  1.00  0.00    -0.298 C  
BRANCH   4   5
HETATM    5  C   UNL     1     -10.436  11.316  66.241  1.00  0.00    -0.308 C  
BRANCH   5   6
HETATM    6  C   UNL     1      -9.957   9.885  66.486  1.00  0.00    -0.291 C  
BRANCH   6   7
HETATM    7  C   UNL     1      -9.567   9.742  67.954  1.00  0.00    -0.158 C  
BRANCH   7   8
HETATM    8  C   UNL     1      -9.182   8.311  68.318  1.00  0.00    -0.134 C  
BRANCH   8   9
HETATM    9  N   UNL     1     -10.053   7.725  69.466  1.00  0.00    -0.189 N  
HETATM   10  C   UNL     1      -9.182   7.414  70.683  1.00  0.00    -0.157 C  
HETATM   11  C   UNL     1     -11.150   8.717  69.854  1.00  0.00    -0.116 C  
BRANCH   9  12
HETATM   12  C   UNL     1     -10.685   6.418  68.909  1.00  0.00    -0.288 C  
BRANCH  12  13
HETATM   13  C   UNL     1     -11.044   6.519  67.430  1.00  0.00    -0.411 C  
BRANCH  13  14
HETATM   14  C   UNL     1     -10.703   5.246  66.658  1.00  0.00    -0.274 C  
BRANCH  14  15
HETATM   15  C   UNL     1      -9.237   4.897  66.910  1.00  0.00    -0.124 C  
BRANCH  15  16
HETATM   16  C   UNL     1      -8.572   4.287  65.683  1.00  0.00    -0.118 C  
BRANCH  16  17
HETATM   17  C   UNL     1      -7.518   5.243  65.125  1.00  0.00    -0.073 C  
BRANCH  17  18
HETATM   18  C   UNL     1      -8.142   6.265  64.182  1.00  0.00    -0.067 C  
HETATM   19  C   UNL     1      -7.806   7.684  64.612  1.00  0.00    -0.126 C  
ENDBRANCH  17  18
ENDBRANCH  16  17
ENDBRANCH  15  16
ENDBRANCH  14  15
ENDBRANCH  13  14
ENDBRANCH  12  13
ENDBRANCH   9  12
ENDBRANCH   8   9
ENDBRANCH   7   8
ENDBRANCH   6   7
ENDBRANCH   5   6
ENDBRANCH   4   5
ENDBRANCH   3   4
ENDBRANCH   2   3
TORSDOF 14
ENDMDL
MODEL      299
REMARK 921   NORMALIZED FREE ENERGY PREDICTED BY IDOCK:   -2.23 KCAL/MOL
REMARK 922        TOTAL FREE ENERGY PREDICTED BY IDOCK:   -5.79 KCAL/MOL
REMARK 923 INTER-LIGAND FREE ENERGY PREDICTED BY IDOCK:   -5.09 KCAL/MOL
REMARK 924 INTRA-LIGAND FREE ENERGY PREDICTED BY IDOCK:   -0.70 KCAL/MOL
REMARK 927      BINDING AFFINITY PREDICTED BY RF-SCORE:    0.00 PKD
ROOT
HETATM    1  C   UNL     1     -10.571  19.514  67.454  1.00  0.00    -0.607 C  
HETATM    2  C   UNL     1     -10.759  18.006  67.460  1.00  0.00    -0.352 C  
ENDROOT
BRANCH   2   3
HETATM    3  C   UNL     1     -10.228  17.391  68.749  1.00  0.00    -0.361 C  
BRANCH   3   4
HETATM    4  C   UNL     1     -10.269  15.864  68.693  1.00  0.00    -0.223 C  
BRANCH   4   5
HETATM    5  C   UNL     1     -11.703  15.373  68.829  1.00  0.00    -0.369 C  
BRANCH   5   6
HETATM    6  C   UNL     1     -12.091  14.407  67.710  1.00  0.00    -0.304 C  
BRANCH   6   7
HETATM    7  C   UNL     1     -11.099  14.561  66.561  1.00  0.00    -0.332 C  
BRANCH   7   8
HETATM    8  C   UNL     1     -11.392  13.608  65.406  1.00  0.00    -0.301 C  
BRANCH   8   9
HETATM    9  N   UNL     1     -10.508  12.329  65.438  1.00  0.00    -0.262 N  
HETATM   10  C   UNL     1     -10.068  11.956  64.022  1.00  0.00    -0.334 C  
HETATM   11  C   UNL     1      -9.278  12.562  66.318  1.00  0.00    -0.132 C  
BRANCH   9  12
HETATM   12  C   UNL     1     -11.392  11.202  66.041  1.00  0.00     0.166 C  
BRANCH  12  13
HETATM   13  C   UNL     1     -10.611   9.921  66.319  1.00  0.00    -0.089 C  
BRANCH  13  14
HETATM   14  C   UNL     1     -10.636   9.531  67.795  1.00  0.00    -0.318 C  
BRANCH  14  15
HETATM   15  C   UNL     1     -10.000   8.150  67.950  1.00  0.00    -0.225 C  
BRANCH  15  16
HETATM   16  C   UNL     1     -10.584   7.135  66.976  1.00  0.00    -0.413 C  
BRANCH  16  17
HETATM   17  C   UNL     1     -10.101   5.729  67.327  1.00  0.00    -0.208 C  
BRANCH  17  18
HETATM   18  C   UNL     1     -10.504   4.721  66.257  1.00  0.00    -0.311 C  
HETATM   19  C   UNL     1      -9.530   4.742  65.090  1.00  0.00    -0.114 C  
ENDBRANCH  17  18
ENDBRANCH  16  17
ENDBRANCH  15  16
ENDBRANCH  14  15
ENDBRANCH  13  14
ENDBRANCH  12  13
ENDBRANCH   9  12
ENDBRANCH   8   9
ENDBRANCH   7   8
ENDBRANCH   6   7
ENDBRANCH   5   6
ENDBRANCH   4   5
ENDBRANCH   3   4
ENDBRANCH   2   3
TORSDOF 14
ENDMDL
MODEL      300
REMARK 921   NORMALIZED FREE ENERGY PREDICTED BY IDOCK:   -2.22 KCAL/MOL
REMARK 922        TOTAL FREE ENERGY PREDICTED BY IDOCK:   -5.78 KCAL/MOL
REMARK 923 INTER-LIGAND FREE ENERGY PREDICTED BY IDOCK:   -4.95 KCAL/MOL
REMARK 924 INTRA-LIGAND FREE ENERGY PREDICTED BY IDOCK:   -0.83 KCAL/MOL
REMARK 927      BINDING AFFINITY PREDICTED BY RF-SCORE:    0.00 PKD
ROOT
HETATM    1  C   UNL     1      -8.919   8.530  65.754  1.00  0.00    -0.229 C  
HETATM    2  C   UNL     1      -9.668   9.786  65.337  1.00  0.00    -0.383 C  
ENDROOT
BRANCH   2   3
HETATM    3  C   UNL     1      -9.376  10.143  63.885  1.00  0.00    -0.336 C  
BRANCH   3   4
HETATM    4  C   UNL     1     -10.344  11.209  63.371  1.00  0.00    -0.419 C  
BRANCH   4   5
HETATM    5  C   UNL     1     -11.455  11.440  64.384  1.00  0.00    -0.148 C  
BRANCH   5   6
HETATM    6  C   UNL     1     -12.408  12.555  63.952  1.00  0.00    -0.576 C  
BRANCH   6   7
HETATM    7  C   UNL     1     -11.729  13.901  64.190  1.00  0.00    -0.369 C  
BRANCH   7   8
HETATM    8  C   UNL     1     -12.090  14.504  65.544  1.00  0.00    -0.299 C  
BRANCH   8   9
HETATM    9  N   UNL     1     -11.046  14.177  66.650  1.00  0.00    -0.307 N  
HETATM   10  C   UNL     1     -11.598  13.112  67.597  1.00  0.00    -0.349 C  
HETATM   11  C   UNL     1      -9.746  13.682  66.015  1.00  0.00    -0.222 C  
BRANCH   9  12
HETATM   12  C   UNL     1     -10.795  15.504  67.419  1.00  0.00    -0.312 C  
BRANCH  12  13
HETATM   13  C   UNL     1      -9.632  16.309  66.847  1.00  0.00    -0.244 C  
BRANCH  13  14
HETATM   14  C   UNL     1      -8.595  16.670  67.909  1.00  0.00    -0.196 C  
BRANCH  14  15
HETATM   15  C   UNL     1      -8.185  15.397  68.649  1.00  0.00    -0.158 C  
BRANCH  15  16
HETATM   16  C   UNL     1      -6.702  15.093  68.492  1.00  0.00    -0.108 C  
BRANCH  16  17
HETATM   17  C   UNL     1      -6.406  13.664  68.944  1.00  0.00    -0.097 C  
BRANCH  17  18
HETATM   18  C   UNL     1      -7.465  12.691  68.434  1.00  0.00    -0.127 C  
HETATM   19  C   UNL     1      -6.873  11.311  68.200  1.00  0.00    -0.067 C  
ENDBRANCH  17  18
ENDBRANCH  16  17
ENDBRANCH  15  16
ENDBRANCH  14  15
ENDBRANCH  13  14
ENDBRANCH  12  13
ENDBRANCH   9  12
ENDBRANCH   8   9
ENDBRANCH   7   8
ENDBRANCH   6   7
ENDBRANCH   5   6
ENDBRANCH   4   5
ENDBRANCH   3   4
ENDBRANCH   2   3
TORSDOF 14
ENDMDL
MODEL      301
REMARK 921   NORMALIZED FREE ENERGY PREDICTED BY IDOCK:   -2.22 KCAL/MOL
REMARK 922        TOTAL FREE ENERGY PREDICTED BY IDOCK:   -5.77 KCAL/MOL
REMARK 923 INTER-LIGAND FREE ENERGY PREDICTED BY IDOCK:   -3.58 KCAL/MOL
REMARK 924 INTRA-LIGAND FREE ENERGY PREDICTED BY IDOCK:   -2.18 KCAL/MOL
REMARK 927      BINDING AFFINITY PREDICTED BY RF-SCORE:    0.00 PKD
ROOT
HETATM    1  C   UNL     1      -8.094   9.810  69.982  1.00  0.00    -0.203 C  
HETATM    2  C   UNL     1      -7.216   8.569  70.017  1.00  0.00    -0.051 C  
ENDROOT
BRANCH   2   3
HETATM    3  C   UNL     1      -6.389   8.518  71.296  1.00  0.00    -0.047 C  
BRANCH   3   4
HETATM    4  C   UNL     1      -6.928   7.465  72.263  1.00  0.00    -0.063 C  
BRANCH   4   5
HETATM    5  C   UNL     1      -7.388   8.125  73.554  1.00  0.00    -0.190 C  
BRANCH   5   6
HETATM    6  C   UNL     1      -8.883   7.926  73.804  1.00  0.00    -0.332 C  
BRANCH   6   7
HETATM    7  C   UNL     1      -9.462   7.082  72.673  1.00  0.00    -0.163 C  
BRANCH   7   8
HETATM    8  C   UNL     1     -10.592   7.794  71.936  1.00  0.00    -0.223 C  
BRANCH   8   9
HETATM    9  N   UNL     1     -11.754   6.837  71.542  1.00  0.00    -0.299 N  
HETATM   10  C   UNL     1     -11.784   5.630  72.479  1.00  0.00    -0.197 C  
HETATM   11  C   UNL     1     -13.090   7.578  71.607  1.00  0.00    -0.358 C  
BRANCH   9  12
HETATM   12  C   UNL     1     -11.466   6.379  70.084  1.00  0.00    -0.417 C  
BRANCH  12  13
HETATM   13  C   UNL     1     -10.747   7.443  69.261  1.00  0.00    -0.197 C  
BRANCH  13  14
HETATM   14  C   UNL     1     -10.628   7.060  67.788  1.00  0.00    -0.298 C  
BRANCH  14  15
HETATM   15  C   UNL     1      -9.187   6.640  67.504  1.00  0.00    -0.114 C  
BRANCH  15  16
HETATM   16  C   UNL     1      -9.087   5.188  67.057  1.00  0.00    -0.112 C  
BRANCH  16  17
HETATM   17  C   UNL     1      -9.018   4.266  68.273  1.00  0.00    -0.151 C  
BRANCH  17  18
HETATM   18  C   UNL     1      -8.100   4.836  69.349  1.00  0.00    -0.070 C  
HETATM   19  C   UNL     1      -8.415   4.238  70.711  1.00  0.00    -0.100 C  
ENDBRANCH  17  18
ENDBRANCH  16  17
ENDBRANCH  15  16
ENDBRANCH  14  15
ENDBRANCH  13  14
ENDBRANCH  12  13
ENDBRANCH   9  12
ENDBRANCH   8   9
ENDBRANCH   7   8
ENDBRANCH   6   7
ENDBRANCH   5   6
ENDBRANCH   4   5
ENDBRANCH   3   4
ENDBRANCH   2   3
TORSDOF 14
ENDMDL
MODEL      302
REMARK 921   NORMALIZED FREE ENERGY PREDICTED BY IDOCK:   -2.22 KCAL/MOL
REMARK 922        TOTAL FREE ENERGY PREDICTED BY IDOCK:   -5.77 KCAL/MOL
REMARK 923 INTER-LIGAND FREE ENERGY PREDICTED BY IDOCK:   -4.19 KCAL/MOL
REMARK 924 INTRA-LIGAND FREE ENERGY PREDICTED BY IDOCK:   -1.57 KCAL/MOL
REMARK 927      BINDING AFFINITY PREDICTED BY RF-SCORE:    0.00 PKD
ROOT
HETATM    1  C   UNL     1      -7.268   8.428  74.566  1.00  0.00    -0.244 C  
HETATM    2  C   UNL     1      -8.536   7.665  74.216  1.00  0.00    -0.282 C  
ENDROOT
BRANCH   2   3
HETATM    3  C   UNL     1      -9.238   8.287  73.016  1.00  0.00    -0.316 C  
BRANCH   3   4
HETATM    4  C   UNL     1     -10.562   7.582  72.721  1.00  0.00    -0.365 C  
BRANCH   4   5
HETATM    5  C   UNL     1     -11.596   8.589  72.238  1.00  0.00    -0.444 C  
BRANCH   5   6
HETATM    6  C   UNL     1     -10.997   9.620  71.282  1.00  0.00    -0.399 C  
BRANCH   6   7
HETATM    7  C   UNL     1     -10.712   8.943  69.945  1.00  0.00    -0.236 C  
BRANCH   7   8
HETATM    8  C   UNL     1     -10.356   9.944  68.849  1.00  0.00    -0.205 C  
BRANCH   8   9
HETATM    9  N   UNL     1      -8.824  10.048  68.601  1.00  0.00    -0.127 N  
HETATM   10  C   UNL     1      -8.514  11.256  67.716  1.00  0.00    -0.126 C  
HETATM   11  C   UNL     1      -8.083  10.178  69.932  1.00  0.00    -0.122 C  
BRANCH   9  12
HETATM   12  C   UNL     1      -8.408   8.734  67.882  1.00  0.00    -0.118 C  
BRANCH  12  13
HETATM   13  C   UNL     1      -7.326   7.965  68.634  1.00  0.00    -0.090 C  
BRANCH  13  14
HETATM   14  C   UNL     1      -7.632   6.473  68.732  1.00  0.00    -0.100 C  
BRANCH  14  15
HETATM   15  C   UNL     1      -8.162   6.170  70.133  1.00  0.00    -0.120 C  
BRANCH  15  16
HETATM   16  C   UNL     1      -9.410   5.299  70.101  1.00  0.00    -0.202 C  
BRANCH  16  17
HETATM   17  C   UNL     1      -9.837   5.043  68.657  1.00  0.00    -0.227 C  
BRANCH  17  18
HETATM   18  C   UNL     1     -11.067   5.865  68.289  1.00  0.00    -0.139 C  
HETATM   19  C   UNL     1     -11.035   6.274  66.826  1.00  0.00    -0.328 C  
ENDBRANCH  17  18
ENDBRANCH  16  17
ENDBRANCH  15  16
ENDBRANCH  14  15
ENDBRANCH  13  14
ENDBRANCH  12  13
ENDBRANCH   9  12
ENDBRANCH   8   9
ENDBRANCH   7   8
ENDBRANCH   6   7
ENDBRANCH   5   6
ENDBRANCH   4   5
ENDBRANCH   3   4
ENDBRANCH   2   3
TORSDOF 14
ENDMDL
MODEL      303
REMARK 921   NORMALIZED FREE ENERGY PREDICTED BY IDOCK:   -2.22 KCAL/MOL
REMARK 922        TOTAL FREE ENERGY PREDICTED BY IDOCK:   -5.76 KCAL/MOL
REMARK 923 INTER-LIGAND FREE ENERGY PREDICTED BY IDOCK:   -4.72 KCAL/MOL
REMARK 924 INTRA-LIGAND FREE ENERGY PREDICTED BY IDOCK:   -1.05 KCAL/MOL
REMARK 927      BINDING AFFINITY PREDICTED BY RF-SCORE:    0.00 PKD
ROOT
HETATM    1  C   UNL     1      -9.636  16.261  65.761  1.00  0.00    -0.266 C  
HETATM    2  C   UNL     1     -10.916  15.448  65.870  1.00  0.00    -0.293 C  
ENDROOT
BRANCH   2   3
HETATM    3  C   UNL     1     -11.204  14.701  64.573  1.00  0.00    -0.290 C  
BRANCH   3   4
HETATM    4  C   UNL     1     -12.258  13.614  64.781  1.00  0.00    -0.440 C  
BRANCH   4   5
HETATM    5  C   UNL     1     -12.024  12.904  66.106  1.00  0.00    -0.491 C  
BRANCH   5   6
HETATM    6  C   UNL     1     -11.397  11.522  65.919  1.00  0.00    -0.174 C  
BRANCH   6   7
HETATM    7  C   UNL     1      -9.878  11.666  65.928  1.00  0.00    -0.262 C  
BRANCH   7   8
HETATM    8  C   UNL     1      -9.220  10.823  67.017  1.00  0.00    -0.152 C  
BRANCH   8   9
HETATM    9  N   UNL     1      -8.094  11.584  67.772  1.00  0.00    -0.127 N  
HETATM   10  C   UNL     1      -6.805  11.572  66.949  1.00  0.00    -0.138 C  
HETATM   11  C   UNL     1      -8.523  13.027  68.041  1.00  0.00    -0.181 C  
BRANCH   9  12
HETATM   12  C   UNL     1      -7.882  10.829  69.115  1.00  0.00    -0.142 C  
BRANCH  12  13
HETATM   13  C   UNL     1      -7.485   9.370  68.917  1.00  0.00    -0.074 C  
BRANCH  13  14
HETATM   14  C   UNL     1      -8.320   8.417  69.769  1.00  0.00    -0.125 C  
BRANCH  14  15
HETATM   15  C   UNL     1      -9.458   9.205  70.416  1.00  0.00    -0.269 C  
BRANCH  15  16
HETATM   16  C   UNL     1     -10.793   8.480  70.310  1.00  0.00    -0.249 C  
BRANCH  16  17
HETATM   17  C   UNL     1     -10.669   7.063  70.867  1.00  0.00    -0.259 C  
BRANCH  17  18
HETATM   18  C   UNL     1     -10.947   6.019  69.791  1.00  0.00    -0.471 C  
HETATM   19  C   UNL     1      -9.937   4.885  69.854  1.00  0.00    -0.317 C  
ENDBRANCH  17  18
ENDBRANCH  16  17
ENDBRANCH  15  16
ENDBRANCH  14  15
ENDBRANCH  13  14
ENDBRANCH  12  13
ENDBRANCH   9  12
ENDBRANCH   8   9
ENDBRANCH   7   8
ENDBRANCH   6   7
ENDBRANCH   5   6
ENDBRANCH   4   5
ENDBRANCH   3   4
ENDBRANCH   2   3
TORSDOF 14
ENDMDL
MODEL      304
REMARK 921   NORMALIZED FREE ENERGY PREDICTED BY IDOCK:   -2.21 KCAL/MOL
REMARK 922        TOTAL FREE ENERGY PREDICTED BY IDOCK:   -5.76 KCAL/MOL
REMARK 923 INTER-LIGAND FREE ENERGY PREDICTED BY IDOCK:   -4.80 KCAL/MOL
REMARK 924 INTRA-LIGAND FREE ENERGY PREDICTED BY IDOCK:   -0.96 KCAL/MOL
REMARK 927      BINDING AFFINITY PREDICTED BY RF-SCORE:    0.00 PKD
ROOT
HETATM    1  C   UNL     1      -7.484   6.472  63.258  1.00  0.00    -0.074 C  
HETATM    2  C   UNL     1      -7.810   7.625  64.195  1.00  0.00    -0.133 C  
ENDROOT
BRANCH   2   3
HETATM    3  C   UNL     1      -7.013   8.872  63.829  1.00  0.00    -0.088 C  
BRANCH   3   4
HETATM    4  C   UNL     1      -7.759  10.143  64.232  1.00  0.00    -0.131 C  
BRANCH   4   5
HETATM    5  C   UNL     1      -9.145   9.796  64.754  1.00  0.00    -0.290 C  
BRANCH   5   6
HETATM    6  C   UNL     1     -10.252  10.493  63.964  1.00  0.00    -0.238 C  
BRANCH   6   7
HETATM    7  C   UNL     1     -10.920  11.528  64.863  1.00  0.00    -0.319 C  
BRANCH   7   8
HETATM    8  C   UNL     1     -10.504  11.387  66.324  1.00  0.00    -0.255 C  
BRANCH   8   9
HETATM    9  N   UNL     1     -10.324  12.758  67.036  1.00  0.00    -0.233 N  
HETATM   10  C   UNL     1      -8.852  13.171  67.022  1.00  0.00    -0.210 C  
HETATM   11  C   UNL     1     -11.169  13.827  66.342  1.00  0.00    -0.316 C  
BRANCH   9  12
HETATM   12  C   UNL     1     -10.812  12.556  68.499  1.00  0.00    -0.243 C  
BRANCH  12  13
HETATM   13  C   UNL     1     -11.322  11.143  68.762  1.00  0.00    -0.342 C  
BRANCH  13  14
HETATM   14  C   UNL     1     -12.139  11.048  70.049  1.00  0.00    -0.441 C  
BRANCH  14  15
HETATM   15  C   UNL     1     -11.859   9.699  70.711  1.00  0.00    -0.378 C  
BRANCH  15  16
HETATM   16  C   UNL     1     -10.611   9.031  70.151  1.00  0.00    -0.250 C  
BRANCH  16  17
HETATM   17  C   UNL     1     -10.456   7.629  70.736  1.00  0.00    -0.211 C  
BRANCH  17  18
HETATM   18  C   UNL     1     -11.532   7.340  71.777  1.00  0.00    -0.300 C  
HETATM   19  C   UNL     1     -11.400   5.929  72.325  1.00  0.00    -0.351 C  
ENDBRANCH  17  18
ENDBRANCH  16  17
ENDBRANCH  15  16
ENDBRANCH  14  15
ENDBRANCH  13  14
ENDBRANCH  12  13
ENDBRANCH   9  12
ENDBRANCH   8   9
ENDBRANCH   7   8
ENDBRANCH   6   7
ENDBRANCH   5   6
ENDBRANCH   4   5
ENDBRANCH   3   4
ENDBRANCH   2   3
TORSDOF 14
ENDMDL
MODEL      305
REMARK 921   NORMALIZED FREE ENERGY PREDICTED BY IDOCK:   -2.21 KCAL/MOL
REMARK 922        TOTAL FREE ENERGY PREDICTED BY IDOCK:   -5.76 KCAL/MOL
REMARK 923 INTER-LIGAND FREE ENERGY PREDICTED BY IDOCK:   -5.24 KCAL/MOL
REMARK 924 INTRA-LIGAND FREE ENERGY PREDICTED BY IDOCK:   -0.51 KCAL/MOL
REMARK 927      BINDING AFFINITY PREDICTED BY RF-SCORE:    0.00 PKD
ROOT
HETATM    1  C   UNL     1     -11.945  12.852  63.356  1.00  0.00    -0.612 C  
HETATM    2  C   UNL     1     -12.617  13.151  64.687  1.00  0.00    -0.384 C  
ENDROOT
BRANCH   2   3
HETATM    3  C   UNL     1     -12.025  14.398  65.333  1.00  0.00    -0.369 C  
BRANCH   3   4
HETATM    4  C   UNL     1     -11.363  14.068  66.670  1.00  0.00    -0.345 C  
BRANCH   4   5
HETATM    5  C   UNL     1      -9.899  13.714  66.458  1.00  0.00    -0.295 C  
BRANCH   5   6
HETATM    6  C   UNL     1      -9.187  13.383  67.770  1.00  0.00    -0.211 C  
BRANCH   6   7
HETATM    7  C   UNL     1      -8.044  12.415  67.479  1.00  0.00    -0.173 C  
BRANCH   7   8
HETATM    8  C   UNL     1      -8.508  11.180  66.713  1.00  0.00    -0.153 C  
BRANCH   8   9
HETATM    9  N   UNL     1      -9.262  10.159  67.612  1.00  0.00    -0.140 N  
HETATM   10  C   UNL     1      -8.831  10.321  69.070  1.00  0.00    -0.168 C  
HETATM   11  C   UNL     1     -10.772  10.367  67.491  1.00  0.00    -0.287 C  
BRANCH   9  12
HETATM   12  C   UNL     1      -8.872   8.747  67.090  1.00  0.00    -0.127 C  
BRANCH  12  13
HETATM   13  C   UNL     1     -10.077   7.936  66.623  1.00  0.00    -0.310 C  
BRANCH  13  14
HETATM   14  C   UNL     1     -10.571   6.960  67.687  1.00  0.00    -0.328 C  
BRANCH  14  15
HETATM   15  C   UNL     1      -9.375   6.479  68.508  1.00  0.00    -0.123 C  
BRANCH  15  16
HETATM   16  C   UNL     1      -9.709   6.339  69.986  1.00  0.00    -0.193 C  
BRANCH  16  17
HETATM   17  C   UNL     1     -11.095   5.720  70.157  1.00  0.00    -0.323 C  
BRANCH  17  18
HETATM   18  C   UNL     1     -12.009   6.623  70.978  1.00  0.00    -0.415 C  
HETATM   19  C   UNL     1     -11.241   7.310  72.096  1.00  0.00    -0.288 C  
ENDBRANCH  17  18
ENDBRANCH  16  17
ENDBRANCH  15  16
ENDBRANCH  14  15
ENDBRANCH  13  14
ENDBRANCH  12  13
ENDBRANCH   9  12
ENDBRANCH   8   9
ENDBRANCH   7   8
ENDBRANCH   6   7
ENDBRANCH   5   6
ENDBRANCH   4   5
ENDBRANCH   3   4
ENDBRANCH   2   3
TORSDOF 14
ENDMDL
MODEL      306
REMARK 921   NORMALIZED FREE ENERGY PREDICTED BY IDOCK:   -2.21 KCAL/MOL
REMARK 922        TOTAL FREE ENERGY PREDICTED BY IDOCK:   -5.75 KCAL/MOL
REMARK 923 INTER-LIGAND FREE ENERGY PREDICTED BY IDOCK:   -4.36 KCAL/MOL
REMARK 924 INTRA-LIGAND FREE ENERGY PREDICTED BY IDOCK:   -1.39 KCAL/MOL
REMARK 927      BINDING AFFINITY PREDICTED BY RF-SCORE:    0.00 PKD
ROOT
HETATM    1  C   UNL     1      -7.570  20.699  67.119  1.00  0.00    -0.364 C  
HETATM    2  C   UNL     1      -7.692  19.744  68.295  1.00  0.00    -0.334 C  
ENDROOT
BRANCH   2   3
HETATM    3  C   UNL     1      -6.341  19.518  68.962  1.00  0.00    -0.321 C  
BRANCH   3   4
HETATM    4  C   UNL     1      -6.134  18.044  69.310  1.00  0.00    -0.239 C  
BRANCH   4   5
HETATM    5  C   UNL     1      -7.236  17.199  68.688  1.00  0.00    -0.229 C  
BRANCH   5   6
HETATM    6  C   UNL     1      -7.409  15.858  69.402  1.00  0.00    -0.217 C  
BRANCH   6   7
HETATM    7  C   UNL     1      -6.291  14.918  68.962  1.00  0.00    -0.099 C  
BRANCH   7   8
HETATM    8  C   UNL     1      -6.282  13.614  69.753  1.00  0.00    -0.120 C  
BRANCH   8   9
HETATM    9  N   UNL     1      -6.240  12.354  68.841  1.00  0.00    -0.073 N  
HETATM   10  C   UNL     1      -5.480  12.662  67.551  1.00  0.00    -0.110 C  
HETATM   11  C   UNL     1      -5.565  11.195  69.576  1.00  0.00    -0.045 C  
BRANCH   9  12
HETATM   12  C   UNL     1      -7.719  11.997  68.523  1.00  0.00    -0.127 C  
BRANCH  12  13
HETATM   13  C   UNL     1      -8.095  12.274  67.070  1.00  0.00    -0.141 C  
BRANCH  13  14
HETATM   14  C   UNL     1      -9.199  13.320  66.942  1.00  0.00    -0.242 C  
BRANCH  14  15
HETATM   15  C   UNL     1      -9.879  13.486  68.300  1.00  0.00    -0.233 C  
BRANCH  15  16
HETATM   16  C   UNL     1     -11.391  13.328  68.210  1.00  0.00    -0.335 C  
BRANCH  16  17
HETATM   17  C   UNL     1     -11.744  12.092  67.385  1.00  0.00    -0.374 C  
BRANCH  17  18
HETATM   18  C   UNL     1     -11.466  10.810  68.161  1.00  0.00    -0.346 C  
HETATM   19  C   UNL     1     -11.989  10.907  69.585  1.00  0.00    -0.414 C  
ENDBRANCH  17  18
ENDBRANCH  16  17
ENDBRANCH  15  16
ENDBRANCH  14  15
ENDBRANCH  13  14
ENDBRANCH  12  13
ENDBRANCH   9  12
ENDBRANCH   8   9
ENDBRANCH   7   8
ENDBRANCH   6   7
ENDBRANCH   5   6
ENDBRANCH   4   5
ENDBRANCH   3   4
ENDBRANCH   2   3
TORSDOF 14
ENDMDL
MODEL      307
REMARK 921   NORMALIZED FREE ENERGY PREDICTED BY IDOCK:   -2.21 KCAL/MOL
REMARK 922        TOTAL FREE ENERGY PREDICTED BY IDOCK:   -5.75 KCAL/MOL
REMARK 923 INTER-LIGAND FREE ENERGY PREDICTED BY IDOCK:   -4.95 KCAL/MOL
REMARK 924 INTRA-LIGAND FREE ENERGY PREDICTED BY IDOCK:   -0.79 KCAL/MOL
REMARK 927      BINDING AFFINITY PREDICTED BY RF-SCORE:    0.00 PKD
ROOT
HETATM    1  C   UNL     1     -10.435  15.833  69.779  1.00  0.00    -0.318 C  
HETATM    2  C   UNL     1     -11.805  15.261  69.450  1.00  0.00    -0.367 C  
ENDROOT
BRANCH   2   3
HETATM    3  C   UNL     1     -11.907  14.894  67.974  1.00  0.00    -0.296 C  
BRANCH   3   4
HETATM    4  C   UNL     1     -10.736  15.468  67.178  1.00  0.00    -0.315 C  
BRANCH   4   5
HETATM    5  C   UNL     1     -10.079  14.374  66.350  1.00  0.00    -0.294 C  
BRANCH   5   6
HETATM    6  C   UNL     1      -8.820  13.821  67.017  1.00  0.00    -0.230 C  
BRANCH   6   7
HETATM    7  C   UNL     1      -9.204  12.618  67.871  1.00  0.00    -0.201 C  
BRANCH   7   8
HETATM    8  C   UNL     1      -9.743  11.459  67.037  1.00  0.00    -0.190 C  
BRANCH   8   9
HETATM    9  N   UNL     1      -9.267  10.071  67.552  1.00  0.00    -0.137 N  
HETATM   10  C   UNL     1     -10.039   8.955  66.848  1.00  0.00    -0.273 C  
HETATM   11  C   UNL     1      -7.768   9.902  67.301  1.00  0.00    -0.095 C  
BRANCH   9  12
HETATM   12  C   UNL     1      -9.561  10.048  69.079  1.00  0.00    -0.196 C  
BRANCH  12  13
HETATM   13  C   UNL     1     -10.370   8.829  69.508  1.00  0.00    -0.213 C  
BRANCH  13  14
HETATM   14  C   UNL     1      -9.618   7.951  70.505  1.00  0.00    -0.170 C  
BRANCH  14  15
HETATM   15  C   UNL     1      -9.957   8.414  71.921  1.00  0.00    -0.331 C  
BRANCH  15  16
HETATM   16  C   UNL     1     -11.153   7.671  72.500  1.00  0.00    -0.388 C  
BRANCH  16  17
HETATM   17  C   UNL     1     -11.034   6.175  72.212  1.00  0.00    -0.302 C  
BRANCH  17  18
HETATM   18  C   UNL     1     -10.442   5.427  73.400  1.00  0.00    -0.269 C  
HETATM   19  C   UNL     1      -9.989   6.391  74.485  1.00  0.00    -0.370 C  
ENDBRANCH  17  18
ENDBRANCH  16  17
ENDBRANCH  15  16
ENDBRANCH  14  15
ENDBRANCH  13  14
ENDBRANCH  12  13
ENDBRANCH   9  12
ENDBRANCH   8   9
ENDBRANCH   7   8
ENDBRANCH   6   7
ENDBRANCH   5   6
ENDBRANCH   4   5
ENDBRANCH   3   4
ENDBRANCH   2   3
TORSDOF 14
ENDMDL
MODEL      308
REMARK 921   NORMALIZED FREE ENERGY PREDICTED BY IDOCK:   -2.19 KCAL/MOL
REMARK 922        TOTAL FREE ENERGY PREDICTED BY IDOCK:   -5.72 KCAL/MOL
REMARK 923 INTER-LIGAND FREE ENERGY PREDICTED BY IDOCK:   -4.88 KCAL/MOL
REMARK 924 INTRA-LIGAND FREE ENERGY PREDICTED BY IDOCK:   -0.84 KCAL/MOL
REMARK 927      BINDING AFFINITY PREDICTED BY RF-SCORE:    0.00 PKD
ROOT
HETATM    1  C   UNL     1     -10.373  19.656  67.430  1.00  0.00    -0.581 C  
HETATM    2  C   UNL     1     -10.703  18.175  67.335  1.00  0.00    -0.355 C  
ENDROOT
BRANCH   2   3
HETATM    3  C   UNL     1      -9.671  17.334  68.077  1.00  0.00    -0.277 C  
BRANCH   3   4
HETATM    4  C   UNL     1      -9.985  15.843  67.962  1.00  0.00    -0.220 C  
BRANCH   4   5
HETATM    5  C   UNL     1     -11.327  15.538  68.610  1.00  0.00    -0.348 C  
BRANCH   5   6
HETATM    6  C   UNL     1     -12.157  14.553  67.787  1.00  0.00    -0.269 C  
BRANCH   6   7
HETATM    7  C   UNL     1     -11.314  14.062  66.613  1.00  0.00    -0.345 C  
BRANCH   7   8
HETATM    8  C   UNL     1     -11.751  12.686  66.119  1.00  0.00    -0.406 C  
BRANCH   8   9
HETATM    9  N   UNL     1     -10.635  11.612  66.259  1.00  0.00    -0.249 N  
HETATM   10  C   UNL     1     -10.627  10.696  65.035  1.00  0.00    -0.117 C  
HETATM   11  C   UNL     1      -9.271  12.287  66.411  1.00  0.00    -0.203 C  
BRANCH   9  12
HETATM   12  C   UNL     1     -10.973  10.796  67.539  1.00  0.00    -0.312 C  
BRANCH  12  13
HETATM   13  C   UNL     1     -10.524   9.341  67.449  1.00  0.00    -0.340 C  
BRANCH  13  14
HETATM   14  C   UNL     1     -10.259   8.726  68.822  1.00  0.00    -0.224 C  
BRANCH  14  15
HETATM   15  C   UNL     1      -8.797   8.969  69.195  1.00  0.00    -0.142 C  
BRANCH  15  16
HETATM   16  C   UNL     1      -7.924   7.752  68.924  1.00  0.00    -0.124 C  
BRANCH  16  17
HETATM   17  C   UNL     1      -8.741   6.471  69.079  1.00  0.00    -0.128 C  
BRANCH  17  18
HETATM   18  C   UNL     1      -8.008   5.447  69.938  1.00  0.00    -0.081 C  
HETATM   19  C   UNL     1      -8.964   4.740  70.885  1.00  0.00    -0.160 C  
ENDBRANCH  17  18
ENDBRANCH  16  17
ENDBRANCH  15  16
ENDBRANCH  14  15
ENDBRANCH  13  14
ENDBRANCH  12  13
ENDBRANCH   9  12
ENDBRANCH   8   9
ENDBRANCH   7   8
ENDBRANCH   6   7
ENDBRANCH   5   6
ENDBRANCH   4   5
ENDBRANCH   3   4
ENDBRANCH   2   3
TORSDOF 14
ENDMDL
MODEL      309
REMARK 921   NORMALIZED FREE ENERGY PREDICTED BY IDOCK:   -2.19 KCAL/MOL
REMARK 922        TOTAL FREE ENERGY PREDICTED BY IDOCK:   -5.72 KCAL/MOL
REMARK 923 INTER-LIGAND FREE ENERGY PREDICTED BY IDOCK:   -4.86 KCAL/MOL
REMARK 924 INTRA-LIGAND FREE ENERGY PREDICTED BY IDOCK:   -0.86 KCAL/MOL
REMARK 927      BINDING AFFINITY PREDICTED BY RF-SCORE:    0.00 PKD
ROOT
HETATM    1  C   UNL     1     -12.087  12.532  63.275  1.00  0.00    -0.525 C  
HETATM    2  C   UNL     1     -12.676  12.653  64.671  1.00  0.00    -0.458 C  
ENDROOT
BRANCH   2   3
HETATM    3  C   UNL     1     -12.524  14.070  65.210  1.00  0.00    -0.495 C  
BRANCH   3   4
HETATM    4  C   UNL     1     -12.198  14.063  66.704  1.00  0.00    -0.463 C  
BRANCH   4   5
HETATM    5  C   UNL     1     -10.695  14.176  66.913  1.00  0.00    -0.286 C  
BRANCH   5   6
HETATM    6  C   UNL     1     -10.268  13.701  68.302  1.00  0.00    -0.243 C  
BRANCH   6   7
HETATM    7  C   UNL     1      -9.089  12.744  68.153  1.00  0.00    -0.203 C  
BRANCH   7   8
HETATM    8  C   UNL     1      -8.773  12.432  66.693  1.00  0.00    -0.119 C  
BRANCH   8   9
HETATM    9  N   UNL     1      -8.845  10.913  66.370  1.00  0.00    -0.165 N  
HETATM   10  C   UNL     1      -9.563  10.690  65.038  1.00  0.00    -0.265 C  
HETATM   11  C   UNL     1      -7.436  10.321  66.304  1.00  0.00    -0.118 C  
BRANCH   9  12
HETATM   12  C   UNL     1      -9.647  10.258  67.529  1.00  0.00    -0.156 C  
BRANCH  12  13
HETATM   13  C   UNL     1      -9.174   8.844  67.851  1.00  0.00    -0.148 C  
BRANCH  13  14
HETATM   14  C   UNL     1     -10.264   7.798  67.624  1.00  0.00    -0.282 C  
BRANCH  14  15
HETATM   15  C   UNL     1      -9.602   6.440  67.399  1.00  0.00    -0.133 C  
BRANCH  15  16
HETATM   16  C   UNL     1     -10.621   5.314  67.286  1.00  0.00    -0.200 C  
BRANCH  16  17
HETATM   17  C   UNL     1     -10.507   4.633  65.923  1.00  0.00    -0.305 C  
BRANCH  17  18
HETATM   18  C   UNL     1      -9.092   4.746  65.365  1.00  0.00    -0.154 C  
HETATM   19  C   UNL     1      -9.024   4.227  63.938  1.00  0.00    -0.141 C  
ENDBRANCH  17  18
ENDBRANCH  16  17
ENDBRANCH  15  16
ENDBRANCH  14  15
ENDBRANCH  13  14
ENDBRANCH  12  13
ENDBRANCH   9  12
ENDBRANCH   8   9
ENDBRANCH   7   8
ENDBRANCH   6   7
ENDBRANCH   5   6
ENDBRANCH   4   5
ENDBRANCH   3   4
ENDBRANCH   2   3
TORSDOF 14
ENDMDL
MODEL      310
REMARK 921   NORMALIZED FREE ENERGY PREDICTED BY IDOCK:   -2.17 KCAL/MOL
REMARK 922        TOTAL FREE ENERGY PREDICTED BY IDOCK:   -5.68 KCAL/MOL
REMARK 923 INTER-LIGAND FREE ENERGY PREDICTED BY IDOCK:   -4.15 KCAL/MOL
REMARK 924 INTRA-LIGAND FREE ENERGY PREDICTED BY IDOCK:   -1.53 KCAL/MOL
REMARK 927      BINDING AFFINITY PREDICTED BY RF-SCORE:    0.00 PKD
ROOT
HETATM    1  C   UNL     1      -6.858   2.172  74.293  1.00  0.00    -0.023 C  
HETATM    2  C   UNL     1      -6.945   3.681  74.130  1.00  0.00    -0.051 C  
ENDROOT
BRANCH   2   3
HETATM    3  C   UNL     1      -7.427   4.055  72.733  1.00  0.00    -0.073 C  
BRANCH   3   4
HETATM    4  C   UNL     1      -8.421   5.215  72.782  1.00  0.00    -0.113 C  
BRANCH   4   5
HETATM    5  C   UNL     1      -9.679   4.860  72.003  1.00  0.00    -0.219 C  
BRANCH   5   6
HETATM    6  C   UNL     1      -9.387   3.928  70.827  1.00  0.00    -0.214 C  
BRANCH   6   7
HETATM    7  C   UNL     1      -9.843   4.607  69.538  1.00  0.00    -0.286 C  
BRANCH   7   8
HETATM    8  C   UNL     1      -8.842   5.647  69.042  1.00  0.00    -0.106 C  
BRANCH   8   9
HETATM    9  N   UNL     1      -9.413   6.539  67.903  1.00  0.00    -0.121 N  
HETATM   10  C   UNL     1      -8.887   6.065  66.548  1.00  0.00    -0.131 C  
HETATM   11  C   UNL     1     -10.941   6.490  67.912  1.00  0.00    -0.294 C  
BRANCH   9  12
HETATM   12  C   UNL     1      -8.922   7.985  68.195  1.00  0.00    -0.135 C  
BRANCH  12  13
HETATM   13  C   UNL     1      -8.911   8.317  69.684  1.00  0.00    -0.149 C  
BRANCH  13  14
HETATM   14  C   UNL     1      -9.525   9.683  69.982  1.00  0.00    -0.277 C  
BRANCH  14  15
HETATM   15  C   UNL     1     -10.509   9.537  71.142  1.00  0.00    -0.358 C  
BRANCH  15  16
HETATM   16  C   UNL     1     -10.334   8.219  71.884  1.00  0.00    -0.324 C  
BRANCH  16  17
HETATM   17  C   UNL     1     -11.686   7.704  72.372  1.00  0.00    -0.366 C  
BRANCH  17  18
HETATM   18  C   UNL     1     -12.496   7.102  71.229  1.00  0.00    -0.425 C  
HETATM   19  C   UNL     1     -13.988   7.262  71.471  1.00  0.00    -0.486 C  
ENDBRANCH  17  18
ENDBRANCH  16  17
ENDBRANCH  15  16
ENDBRANCH  14  15
ENDBRANCH  13  14
ENDBRANCH  12  13
ENDBRANCH   9  12
ENDBRANCH   8   9
ENDBRANCH   7   8
ENDBRANCH   6   7
ENDBRANCH   5   6
ENDBRANCH   4   5
ENDBRANCH   3   4
ENDBRANCH   2   3
TORSDOF 14
ENDMDL
MODEL      311
REMARK 921   NORMALIZED FREE ENERGY PREDICTED BY IDOCK:   -2.16 KCAL/MOL
REMARK 922        TOTAL FREE ENERGY PREDICTED BY IDOCK:   -5.67 KCAL/MOL
REMARK 923 INTER-LIGAND FREE ENERGY PREDICTED BY IDOCK:   -4.73 KCAL/MOL
REMARK 924 INTRA-LIGAND FREE ENERGY PREDICTED BY IDOCK:   -0.94 KCAL/MOL
REMARK 927      BINDING AFFINITY PREDICTED BY RF-SCORE:    0.00 PKD
ROOT
HETATM    1  C   UNL     1      -7.537   6.000  73.805  1.00  0.00    -0.095 C  
HETATM    2  C   UNL     1      -9.041   5.949  73.589  1.00  0.00    -0.127 C  
ENDROOT
BRANCH   2   3
HETATM    3  C   UNL     1      -9.644   7.348  73.592  1.00  0.00    -0.337 C  
BRANCH   3   4
HETATM    4  C   UNL     1      -8.793   8.320  72.775  1.00  0.00    -0.310 C  
BRANCH   4   5
HETATM    5  C   UNL     1      -9.393   8.504  71.388  1.00  0.00    -0.274 C  
BRANCH   5   6
HETATM    6  C   UNL     1      -8.537   7.860  70.298  1.00  0.00    -0.137 C  
BRANCH   6   7
HETATM    7  C   UNL     1      -8.482   8.799  69.097  1.00  0.00    -0.123 C  
BRANCH   7   8
HETATM    8  C   UNL     1      -9.130  10.150  69.384  1.00  0.00    -0.203 C  
BRANCH   8   9
HETATM    9  N   UNL     1     -10.227  10.527  68.348  1.00  0.00    -0.165 N  
HETATM   10  C   UNL     1     -10.660   9.288  67.564  1.00  0.00    -0.262 C  
HETATM   11  C   UNL     1     -11.435  11.138  69.060  1.00  0.00    -0.296 C  
BRANCH   9  12
HETATM   12  C   UNL     1      -9.584  11.571  67.392  1.00  0.00    -0.168 C  
BRANCH  12  13
HETATM   13  C   UNL     1     -10.571  12.123  66.369  1.00  0.00    -0.275 C  
BRANCH  13  14
HETATM   14  C   UNL     1     -10.041  13.367  65.659  1.00  0.00    -0.285 C  
BRANCH  14  15
HETATM   15  C   UNL     1     -10.760  14.594  66.216  1.00  0.00    -0.316 C  
BRANCH  15  16
HETATM   16  C   UNL     1     -11.942  14.218  67.099  1.00  0.00    -0.449 C  
BRANCH  16  17
HETATM   17  C   UNL     1     -11.748  14.777  68.508  1.00  0.00    -0.347 C  
BRANCH  17  18
HETATM   18  C   UNL     1     -11.030  16.121  68.476  1.00  0.00    -0.338 C  
HETATM   19  C   UNL     1      -9.923  16.176  69.516  1.00  0.00    -0.222 C  
ENDBRANCH  17  18
ENDBRANCH  16  17
ENDBRANCH  15  16
ENDBRANCH  14  15
ENDBRANCH  13  14
ENDBRANCH  12  13
ENDBRANCH   9  12
ENDBRANCH   8   9
ENDBRANCH   7   8
ENDBRANCH   6   7
ENDBRANCH   5   6
ENDBRANCH   4   5
ENDBRANCH   3   4
ENDBRANCH   2   3
TORSDOF 14
ENDMDL
MODEL      312
REMARK 921   NORMALIZED FREE ENERGY PREDICTED BY IDOCK:   -2.15 KCAL/MOL
REMARK 922        TOTAL FREE ENERGY PREDICTED BY IDOCK:   -5.64 KCAL/MOL
REMARK 923 INTER-LIGAND FREE ENERGY PREDICTED BY IDOCK:   -4.26 KCAL/MOL
REMARK 924 INTRA-LIGAND FREE ENERGY PREDICTED BY IDOCK:   -1.39 KCAL/MOL
REMARK 927      BINDING AFFINITY PREDICTED BY RF-SCORE:    0.00 PKD
ROOT
HETATM    1  C   UNL     1     -13.228   7.616  71.542  1.00  0.00    -0.380 C  
HETATM    2  C   UNL     1     -13.532   8.960  72.184  1.00  0.00    -0.497 C  
ENDROOT
BRANCH   2   3
HETATM    3  C   UNL     1     -12.566  10.033  71.696  1.00  0.00    -0.524 C  
BRANCH   3   4
HETATM    4  C   UNL     1     -11.137   9.498  71.616  1.00  0.00    -0.336 C  
BRANCH   4   5
HETATM    5  C   UNL     1     -10.445  10.035  70.372  1.00  0.00    -0.304 C  
BRANCH   5   6
HETATM    6  C   UNL     1      -8.986   9.587  70.283  1.00  0.00    -0.288 C  
BRANCH   6   7
HETATM    7  C   UNL     1      -8.378  10.145  69.000  1.00  0.00    -0.138 C  
BRANCH   7   8
HETATM    8  C   UNL     1      -9.403  10.879  68.141  1.00  0.00    -0.165 C  
BRANCH   8   9
HETATM    9  N   UNL     1      -9.436  10.369  66.672  1.00  0.00    -0.161 N  
HETATM   10  C   UNL     1     -10.501  11.124  65.876  1.00  0.00    -0.253 C  
HETATM   11  C   UNL     1      -8.067  10.561  66.017  1.00  0.00    -0.148 C  
BRANCH   9  12
HETATM   12  C   UNL     1      -9.789   8.857  66.743  1.00  0.00    -0.241 C  
BRANCH  12  13
HETATM   13  C   UNL     1      -8.816   7.985  65.956  1.00  0.00    -0.196 C  
BRANCH  13  14
HETATM   14  C   UNL     1      -8.557   6.641  66.634  1.00  0.00    -0.123 C  
BRANCH  14  15
HETATM   15  C   UNL     1      -7.338   6.777  67.545  1.00  0.00    -0.096 C  
BRANCH  15  16
HETATM   16  C   UNL     1      -7.689   6.565  69.012  1.00  0.00    -0.109 C  
BRANCH  16  17
HETATM   17  C   UNL     1      -8.047   5.101  69.262  1.00  0.00    -0.084 C  
BRANCH  17  18
HETATM   18  C   UNL     1      -7.984   4.761  70.747  1.00  0.00    -0.081 C  
HETATM   19  C   UNL     1      -8.537   5.896  71.593  1.00  0.00    -0.132 C  
ENDBRANCH  17  18
ENDBRANCH  16  17
ENDBRANCH  15  16
ENDBRANCH  14  15
ENDBRANCH  13  14
ENDBRANCH  12  13
ENDBRANCH   9  12
ENDBRANCH   8   9
ENDBRANCH   7   8
ENDBRANCH   6   7
ENDBRANCH   5   6
ENDBRANCH   4   5
ENDBRANCH   3   4
ENDBRANCH   2   3
TORSDOF 14
ENDMDL
MODEL      313
REMARK 921   NORMALIZED FREE ENERGY PREDICTED BY IDOCK:   -2.14 KCAL/MOL
REMARK 922        TOTAL FREE ENERGY PREDICTED BY IDOCK:   -5.63 KCAL/MOL
REMARK 923 INTER-LIGAND FREE ENERGY PREDICTED BY IDOCK:   -4.52 KCAL/MOL
REMARK 924 INTRA-LIGAND FREE ENERGY PREDICTED BY IDOCK:   -1.11 KCAL/MOL
REMARK 927      BINDING AFFINITY PREDICTED BY RF-SCORE:    0.00 PKD
ROOT
HETATM    1  C   UNL     1      -8.276  17.720  66.605  1.00  0.00    -0.287 C  
HETATM    2  C   UNL     1      -8.900  17.834  67.986  1.00  0.00    -0.259 C  
ENDROOT
BRANCH   2   3
HETATM    3  C   UNL     1      -9.508  16.507  68.426  1.00  0.00    -0.223 C  
BRANCH   3   4
HETATM    4  C   UNL     1      -8.423  15.483  68.755  1.00  0.00    -0.190 C  
BRANCH   4   5
HETATM    5  C   UNL     1      -8.628  14.218  67.934  1.00  0.00    -0.171 C  
BRANCH   5   6
HETATM    6  C   UNL     1      -9.977  14.209  67.215  1.00  0.00    -0.249 C  
BRANCH   6   7
HETATM    7  C   UNL     1     -10.099  12.914  66.417  1.00  0.00    -0.272 C  
BRANCH   7   8
HETATM    8  C   UNL     1      -9.045  11.884  66.813  1.00  0.00    -0.197 C  
BRANCH   8   9
HETATM    9  N   UNL     1      -9.568  10.422  66.730  1.00  0.00    -0.167 N  
HETATM   10  C   UNL     1     -11.014  10.350  67.222  1.00  0.00    -0.240 C  
HETATM   11  C   UNL     1      -9.486   9.914  65.290  1.00  0.00    -0.268 C  
BRANCH   9  12
HETATM   12  C   UNL     1      -8.644   9.576  67.651  1.00  0.00    -0.122 C  
BRANCH  12  13
HETATM   13  C   UNL     1      -7.580  10.414  68.352  1.00  0.00    -0.093 C  
BRANCH  13  14
HETATM   14  C   UNL     1      -7.530  10.154  69.856  1.00  0.00    -0.176 C  
BRANCH  14  15
HETATM   15  C   UNL     1      -8.913   9.703  70.323  1.00  0.00    -0.263 C  
BRANCH  15  16
HETATM   16  C   UNL     1      -8.837   8.569  71.336  1.00  0.00    -0.253 C  
BRANCH  16  17
HETATM   17  C   UNL     1     -10.063   8.591  72.246  1.00  0.00    -0.386 C  
BRANCH  17  18
HETATM   18  C   UNL     1     -11.238   7.856  71.612  1.00  0.00    -0.292 C  
HETATM   19  C   UNL     1     -12.564   8.394  72.126  1.00  0.00    -0.412 C  
ENDBRANCH  17  18
ENDBRANCH  16  17
ENDBRANCH  15  16
ENDBRANCH  14  15
ENDBRANCH  13  14
ENDBRANCH  12  13
ENDBRANCH   9  12
ENDBRANCH   8   9
ENDBRANCH   7   8
ENDBRANCH   6   7
ENDBRANCH   5   6
ENDBRANCH   4   5
ENDBRANCH   3   4
ENDBRANCH   2   3
TORSDOF 14
ENDMDL
MODEL      314
REMARK 921   NORMALIZED FREE ENERGY PREDICTED BY IDOCK:   -2.14 KCAL/MOL
REMARK 922        TOTAL FREE ENERGY PREDICTED BY IDOCK:   -5.62 KCAL/MOL
REMARK 923 INTER-LIGAND FREE ENERGY PREDICTED BY IDOCK:   -4.93 KCAL/MOL
REMARK 924 INTRA-LIGAND FREE ENERGY PREDICTED BY IDOCK:   -0.69 KCAL/MOL
REMARK 927      BINDING AFFINITY PREDICTED BY RF-SCORE:    0.00 PKD
ROOT
HETATM    1  C   UNL     1     -10.827  13.657  64.344  1.00  0.00    -0.374 C  
HETATM    2  C   UNL     1     -10.157  13.849  65.695  1.00  0.00    -0.332 C  
ENDROOT
BRANCH   2   3
HETATM    3  C   UNL     1     -10.570  15.172  66.330  1.00  0.00    -0.312 C  
BRANCH   3   4
HETATM    4  C   UNL     1     -11.661  14.966  67.380  1.00  0.00    -0.347 C  
BRANCH   4   5
HETATM    5  C   UNL     1     -11.945  13.482  67.558  1.00  0.00    -0.385 C  
BRANCH   5   6
HETATM    6  C   UNL     1     -11.589  12.989  68.960  1.00  0.00    -0.367 C  
BRANCH   6   7
HETATM    7  C   UNL     1     -10.555  11.873  68.842  1.00  0.00    -0.205 C  
BRANCH   7   8
HETATM    8  C   UNL     1     -11.191  10.486  68.869  1.00  0.00    -0.266 C  
BRANCH   8   9
HETATM    9  N   UNL     1     -10.470   9.510  69.843  1.00  0.00    -0.223 N  
HETATM   10  C   UNL     1      -8.962   9.756  69.816  1.00  0.00    -0.221 C  
HETATM   11  C   UNL     1     -11.001   9.700  71.265  1.00  0.00    -0.329 C  
BRANCH   9  12
HETATM   12  C   UNL     1     -10.791   8.075  69.339  1.00  0.00    -0.094 C  
BRANCH  12  13
HETATM   13  C   UNL     1     -10.919   7.064  70.474  1.00  0.00    -0.297 C  
BRANCH  13  14
HETATM   14  C   UNL     1     -10.652   5.633  70.014  1.00  0.00    -0.388 C  
BRANCH  14  15
HETATM   15  C   UNL     1      -9.142   5.398  69.991  1.00  0.00    -0.160 C  
BRANCH  15  16
HETATM   16  C   UNL     1      -8.622   4.869  71.320  1.00  0.00    -0.132 C  
BRANCH  16  17
HETATM   17  C   UNL     1      -9.602   3.853  71.904  1.00  0.00    -0.217 C  
BRANCH  17  18
HETATM   18  C   UNL     1     -10.015   4.233  73.322  1.00  0.00    -0.184 C  
HETATM   19  C   UNL     1      -8.954   3.823  74.330  1.00  0.00    -0.098 C  
ENDBRANCH  17  18
ENDBRANCH  16  17
ENDBRANCH  15  16
ENDBRANCH  14  15
ENDBRANCH  13  14
ENDBRANCH  12  13
ENDBRANCH   9  12
ENDBRANCH   8   9
ENDBRANCH   7   8
ENDBRANCH   6   7
ENDBRANCH   5   6
ENDBRANCH   4   5
ENDBRANCH   3   4
ENDBRANCH   2   3
TORSDOF 14
ENDMDL
MODEL      315
REMARK 921   NORMALIZED FREE ENERGY PREDICTED BY IDOCK:   -2.13 KCAL/MOL
REMARK 922        TOTAL FREE ENERGY PREDICTED BY IDOCK:   -5.62 KCAL/MOL
REMARK 923 INTER-LIGAND FREE ENERGY PREDICTED BY IDOCK:   -4.13 KCAL/MOL
REMARK 924 INTRA-LIGAND FREE ENERGY PREDICTED BY IDOCK:   -1.48 KCAL/MOL
REMARK 927      BINDING AFFINITY PREDICTED BY RF-SCORE:    0.00 PKD
ROOT
HETATM    1  C   UNL     1      -7.634   6.380  63.143  1.00  0.00    -0.079 C  
HETATM    2  C   UNL     1      -7.946   7.717  63.796  1.00  0.00    -0.101 C  
ENDROOT
BRANCH   2   3
HETATM    3  C   UNL     1      -6.972   8.794  63.332  1.00  0.00    -0.089 C  
BRANCH   3   4
HETATM    4  C   UNL     1      -7.701  10.098  63.010  1.00  0.00    -0.149 C  
BRANCH   4   5
HETATM    5  C   UNL     1      -9.179   9.971  63.350  1.00  0.00    -0.317 C  
BRANCH   5   6
HETATM    6  C   UNL     1      -9.830  11.329  63.613  1.00  0.00    -0.377 C  
BRANCH   6   7
HETATM    7  C   UNL     1     -10.382  11.342  65.035  1.00  0.00    -0.342 C  
BRANCH   7   8
HETATM    8  C   UNL     1     -10.116  10.035  65.775  1.00  0.00    -0.250 C  
BRANCH   8   9
HETATM    9  N   UNL     1     -10.069  10.213  67.319  1.00  0.00    -0.195 N  
HETATM   10  C   UNL     1      -8.744  10.851  67.736  1.00  0.00    -0.129 C  
HETATM   11  C   UNL     1     -11.234  11.088  67.784  1.00  0.00    -0.308 C  
BRANCH   9  12
HETATM   12  C   UNL     1     -10.195   8.788  67.927  1.00  0.00    -0.219 C  
BRANCH  12  13
HETATM   13  C   UNL     1      -9.955   7.684  66.901  1.00  0.00    -0.325 C  
BRANCH  13  14
HETATM   14  C   UNL     1     -11.014   6.586  66.967  1.00  0.00    -0.466 C  
BRANCH  14  15
HETATM   15  C   UNL     1     -10.364   5.253  66.599  1.00  0.00    -0.330 C  
BRANCH  15  16
HETATM   16  C   UNL     1      -9.450   4.734  67.700  1.00  0.00    -0.176 C  
BRANCH  16  17
HETATM   17  C   UNL     1      -8.270   3.977  67.094  1.00  0.00    -0.099 C  
BRANCH  17  18
HETATM   18  C   UNL     1      -8.556   3.567  65.654  1.00  0.00    -0.115 C  
HETATM   19  C   UNL     1      -7.297   3.064  64.967  1.00  0.00    -0.071 C  
ENDBRANCH  17  18
ENDBRANCH  16  17
ENDBRANCH  15  16
ENDBRANCH  14  15
ENDBRANCH  13  14
ENDBRANCH  12  13
ENDBRANCH   9  12
ENDBRANCH   8   9
ENDBRANCH   7   8
ENDBRANCH   6   7
ENDBRANCH   5   6
ENDBRANCH   4   5
ENDBRANCH   3   4
ENDBRANCH   2   3
TORSDOF 14
ENDMDL
MODEL      316
REMARK 921   NORMALIZED FREE ENERGY PREDICTED BY IDOCK:   -2.13 KCAL/MOL
REMARK 922        TOTAL FREE ENERGY PREDICTED BY IDOCK:   -5.61 KCAL/MOL
REMARK 923 INTER-LIGAND FREE ENERGY PREDICTED BY IDOCK:   -4.39 KCAL/MOL
REMARK 924 INTRA-LIGAND FREE ENERGY PREDICTED BY IDOCK:   -1.22 KCAL/MOL
REMARK 927      BINDING AFFINITY PREDICTED BY RF-SCORE:    0.00 PKD
ROOT
HETATM    1  C   UNL     1     -10.036  11.629  63.449  1.00  0.00    -0.468 C  
HETATM    2  C   UNL     1      -9.624  10.274  64.002  1.00  0.00    -0.365 C  
ENDROOT
BRANCH   2   3
HETATM    3  C   UNL     1     -10.005  10.142  65.472  1.00  0.00    -0.363 C  
BRANCH   3   4
HETATM    4  C   UNL     1      -9.511   8.819  66.055  1.00  0.00    -0.302 C  
BRANCH   4   5
HETATM    5  C   UNL     1     -10.505   8.294  67.081  1.00  0.00    -0.386 C  
BRANCH   5   6
HETATM    6  C   UNL     1     -10.713   6.784  66.965  1.00  0.00    -0.435 C  
BRANCH   6   7
HETATM    7  C   UNL     1     -10.935   6.210  68.361  1.00  0.00    -0.391 C  
BRANCH   7   8
HETATM    8  C   UNL     1      -9.899   6.705  69.366  1.00  0.00    -0.151 C  
BRANCH   8   9
HETATM    9  N   UNL     1      -9.123   5.546  70.054  1.00  0.00    -0.133 N  
HETATM   10  C   UNL     1      -9.897   4.235  69.912  1.00  0.00    -0.197 C  
HETATM   11  C   UNL     1      -7.735   5.398  69.429  1.00  0.00    -0.085 C  
BRANCH   9  12
HETATM   12  C   UNL     1      -8.996   5.936  71.554  1.00  0.00    -0.143 C  
BRANCH  12  13
HETATM   13  C   UNL     1      -9.742   7.222  71.895  1.00  0.00    -0.171 C  
BRANCH  13  14
HETATM   14  C   UNL     1      -8.832   8.276  72.522  1.00  0.00    -0.297 C  
BRANCH  14  15
HETATM   15  C   UNL     1      -7.379   7.834  72.353  1.00  0.00    -0.094 C  
BRANCH  15  16
HETATM   16  C   UNL     1      -6.539   8.881  71.635  1.00  0.00    -0.070 C  
BRANCH  16  17
HETATM   17  C   UNL     1      -6.834   8.857  70.137  1.00  0.00    -0.042 C  
BRANCH  17  18
HETATM   18  C   UNL     1      -7.413  10.187  69.665  1.00  0.00    -0.147 C  
HETATM   19  C   UNL     1      -6.411  11.315  69.845  1.00  0.00    -0.142 C  
ENDBRANCH  17  18
ENDBRANCH  16  17
ENDBRANCH  15  16
ENDBRANCH  14  15
ENDBRANCH  13  14
ENDBRANCH  12  13
ENDBRANCH   9  12
ENDBRANCH   8   9
ENDBRANCH   7   8
ENDBRANCH   6   7
ENDBRANCH   5   6
ENDBRANCH   4   5
ENDBRANCH   3   4
ENDBRANCH   2   3
TORSDOF 14
ENDMDL
MODEL      317
REMARK 921   NORMALIZED FREE ENERGY PREDICTED BY IDOCK:   -2.13 KCAL/MOL
REMARK 922        TOTAL FREE ENERGY PREDICTED BY IDOCK:   -5.60 KCAL/MOL
REMARK 923 INTER-LIGAND FREE ENERGY PREDICTED BY IDOCK:   -4.51 KCAL/MOL
REMARK 924 INTRA-LIGAND FREE ENERGY PREDICTED BY IDOCK:   -1.10 KCAL/MOL
REMARK 927      BINDING AFFINITY PREDICTED BY RF-SCORE:    0.00 PKD
ROOT
HETATM    1  C   UNL     1     -10.063  11.115  64.458  1.00  0.00    -0.364 C  
HETATM    2  C   UNL     1      -9.525  10.224  63.349  1.00  0.00    -0.340 C  
ENDROOT
BRANCH   2   3
HETATM    3  C   UNL     1      -8.024  10.418  63.168  1.00  0.00    -0.125 C  
BRANCH   3   4
HETATM    4  C   UNL     1      -7.258  10.018  64.428  1.00  0.00    -0.134 C  
BRANCH   4   5
HETATM    5  C   UNL     1      -7.492   8.547  64.740  1.00  0.00    -0.095 C  
BRANCH   5   6
HETATM    6  C   UNL     1      -7.554   8.276  66.243  1.00  0.00    -0.096 C  
BRANCH   6   7
HETATM    7  C   UNL     1      -8.978   7.870  66.611  1.00  0.00    -0.179 C  
BRANCH   7   8
HETATM    8  C   UNL     1      -9.121   7.528  68.091  1.00  0.00    -0.128 C  
BRANCH   8   9
HETATM    9  N   UNL     1      -9.252   6.000  68.348  1.00  0.00    -0.115 N  
HETATM   10  C   UNL     1     -10.072   5.346  67.236  1.00  0.00    -0.193 C  
HETATM   11  C   UNL     1      -7.866   5.357  68.416  1.00  0.00    -0.084 C  
BRANCH   9  12
HETATM   12  C   UNL     1      -9.980   5.848  69.713  1.00  0.00    -0.181 C  
BRANCH  12  13
HETATM   13  C   UNL     1     -11.457   6.227  69.641  1.00  0.00    -0.425 C  
BRANCH  13  14
HETATM   14  C   UNL     1     -11.915   7.021  70.862  1.00  0.00    -0.409 C  
BRANCH  14  15
HETATM   15  C   UNL     1     -11.693   6.172  72.113  1.00  0.00    -0.361 C  
BRANCH  15  16
HETATM   16  C   UNL     1     -10.953   6.935  73.203  1.00  0.00    -0.297 C  
BRANCH  16  17
HETATM   17  C   UNL     1     -10.392   8.241  72.644  1.00  0.00    -0.374 C  
BRANCH  17  18
HETATM   18  C   UNL     1      -8.872   8.283  72.756  1.00  0.00    -0.310 C  
HETATM   19  C   UNL     1      -8.407   7.772  74.109  1.00  0.00    -0.297 C  
ENDBRANCH  17  18
ENDBRANCH  16  17
ENDBRANCH  15  16
ENDBRANCH  14  15
ENDBRANCH  13  14
ENDBRANCH  12  13
ENDBRANCH   9  12
ENDBRANCH   8   9
ENDBRANCH   7   8
ENDBRANCH   6   7
ENDBRANCH   5   6
ENDBRANCH   4   5
ENDBRANCH   3   4
ENDBRANCH   2   3
TORSDOF 14
ENDMDL
MODEL      318
REMARK 921   NORMALIZED FREE ENERGY PREDICTED BY IDOCK:   -2.12 KCAL/MOL
REMARK 922        TOTAL FREE ENERGY PREDICTED BY IDOCK:   -5.60 KCAL/MOL
REMARK 923 INTER-LIGAND FREE ENERGY PREDICTED BY IDOCK:   -4.75 KCAL/MOL
REMARK 924 INTRA-LIGAND FREE ENERGY PREDICTED BY IDOCK:   -0.84 KCAL/MOL
REMARK 927      BINDING AFFINITY PREDICTED BY RF-SCORE:    0.00 PKD
ROOT
HETATM    1  C   UNL     1      -9.449  15.433  65.834  1.00  0.00    -0.369 C  
HETATM    2  C   UNL     1     -10.033  14.714  67.039  1.00  0.00    -0.246 C  
ENDROOT
BRANCH   2   3
HETATM    3  C   UNL     1     -11.555  14.676  66.971  1.00  0.00    -0.385 C  
BRANCH   3   4
HETATM    4  C   UNL     1     -12.160  14.276  68.316  1.00  0.00    -0.278 C  
BRANCH   4   5
HETATM    5  C   UNL     1     -11.197  13.377  69.078  1.00  0.00    -0.323 C  
BRANCH   5   6
HETATM    6  C   UNL     1     -11.820  12.025  69.425  1.00  0.00    -0.384 C  
BRANCH   6   7
HETATM    7  C   UNL     1     -11.481  11.030  68.319  1.00  0.00    -0.374 C  
BRANCH   7   8
HETATM    8  C   UNL     1     -10.873   9.740  68.862  1.00  0.00    -0.192 C  
BRANCH   8   9
HETATM    9  N   UNL     1      -9.695   9.215  67.992  1.00  0.00    -0.151 N  
HETATM   10  C   UNL     1     -10.212   8.747  66.631  1.00  0.00    -0.270 C  
HETATM   11  C   UNL     1      -8.651  10.316  67.799  1.00  0.00    -0.118 C  
BRANCH   9  12
HETATM   12  C   UNL     1      -9.076   8.021  68.772  1.00  0.00    -0.144 C  
BRANCH  12  13
HETATM   13  C   UNL     1     -10.104   7.263  69.606  1.00  0.00    -0.195 C  
BRANCH  13  14
HETATM   14  C   UNL     1      -9.738   7.223  71.088  1.00  0.00    -0.171 C  
BRANCH  14  15
HETATM   15  C   UNL     1     -11.025   7.208  71.912  1.00  0.00    -0.262 C  
BRANCH  15  16
HETATM   16  C   UNL     1     -11.361   5.816  72.430  1.00  0.00    -0.348 C  
BRANCH  16  17
HETATM   17  C   UNL     1     -10.079   5.037  72.718  1.00  0.00    -0.214 C  
BRANCH  17  18
HETATM   18  C   UNL     1     -10.024   3.743  71.915  1.00  0.00    -0.230 C  
HETATM   19  C   UNL     1      -8.847   2.882  72.342  1.00  0.00    -0.101 C  
ENDBRANCH  17  18
ENDBRANCH  16  17
ENDBRANCH  15  16
ENDBRANCH  14  15
ENDBRANCH  13  14
ENDBRANCH  12  13
ENDBRANCH   9  12
ENDBRANCH   8   9
ENDBRANCH   7   8
ENDBRANCH   6   7
ENDBRANCH   5   6
ENDBRANCH   4   5
ENDBRANCH   3   4
ENDBRANCH   2   3
TORSDOF 14
ENDMDL
MODEL      319
REMARK 921   NORMALIZED FREE ENERGY PREDICTED BY IDOCK:   -2.12 KCAL/MOL
REMARK 922        TOTAL FREE ENERGY PREDICTED BY IDOCK:   -5.59 KCAL/MOL
REMARK 923 INTER-LIGAND FREE ENERGY PREDICTED BY IDOCK:   -3.54 KCAL/MOL
REMARK 924 INTRA-LIGAND FREE ENERGY PREDICTED BY IDOCK:   -2.05 KCAL/MOL
REMARK 927      BINDING AFFINITY PREDICTED BY RF-SCORE:    0.00 PKD
ROOT
HETATM    1  C   UNL     1     -11.209  13.500  68.455  1.00  0.00    -0.309 C  
HETATM    2  C   UNL     1     -11.769  12.265  67.766  1.00  0.00    -0.403 C  
ENDROOT
BRANCH   2   3
HETATM    3  C   UNL     1     -11.181  10.991  68.360  1.00  0.00    -0.337 C  
BRANCH   3   4
HETATM    4  C   UNL     1     -10.816   9.987  67.267  1.00  0.00    -0.284 C  
BRANCH   4   5
HETATM    5  C   UNL     1     -10.410   8.659  67.890  1.00  0.00    -0.286 C  
BRANCH   5   6
HETATM    6  C   UNL     1     -10.705   7.475  66.970  1.00  0.00    -0.367 C  
BRANCH   6   7
HETATM    7  C   UNL     1      -9.476   6.573  66.919  1.00  0.00    -0.178 C  
BRANCH   7   8
HETATM    8  C   UNL     1      -8.172   7.361  67.012  1.00  0.00    -0.121 C  
BRANCH   8   9
HETATM    9  N   UNL     1      -7.512   7.603  65.624  1.00  0.00    -0.076 N  
HETATM   10  C   UNL     1      -5.994   7.460  65.730  1.00  0.00    -0.037 C  
HETATM   11  C   UNL     1      -8.057   6.604  64.601  1.00  0.00    -0.088 C  
BRANCH   9  12
HETATM   12  C   UNL     1      -7.889   9.053  65.210  1.00  0.00    -0.102 C  
BRANCH  12  13
HETATM   13  C   UNL     1      -6.852  10.082  65.649  1.00  0.00    -0.114 C  
BRANCH  13  14
HETATM   14  C   UNL     1      -7.348  10.957  66.797  1.00  0.00    -0.134 C  
BRANCH  14  15
HETATM   15  C   UNL     1      -6.659  10.513  68.087  1.00  0.00    -0.063 C  
BRANCH  15  16
HETATM   16  C   UNL     1      -7.584  10.598  69.293  1.00  0.00    -0.138 C  
BRANCH  16  17
HETATM   17  C   UNL     1      -7.324   9.429  70.241  1.00  0.00    -0.118 C  
BRANCH  17  18
HETATM   18  C   UNL     1      -8.614   8.953  70.901  1.00  0.00    -0.242 C  
HETATM   19  C   UNL     1      -8.703   7.436  70.898  1.00  0.00    -0.144 C  
ENDBRANCH  17  18
ENDBRANCH  16  17
ENDBRANCH  15  16
ENDBRANCH  14  15
ENDBRANCH  13  14
ENDBRANCH  12  13
ENDBRANCH   9  12
ENDBRANCH   8   9
ENDBRANCH   7   8
ENDBRANCH   6   7
ENDBRANCH   5   6
ENDBRANCH   4   5
ENDBRANCH   3   4
ENDBRANCH   2   3
TORSDOF 14
ENDMDL
MODEL      320
REMARK 921   NORMALIZED FREE ENERGY PREDICTED BY IDOCK:   -2.10 KCAL/MOL
REMARK 922        TOTAL FREE ENERGY PREDICTED BY IDOCK:   -5.56 KCAL/MOL
REMARK 923 INTER-LIGAND FREE ENERGY PREDICTED BY IDOCK:   -4.59 KCAL/MOL
REMARK 924 INTRA-LIGAND FREE ENERGY PREDICTED BY IDOCK:   -0.97 KCAL/MOL
REMARK 927      BINDING AFFINITY PREDICTED BY RF-SCORE:    0.00 PKD
ROOT
HETATM    1  C   UNL     1      -8.375  17.962  66.511  1.00  0.00    -0.290 C  
HETATM    2  C   UNL     1      -9.372  18.182  67.637  1.00  0.00    -0.260 C  
ENDROOT
BRANCH   2   3
HETATM    3  C   UNL     1     -10.218  16.937  67.873  1.00  0.00    -0.308 C  
BRANCH   3   4
HETATM    4  C   UNL     1      -9.442  15.879  68.656  1.00  0.00    -0.214 C  
BRANCH   4   5
HETATM    5  C   UNL     1      -9.367  14.586  67.858  1.00  0.00    -0.201 C  
BRANCH   5   6
HETATM    6  C   UNL     1     -10.255  14.622  66.614  1.00  0.00    -0.275 C  
BRANCH   6   7
HETATM    7  C   UNL     1     -10.037  13.339  65.817  1.00  0.00    -0.293 C  
BRANCH   7   8
HETATM    8  C   UNL     1      -9.163  12.333  66.561  1.00  0.00    -0.219 C  
BRANCH   8   9
HETATM    9  N   UNL     1      -9.889  10.983  66.827  1.00  0.00    -0.193 N  
HETATM   10  C   UNL     1     -11.375  11.226  67.090  1.00  0.00    -0.220 C  
HETATM   11  C   UNL     1      -9.720  10.050  65.628  1.00  0.00    -0.272 C  
BRANCH   9  12
HETATM   12  C   UNL     1      -9.213  10.366  68.085  1.00  0.00    -0.145 C  
BRANCH  12  13
HETATM   13  C   UNL     1      -9.980  10.657  69.371  1.00  0.00    -0.183 C  
BRANCH  13  14
HETATM   14  C   UNL     1     -10.367   9.384  70.120  1.00  0.00    -0.273 C  
BRANCH  14  15
HETATM   15  C   UNL     1     -10.516   8.246  69.111  1.00  0.00    -0.217 C  
BRANCH  15  16
HETATM   16  C   UNL     1     -10.184   6.890  69.720  1.00  0.00    -0.210 C  
BRANCH  16  17
HETATM   17  C   UNL     1     -10.728   5.769  68.837  1.00  0.00    -0.334 C  
BRANCH  17  18
HETATM   18  C   UNL     1      -9.686   5.305  67.825  1.00  0.00    -0.170 C  
HETATM   19  C   UNL     1     -10.341   4.876  66.522  1.00  0.00    -0.311 C  
ENDBRANCH  17  18
ENDBRANCH  16  17
ENDBRANCH  15  16
ENDBRANCH  14  15
ENDBRANCH  13  14
ENDBRANCH  12  13
ENDBRANCH   9  12
ENDBRANCH   8   9
ENDBRANCH   7   8
ENDBRANCH   6   7
ENDBRANCH   5   6
ENDBRANCH   4   5
ENDBRANCH   3   4
ENDBRANCH   2   3
TORSDOF 14
ENDMDL
MODEL      321
REMARK 921   NORMALIZED FREE ENERGY PREDICTED BY IDOCK:   -2.10 KCAL/MOL
REMARK 922        TOTAL FREE ENERGY PREDICTED BY IDOCK:   -5.56 KCAL/MOL
REMARK 923 INTER-LIGAND FREE ENERGY PREDICTED BY IDOCK:   -5.03 KCAL/MOL
REMARK 924 INTRA-LIGAND FREE ENERGY PREDICTED BY IDOCK:   -0.53 KCAL/MOL
REMARK 927      BINDING AFFINITY PREDICTED BY RF-SCORE:    0.00 PKD
ROOT
HETATM    1  C   UNL     1      -7.792   9.751  69.807  1.00  0.00    -0.159 C  
HETATM    2  C   UNL     1      -8.237   8.502  70.550  1.00  0.00    -0.116 C  
ENDROOT
BRANCH   2   3
HETATM    3  C   UNL     1      -9.157   8.852  71.712  1.00  0.00    -0.241 C  
BRANCH   3   4
HETATM    4  C   UNL     1     -10.587   8.383  71.448  1.00  0.00    -0.296 C  
BRANCH   4   5
HETATM    5  C   UNL     1     -11.528   9.577  71.385  1.00  0.00    -0.462 C  
BRANCH   5   6
HETATM    6  C   UNL     1     -11.607  10.177  69.981  1.00  0.00    -0.323 C  
BRANCH   6   7
HETATM    7  C   UNL     1     -11.935  11.662  70.099  1.00  0.00    -0.441 C  
BRANCH   7   8
HETATM    8  C   UNL     1     -12.266  12.295  68.751  1.00  0.00     0.075 C  
BRANCH   8   9
HETATM    9  N   UNL     1     -11.487  13.616  68.495  1.00  0.00    -0.288 N  
HETATM   10  C   UNL     1     -12.108  14.377  67.324  1.00  0.00    -0.323 C  
HETATM   11  C   UNL     1     -11.508  14.490  69.750  1.00  0.00    -0.279 C  
BRANCH   9  12
HETATM   12  C   UNL     1     -10.027  13.203  68.156  1.00  0.00    -0.234 C  
BRANCH  12  13
HETATM   13  C   UNL     1      -9.010  14.287  68.498  1.00  0.00    -0.185 C  
BRANCH  13  14
HETATM   14  C   UNL     1      -8.176  14.706  67.290  1.00  0.00    -0.235 C  
BRANCH  14  15
HETATM   15  C   UNL     1      -9.107  14.917  66.098  1.00  0.00    -0.202 C  
BRANCH  15  16
HETATM   16  C   UNL     1      -9.592  16.357  65.993  1.00  0.00    -0.352 C  
BRANCH  16  17
HETATM   17  C   UNL     1      -8.941  17.212  67.079  1.00  0.00    -0.244 C  
BRANCH  17  18
HETATM   18  C   UNL     1      -9.857  18.353  67.508  1.00  0.00    -0.327 C  
HETATM   19  C   UNL     1      -9.130  19.687  67.459  1.00  0.00    -0.396 C  
ENDBRANCH  17  18
ENDBRANCH  16  17
ENDBRANCH  15  16
ENDBRANCH  14  15
ENDBRANCH  13  14
ENDBRANCH  12  13
ENDBRANCH   9  12
ENDBRANCH   8   9
ENDBRANCH   7   8
ENDBRANCH   6   7
ENDBRANCH   5   6
ENDBRANCH   4   5
ENDBRANCH   3   4
ENDBRANCH   2   3
TORSDOF 14
ENDMDL
MODEL      322
REMARK 921   NORMALIZED FREE ENERGY PREDICTED BY IDOCK:   -2.09 KCAL/MOL
REMARK 922        TOTAL FREE ENERGY PREDICTED BY IDOCK:   -5.54 KCAL/MOL
REMARK 923 INTER-LIGAND FREE ENERGY PREDICTED BY IDOCK:   -4.45 KCAL/MOL
REMARK 924 INTRA-LIGAND FREE ENERGY PREDICTED BY IDOCK:   -1.09 KCAL/MOL
REMARK 927      BINDING AFFINITY PREDICTED BY RF-SCORE:    0.00 PKD
ROOT
HETATM    1  C   UNL     1     -10.676   8.035  72.572  1.00  0.00    -0.407 C  
HETATM    2  C   UNL     1     -11.573   9.095  71.951  1.00  0.00    -0.430 C  
ENDROOT
BRANCH   2   3
HETATM    3  C   UNL     1     -11.657   8.926  70.439  1.00  0.00    -0.123 C  
BRANCH   3   4
HETATM    4  C   UNL     1     -10.316   8.484  69.855  1.00  0.00    -0.210 C  
BRANCH   4   5
HETATM    5  C   UNL     1      -9.965   9.336  68.644  1.00  0.00    -0.193 C  
BRANCH   5   6
HETATM    6  C   UNL     1     -10.032  10.832  68.950  1.00  0.00    -0.213 C  
BRANCH   6   7
HETATM    7  C   UNL     1      -9.839  11.608  67.651  1.00  0.00    -0.195 C  
BRANCH   7   8
HETATM    8  C   UNL     1     -11.112  12.321  67.203  1.00  0.00    -0.278 C  
BRANCH   8   9
HETATM    9  N   UNL     1     -11.013  12.885  65.757  1.00  0.00    -0.275 N  
HETATM   10  C   UNL     1     -10.522  11.799  64.800  1.00  0.00    -0.293 C  
HETATM   11  C   UNL     1     -12.378  13.400  65.299  1.00  0.00    -0.469 C  
BRANCH   9  12
HETATM   12  C   UNL     1      -9.990  14.054  65.815  1.00  0.00    -0.298 C  
BRANCH  12  13
HETATM   13  C   UNL     1     -10.102  14.876  67.095  1.00  0.00    -0.240 C  
BRANCH  13  14
HETATM   14  C   UNL     1      -9.164  16.080  67.100  1.00  0.00    -0.221 C  
BRANCH  14  15
HETATM   15  C   UNL     1      -8.117  15.884  68.195  1.00  0.00    -0.145 C  
BRANCH  15  16
HETATM   16  C   UNL     1      -7.172  14.730  67.889  1.00  0.00    -0.169 C  
BRANCH  16  17
HETATM   17  C   UNL     1      -7.101  13.776  69.080  1.00  0.00    -0.088 C  
BRANCH  17  18
HETATM   18  C   UNL     1      -6.149  12.618  68.806  1.00  0.00    -0.071 C  
HETATM   19  C   UNL     1      -5.926  12.432  67.314  1.00  0.00    -0.134 C  
ENDBRANCH  17  18
ENDBRANCH  16  17
ENDBRANCH  15  16
ENDBRANCH  14  15
ENDBRANCH  13  14
ENDBRANCH  12  13
ENDBRANCH   9  12
ENDBRANCH   8   9
ENDBRANCH   7   8
ENDBRANCH   6   7
ENDBRANCH   5   6
ENDBRANCH   4   5
ENDBRANCH   3   4
ENDBRANCH   2   3
TORSDOF 14
ENDMDL
MODEL      323
REMARK 921   NORMALIZED FREE ENERGY PREDICTED BY IDOCK:   -2.09 KCAL/MOL
REMARK 922        TOTAL FREE ENERGY PREDICTED BY IDOCK:   -5.54 KCAL/MOL
REMARK 923 INTER-LIGAND FREE ENERGY PREDICTED BY IDOCK:   -4.27 KCAL/MOL
REMARK 924 INTRA-LIGAND FREE ENERGY PREDICTED BY IDOCK:   -1.27 KCAL/MOL
REMARK 927      BINDING AFFINITY PREDICTED BY RF-SCORE:    0.00 PKD
ROOT
HETATM    1  C   UNL     1     -11.764  15.328  64.324  1.00  0.00    -0.223 C  
HETATM    2  C   UNL     1     -12.215  13.891  64.537  1.00  0.00    -0.451 C  
ENDROOT
BRANCH   2   3
HETATM    3  C   UNL     1     -12.011  13.460  65.984  1.00  0.00    -0.460 C  
BRANCH   3   4
HETATM    4  C   UNL     1     -11.185  14.488  66.757  1.00  0.00    -0.336 C  
BRANCH   4   5
HETATM    5  C   UNL     1     -11.890  14.859  68.054  1.00  0.00    -0.296 C  
BRANCH   5   6
HETATM    6  C   UNL     1     -10.904  15.198  69.171  1.00  0.00    -0.251 C  
BRANCH   6   7
HETATM    7  C   UNL     1      -9.486  15.122  68.615  1.00  0.00    -0.206 C  
BRANCH   7   8
HETATM    8  C   UNL     1      -8.711  16.421  68.814  1.00  0.00    -0.246 C  
BRANCH   8   9
HETATM    9  N   UNL     1      -7.720  16.719  67.653  1.00  0.00    -0.164 N  
HETATM   10  C   UNL     1      -8.456  17.382  66.489  1.00  0.00    -0.264 C  
HETATM   11  C   UNL     1      -6.595  17.632  68.142  1.00  0.00    -0.192 C  
BRANCH   9  12
HETATM   12  C   UNL     1      -7.141  15.345  67.211  1.00  0.00    -0.171 C  
BRANCH  12  13
HETATM   13  C   UNL     1      -6.178  14.753  68.235  1.00  0.00    -0.125 C  
BRANCH  13  14
HETATM   14  C   UNL     1      -5.765  13.324  67.889  1.00  0.00    -0.131 C  
BRANCH  14  15
HETATM   15  C   UNL     1      -6.240  12.391  69.002  1.00  0.00    -0.083 C  
BRANCH  15  16
HETATM   16  C   UNL     1      -7.225  11.347  68.495  1.00  0.00    -0.093 C  
BRANCH  16  17
HETATM   17  C   UNL     1      -8.056  11.918  67.348  1.00  0.00    -0.165 C  
BRANCH  17  18
HETATM   18  C   UNL     1      -8.601  10.810  66.453  1.00  0.00    -0.159 C  
HETATM   19  C   UNL     1     -10.002  10.401  66.879  1.00  0.00    -0.254 C  
ENDBRANCH  17  18
ENDBRANCH  16  17
ENDBRANCH  15  16
ENDBRANCH  14  15
ENDBRANCH  13  14
ENDBRANCH  12  13
ENDBRANCH   9  12
ENDBRANCH   8   9
ENDBRANCH   7   8
ENDBRANCH   6   7
ENDBRANCH   5   6
ENDBRANCH   4   5
ENDBRANCH   3   4
ENDBRANCH   2   3
TORSDOF 14
ENDMDL
MODEL      324
REMARK 921   NORMALIZED FREE ENERGY PREDICTED BY IDOCK:   -2.08 KCAL/MOL
REMARK 922        TOTAL FREE ENERGY PREDICTED BY IDOCK:   -5.52 KCAL/MOL
REMARK 923 INTER-LIGAND FREE ENERGY PREDICTED BY IDOCK:   -3.43 KCAL/MOL
REMARK 924 INTRA-LIGAND FREE ENERGY PREDICTED BY IDOCK:   -2.08 KCAL/MOL
REMARK 927      BINDING AFFINITY PREDICTED BY RF-SCORE:    0.00 PKD
ROOT
HETATM    1  C   UNL     1      -5.972   5.628  69.298  1.00  0.00    -0.023 C  
HETATM    2  C   UNL     1      -5.888   6.428  68.009  1.00  0.00    -0.013 C  
ENDROOT
BRANCH   2   3
HETATM    3  C   UNL     1      -6.814   5.853  66.944  1.00  0.00    -0.063 C  
BRANCH   3   4
HETATM    4  C   UNL     1      -8.163   5.451  67.541  1.00  0.00    -0.100 C  
BRANCH   4   5
HETATM    5  C   UNL     1      -9.259   5.581  66.494  1.00  0.00    -0.144 C  
BRANCH   5   6
HETATM    6  C   UNL     1     -10.642   5.749  67.123  1.00  0.00    -0.365 C  
BRANCH   6   7
HETATM    7  C   UNL     1     -10.536   6.727  68.290  1.00  0.00    -0.276 C  
BRANCH   7   8
HETATM    8  C   UNL     1     -11.387   6.303  69.484  1.00  0.00    -0.404 C  
BRANCH   8   9
HETATM    9  N   UNL     1     -10.538   5.983  70.747  1.00  0.00    -0.241 N  
HETATM   10  C   UNL     1     -11.344   6.278  72.012  1.00  0.00    -0.300 C  
HETATM   11  C   UNL     1     -10.111   4.514  70.735  1.00  0.00    -0.163 C  
BRANCH   9  12
HETATM   12  C   UNL     1      -9.288   6.905  70.678  1.00  0.00    -0.162 C  
BRANCH  12  13
HETATM   13  C   UNL     1      -9.481   8.219  71.428  1.00  0.00    -0.227 C  
BRANCH  13  14
HETATM   14  C   UNL     1      -8.970   9.422  70.638  1.00  0.00    -0.285 C  
BRANCH  14  15
HETATM   15  C   UNL     1      -8.211   8.918  69.411  1.00  0.00    -0.107 C  
BRANCH  15  16
HETATM   16  C   UNL     1      -7.644  10.058  68.577  1.00  0.00    -0.087 C  
BRANCH  16  17
HETATM   17  C   UNL     1      -7.398   9.591  67.143  1.00  0.00    -0.088 C  
BRANCH  17  18
HETATM   18  C   UNL     1      -8.386  10.232  66.175  1.00  0.00    -0.140 C  
HETATM   19  C   UNL     1      -8.988   9.195  65.240  1.00  0.00    -0.246 C  
ENDBRANCH  17  18
ENDBRANCH  16  17
ENDBRANCH  15  16
ENDBRANCH  14  15
ENDBRANCH  13  14
ENDBRANCH  12  13
ENDBRANCH   9  12
ENDBRANCH   8   9
ENDBRANCH   7   8
ENDBRANCH   6   7
ENDBRANCH   5   6
ENDBRANCH   4   5
ENDBRANCH   3   4
ENDBRANCH   2   3
TORSDOF 14
ENDMDL
MODEL      325
REMARK 921   NORMALIZED FREE ENERGY PREDICTED BY IDOCK:   -2.07 KCAL/MOL
REMARK 922        TOTAL FREE ENERGY PREDICTED BY IDOCK:   -5.51 KCAL/MOL
REMARK 923 INTER-LIGAND FREE ENERGY PREDICTED BY IDOCK:   -4.22 KCAL/MOL
REMARK 924 INTRA-LIGAND FREE ENERGY PREDICTED BY IDOCK:   -1.29 KCAL/MOL
REMARK 927      BINDING AFFINITY PREDICTED BY RF-SCORE:    0.00 PKD
ROOT
HETATM    1  C   UNL     1     -11.997  14.037  66.991  1.00  0.00    -0.472 C  
HETATM    2  C   UNL     1     -11.873  12.579  67.403  1.00  0.00    -0.381 C  
ENDROOT
BRANCH   2   3
HETATM    3  C   UNL     1     -10.651  11.930  66.764  1.00  0.00    -0.264 C  
BRANCH   3   4
HETATM    4  C   UNL     1     -10.399  10.537  67.340  1.00  0.00    -0.269 C  
BRANCH   4   5
HETATM    5  C   UNL     1      -8.952  10.129  67.111  1.00  0.00    -0.146 C  
BRANCH   5   6
HETATM    6  C   UNL     1      -8.433   9.197  68.206  1.00  0.00    -0.125 C  
BRANCH   6   7
HETATM    7  C   UNL     1      -7.393   8.259  67.602  1.00  0.00    -0.093 C  
BRANCH   7   8
HETATM    8  C   UNL     1      -7.826   7.704  66.247  1.00  0.00    -0.091 C  
BRANCH   8   9
HETATM    9  N   UNL     1      -7.588   6.173  66.117  1.00  0.00    -0.088 N  
HETATM   10  C   UNL     1      -7.971   5.697  64.716  1.00  0.00    -0.119 C  
HETATM   11  C   UNL     1      -6.120   5.844  66.392  1.00  0.00    -0.029 C  
BRANCH   9  12
HETATM   12  C   UNL     1      -8.497   5.498  67.182  1.00  0.00    -0.110 C  
BRANCH  12  13
HETATM   13  C   UNL     1      -9.981   5.755  66.941  1.00  0.00    -0.200 C  
BRANCH  13  14
HETATM   14  C   UNL     1     -10.728   6.109  68.226  1.00  0.00    -0.361 C  
BRANCH  14  15
HETATM   15  C   UNL     1      -9.767   5.973  69.406  1.00  0.00    -0.176 C  
BRANCH  15  16
HETATM   16  C   UNL     1     -10.335   5.095  70.513  1.00  0.00    -0.314 C  
BRANCH  16  17
HETATM   17  C   UNL     1     -10.765   5.955  71.700  1.00  0.00    -0.308 C  
BRANCH  17  18
HETATM   18  C   UNL     1     -12.157   6.539  71.486  1.00  0.00    -0.363 C  
HETATM   19  C   UNL     1     -12.089   8.035  71.226  1.00  0.00    -0.314 C  
ENDBRANCH  17  18
ENDBRANCH  16  17
ENDBRANCH  15  16
ENDBRANCH  14  15
ENDBRANCH  13  14
ENDBRANCH  12  13
ENDBRANCH   9  12
ENDBRANCH   8   9
ENDBRANCH   7   8
ENDBRANCH   6   7
ENDBRANCH   5   6
ENDBRANCH   4   5
ENDBRANCH   3   4
ENDBRANCH   2   3
TORSDOF 14
ENDMDL
MODEL      326
REMARK 921   NORMALIZED FREE ENERGY PREDICTED BY IDOCK:   -2.07 KCAL/MOL
REMARK 922        TOTAL FREE ENERGY PREDICTED BY IDOCK:   -5.49 KCAL/MOL
REMARK 923 INTER-LIGAND FREE ENERGY PREDICTED BY IDOCK:   -4.26 KCAL/MOL
REMARK 924 INTRA-LIGAND FREE ENERGY PREDICTED BY IDOCK:   -1.23 KCAL/MOL
REMARK 927      BINDING AFFINITY PREDICTED BY RF-SCORE:    0.00 PKD
ROOT
HETATM    1  C   UNL     1      -9.859  10.798  64.440  1.00  0.00    -0.374 C  
HETATM    2  C   UNL     1      -9.490  10.175  63.103  1.00  0.00    -0.296 C  
ENDROOT
BRANCH   2   3
HETATM    3  C   UNL     1      -8.007  10.356  62.804  1.00  0.00    -0.161 C  
BRANCH   3   4
HETATM    4  C   UNL     1      -7.149   9.451  63.687  1.00  0.00    -0.101 C  
BRANCH   4   5
HETATM    5  C   UNL     1      -7.584   8.001  63.531  1.00  0.00    -0.133 C  
BRANCH   5   6
HETATM    6  C   UNL     1      -7.395   7.199  64.818  1.00  0.00    -0.082 C  
BRANCH   6   7
HETATM    7  C   UNL     1      -8.747   7.052  65.510  1.00  0.00    -0.043 C  
BRANCH   7   8
HETATM    8  C   UNL     1      -8.611   6.641  66.973  1.00  0.00    -0.113 C  
BRANCH   8   9
HETATM    9  N   UNL     1      -9.815   7.099  67.844  1.00  0.00    -0.140 N  
HETATM   10  C   UNL     1     -10.412   8.390  67.282  1.00  0.00    -0.303 C  
HETATM   11  C   UNL     1     -10.885   6.007  67.880  1.00  0.00    -0.290 C  
BRANCH   9  12
HETATM   12  C   UNL     1      -9.252   7.344  69.272  1.00  0.00    -0.147 C  
BRANCH  12  13
HETATM   13  C   UNL     1      -8.480   8.655  69.387  1.00  0.00    -0.126 C  
BRANCH  13  14
HETATM   14  C   UNL     1      -8.204   9.045  70.837  1.00  0.00    -0.222 C  
BRANCH  14  15
HETATM   15  C   UNL     1      -8.439   7.825  71.727  1.00  0.00    -0.134 C  
BRANCH  15  16
HETATM   16  C   UNL     1      -9.186   8.180  73.005  1.00  0.00    -0.343 C  
BRANCH  16  17
HETATM   17  C   UNL     1     -10.544   7.481  73.034  1.00  0.00    -0.422 C  
BRANCH  17  18
HETATM   18  C   UNL     1     -11.585   8.261  72.239  1.00  0.00    -0.449 C  
HETATM   19  C   UNL     1     -12.287   7.366  71.230  1.00  0.00    -0.380 C  
ENDBRANCH  17  18
ENDBRANCH  16  17
ENDBRANCH  15  16
ENDBRANCH  14  15
ENDBRANCH  13  14
ENDBRANCH  12  13
ENDBRANCH   9  12
ENDBRANCH   8   9
ENDBRANCH   7   8
ENDBRANCH   6   7
ENDBRANCH   5   6
ENDBRANCH   4   5
ENDBRANCH   3   4
ENDBRANCH   2   3
TORSDOF 14
ENDMDL
MODEL      327
REMARK 921   NORMALIZED FREE ENERGY PREDICTED BY IDOCK:   -2.06 KCAL/MOL
REMARK 922        TOTAL FREE ENERGY PREDICTED BY IDOCK:   -5.48 KCAL/MOL
REMARK 923 INTER-LIGAND FREE ENERGY PREDICTED BY IDOCK:   -4.33 KCAL/MOL
REMARK 924 INTRA-LIGAND FREE ENERGY PREDICTED BY IDOCK:   -1.16 KCAL/MOL
REMARK 927      BINDING AFFINITY PREDICTED BY RF-SCORE:    0.00 PKD
ROOT
HETATM    1  C   UNL     1     -10.552  17.667  67.835  1.00  0.00    -0.390 C  
HETATM    2  C   UNL     1     -10.441  16.156  67.969  1.00  0.00    -0.281 C  
ENDROOT
BRANCH   2   3
HETATM    3  C   UNL     1     -11.724  15.559  68.535  1.00  0.00    -0.351 C  
BRANCH   3   4
HETATM    4  C   UNL     1     -12.107  14.275  67.801  1.00  0.00    -0.316 C  
BRANCH   4   5
HETATM    5  C   UNL     1     -11.893  14.442  66.304  1.00  0.00    -0.391 C  
BRANCH   5   6
HETATM    6  C   UNL     1     -11.087  13.291  65.703  1.00  0.00    -0.299 C  
BRANCH   6   7
HETATM    7  C   UNL     1     -10.890  12.219  66.770  1.00  0.00    -0.291 C  
BRANCH   7   8
HETATM    8  C   UNL     1      -9.513  11.566  66.693  1.00  0.00    -0.193 C  
BRANCH   8   9
HETATM    9  N   UNL     1      -9.580  10.055  66.330  1.00  0.00    -0.185 N  
HETATM   10  C   UNL     1     -10.925   9.469  66.758  1.00  0.00     0.193 C  
HETATM   11  C   UNL     1      -9.388   9.866  64.825  1.00  0.00    -0.278 C  
BRANCH   9  12
HETATM   12  C   UNL     1      -8.422   9.369  67.108  1.00  0.00    -0.128 C  
BRANCH  12  13
HETATM   13  C   UNL     1      -8.788   9.051  68.554  1.00  0.00    -0.134 C  
BRANCH  13  14
HETATM   14  C   UNL     1      -8.224   7.710  69.018  1.00  0.00    -0.127 C  
BRANCH  14  15
HETATM   15  C   UNL     1      -8.990   6.587  68.320  1.00  0.00    -0.121 C  
BRANCH  15  16
HETATM   16  C   UNL     1      -9.174   5.371  69.218  1.00  0.00    -0.149 C  
BRANCH  16  17
HETATM   17  C   UNL     1      -9.642   5.806  70.605  1.00  0.00    -0.214 C  
BRANCH  17  18
HETATM   18  C   UNL     1     -11.151   6.023  70.638  1.00  0.00    -0.371 C  
HETATM   19  C   UNL     1     -11.496   7.396  71.193  1.00  0.00    -0.303 C  
ENDBRANCH  17  18
ENDBRANCH  16  17
ENDBRANCH  15  16
ENDBRANCH  14  15
ENDBRANCH  13  14
ENDBRANCH  12  13
ENDBRANCH   9  12
ENDBRANCH   8   9
ENDBRANCH   7   8
ENDBRANCH   6   7
ENDBRANCH   5   6
ENDBRANCH   4   5
ENDBRANCH   3   4
ENDBRANCH   2   3
TORSDOF 14
ENDMDL
MODEL      328
REMARK 921   NORMALIZED FREE ENERGY PREDICTED BY IDOCK:   -2.06 KCAL/MOL
REMARK 922        TOTAL FREE ENERGY PREDICTED BY IDOCK:   -5.48 KCAL/MOL
REMARK 923 INTER-LIGAND FREE ENERGY PREDICTED BY IDOCK:   -3.16 KCAL/MOL
REMARK 924 INTRA-LIGAND FREE ENERGY PREDICTED BY IDOCK:   -2.32 KCAL/MOL
REMARK 927      BINDING AFFINITY PREDICTED BY RF-SCORE:    0.00 PKD
ROOT
HETATM    1  C   UNL     1      -6.963   8.502  70.296  1.00  0.00    -0.040 C  
HETATM    2  C   UNL     1      -7.574   7.224  70.848  1.00  0.00    -0.084 C  
ENDROOT
BRANCH   2   3
HETATM    3  C   UNL     1      -7.180   6.018  70.004  1.00  0.00    -0.073 C  
BRANCH   3   4
HETATM    4  C   UNL     1      -7.548   4.709  70.702  1.00  0.00    -0.054 C  
BRANCH   4   5
HETATM    5  C   UNL     1      -9.037   4.435  70.551  1.00  0.00    -0.174 C  
BRANCH   5   6
HETATM    6  C   UNL     1      -9.313   3.046  69.975  1.00  0.00    -0.223 C  
BRANCH   6   7
HETATM    7  C   UNL     1      -9.486   3.167  68.464  1.00  0.00    -0.207 C  
BRANCH   7   8
HETATM    8  C   UNL     1      -8.462   2.340  67.692  1.00  0.00    -0.082 C  
BRANCH   8   9
HETATM    9  N   UNL     1      -8.064   2.986  66.334  1.00  0.00    -0.084 N  
HETATM   10  C   UNL     1      -6.836   2.282  65.756  1.00  0.00    -0.039 C  
HETATM   11  C   UNL     1      -9.227   2.893  65.346  1.00  0.00    -0.131 C  
BRANCH   9  12
HETATM   12  C   UNL     1      -7.737   4.475  66.638  1.00  0.00    -0.094 C  
BRANCH  12  13
HETATM   13  C   UNL     1      -8.501   5.443  65.741  1.00  0.00    -0.131 C  
BRANCH  13  14
HETATM   14  C   UNL     1      -9.184   6.557  66.531  1.00  0.00    -0.179 C  
BRANCH  14  15
HETATM   15  C   UNL     1     -10.652   6.184  66.738  1.00  0.00    -0.351 C  
BRANCH  15  16
HETATM   16  C   UNL     1     -11.120   6.454  68.161  1.00  0.00    -0.358 C  
BRANCH  16  17
HETATM   17  C   UNL     1     -10.442   7.708  68.710  1.00  0.00    -0.208 C  
BRANCH  17  18
HETATM   18  C   UNL     1     -10.962   8.055  70.101  1.00  0.00    -0.226 C  
HETATM   19  C   UNL     1     -11.694   6.877  70.722  1.00  0.00    -0.417 C  
ENDBRANCH  17  18
ENDBRANCH  16  17
ENDBRANCH  15  16
ENDBRANCH  14  15
ENDBRANCH  13  14
ENDBRANCH  12  13
ENDBRANCH   9  12
ENDBRANCH   8   9
ENDBRANCH   7   8
ENDBRANCH   6   7
ENDBRANCH   5   6
ENDBRANCH   4   5
ENDBRANCH   3   4
ENDBRANCH   2   3
TORSDOF 14
ENDMDL
MODEL      329
REMARK 921   NORMALIZED FREE ENERGY PREDICTED BY IDOCK:   -2.06 KCAL/MOL
REMARK 922        TOTAL FREE ENERGY PREDICTED BY IDOCK:   -5.48 KCAL/MOL
REMARK 923 INTER-LIGAND FREE ENERGY PREDICTED BY IDOCK:   -4.31 KCAL/MOL
REMARK 924 INTRA-LIGAND FREE ENERGY PREDICTED BY IDOCK:   -1.17 KCAL/MOL
REMARK 927      BINDING AFFINITY PREDICTED BY RF-SCORE:    0.00 PKD
ROOT
HETATM    1  C   UNL     1     -10.549  17.654  67.831  1.00  0.00    -0.390 C  
HETATM    2  C   UNL     1     -10.396  16.153  68.018  1.00  0.00    -0.271 C  
ENDROOT
BRANCH   2   3
HETATM    3  C   UNL     1     -11.644  15.548  68.650  1.00  0.00    -0.379 C  
BRANCH   3   4
HETATM    4  C   UNL     1     -12.010  14.218  67.992  1.00  0.00    -0.353 C  
BRANCH   4   5
HETATM    5  C   UNL     1     -11.872  14.326  66.480  1.00  0.00    -0.433 C  
BRANCH   5   6
HETATM    6  C   UNL     1     -11.076  13.163  65.887  1.00  0.00    -0.298 C  
BRANCH   6   7
HETATM    7  C   UNL     1     -10.783  12.154  66.993  1.00  0.00    -0.272 C  
BRANCH   7   8
HETATM    8  C   UNL     1      -9.411  11.505  66.841  1.00  0.00    -0.181 C  
BRANCH   8   9
HETATM    9  N   UNL     1      -9.491   9.970  66.603  1.00  0.00    -0.166 N  
HETATM   10  C   UNL     1     -10.771   9.407  67.222  1.00  0.00    -0.188 C  
HETATM   11  C   UNL     1      -9.464   9.667  65.104  1.00  0.00    -0.265 C  
BRANCH   9  12
HETATM   12  C   UNL     1      -8.243   9.355  67.296  1.00  0.00    -0.117 C  
BRANCH  12  13
HETATM   13  C   UNL     1      -8.603   8.440  68.462  1.00  0.00    -0.136 C  
BRANCH  13  14
HETATM   14  C   UNL     1      -7.706   7.207  68.535  1.00  0.00    -0.120 C  
BRANCH  14  15
HETATM   15  C   UNL     1      -7.107   6.952  67.152  1.00  0.00    -0.080 C  
BRANCH  15  16
HETATM   16  C   UNL     1      -6.958   5.467  66.854  1.00  0.00    -0.065 C  
BRANCH  16  17
HETATM   17  C   UNL     1      -8.230   4.719  67.250  1.00  0.00    -0.106 C  
BRANCH  17  18
HETATM   18  C   UNL     1      -9.290   4.810  66.159  1.00  0.00    -0.152 C  
HETATM   19  C   UNL     1     -10.462   5.670  66.603  1.00  0.00    -0.340 C  
ENDBRANCH  17  18
ENDBRANCH  16  17
ENDBRANCH  15  16
ENDBRANCH  14  15
ENDBRANCH  13  14
ENDBRANCH  12  13
ENDBRANCH   9  12
ENDBRANCH   8   9
ENDBRANCH   7   8
ENDBRANCH   6   7
ENDBRANCH   5   6
ENDBRANCH   4   5
ENDBRANCH   3   4
ENDBRANCH   2   3
TORSDOF 14
ENDMDL
MODEL      330
REMARK 921   NORMALIZED FREE ENERGY PREDICTED BY IDOCK:   -2.05 KCAL/MOL
REMARK 922        TOTAL FREE ENERGY PREDICTED BY IDOCK:   -5.47 KCAL/MOL
REMARK 923 INTER-LIGAND FREE ENERGY PREDICTED BY IDOCK:   -4.55 KCAL/MOL
REMARK 924 INTRA-LIGAND FREE ENERGY PREDICTED BY IDOCK:   -0.91 KCAL/MOL
REMARK 927      BINDING AFFINITY PREDICTED BY RF-SCORE:    0.00 PKD
ROOT
HETATM    1  C   UNL     1     -11.885  15.053  64.383  1.00  0.00    -0.349 C  
HETATM    2  C   UNL     1     -10.785  14.435  65.231  1.00  0.00    -0.387 C  
ENDROOT
BRANCH   2   3
HETATM    3  C   UNL     1     -10.440  15.326  66.418  1.00  0.00    -0.307 C  
BRANCH   3   4
HETATM    4  C   UNL     1     -10.957  14.730  67.727  1.00  0.00    -0.294 C  
BRANCH   4   5
HETATM    5  C   UNL     1     -11.289  13.257  67.537  1.00  0.00    -0.329 C  
BRANCH   5   6
HETATM    6  C   UNL     1     -11.554  12.548  68.865  1.00  0.00    -0.364 C  
BRANCH   6   7
HETATM    7  C   UNL     1     -10.485  11.481  69.076  1.00  0.00    -0.175 C  
BRANCH   7   8
HETATM    8  C   UNL     1     -11.051  10.066  69.004  1.00  0.00    -0.180 C  
BRANCH   8   9
HETATM    9  N   UNL     1     -10.865   9.273  70.329  1.00  0.00    -0.234 N  
HETATM   10  C   UNL     1     -11.836   9.785  71.392  1.00  0.00    -0.408 C  
HETATM   11  C   UNL     1     -11.102   7.781  70.086  1.00  0.00    -0.209 C  
BRANCH   9  12
HETATM   12  C   UNL     1      -9.397   9.515  70.779  1.00  0.00    -0.150 C  
BRANCH  12  13
HETATM   13  C   UNL     1      -8.681   8.229  71.178  1.00  0.00    -0.176 C  
BRANCH  13  14
HETATM   14  C   UNL     1      -8.302   8.206  72.657  1.00  0.00    -0.236 C  
BRANCH  14  15
HETATM   15  C   UNL     1      -9.509   7.731  73.466  1.00  0.00    -0.346 C  
BRANCH  15  16
HETATM   16  C   UNL     1      -9.398   6.264  73.857  1.00  0.00    -0.150 C  
BRANCH  16  17
HETATM   17  C   UNL     1      -8.051   5.996  74.525  1.00  0.00    -0.111 C  
BRANCH  17  18
HETATM   18  C   UNL     1      -7.657   4.528  74.408  1.00  0.00    -0.081 C  
HETATM   19  C   UNL     1      -7.215   4.189  72.994  1.00  0.00    -0.069 C  
ENDBRANCH  17  18
ENDBRANCH  16  17
ENDBRANCH  15  16
ENDBRANCH  14  15
ENDBRANCH  13  14
ENDBRANCH  12  13
ENDBRANCH   9  12
ENDBRANCH   8   9
ENDBRANCH   7   8
ENDBRANCH   6   7
ENDBRANCH   5   6
ENDBRANCH   4   5
ENDBRANCH   3   4
ENDBRANCH   2   3
TORSDOF 14
ENDMDL
MODEL      331
REMARK 921   NORMALIZED FREE ENERGY PREDICTED BY IDOCK:   -2.05 KCAL/MOL
REMARK 922        TOTAL FREE ENERGY PREDICTED BY IDOCK:   -5.46 KCAL/MOL
REMARK 923 INTER-LIGAND FREE ENERGY PREDICTED BY IDOCK:   -4.56 KCAL/MOL
REMARK 924 INTRA-LIGAND FREE ENERGY PREDICTED BY IDOCK:   -0.90 KCAL/MOL
REMARK 927      BINDING AFFINITY PREDICTED BY RF-SCORE:    0.00 PKD
ROOT
HETATM    1  C   UNL     1     -11.109  13.729  64.279  1.00  0.00    -0.300 C  
HETATM    2  C   UNL     1     -11.576  12.452  63.599  1.00  0.00    -0.580 C  
ENDROOT
BRANCH   2   3
HETATM    3  C   UNL     1     -10.409  11.504  63.351  1.00  0.00    -0.469 C  
BRANCH   3   4
HETATM    4  C   UNL     1     -10.070  10.702  64.607  1.00  0.00    -0.417 C  
BRANCH   4   5
HETATM    5  C   UNL     1      -8.622  10.944  65.009  1.00  0.00    -0.056 C  
BRANCH   5   6
HETATM    6  C   UNL     1      -7.720   9.759  64.662  1.00  0.00    -0.136 C  
BRANCH   6   7
HETATM    7  C   UNL     1      -6.905   9.385  65.896  1.00  0.00    -0.089 C  
BRANCH   7   8
HETATM    8  C   UNL     1      -7.273   8.008  66.441  1.00  0.00    -0.079 C  
BRANCH   8   9
HETATM    9  N   UNL     1      -7.592   8.026  67.964  1.00  0.00    -0.110 N  
HETATM   10  C   UNL     1      -6.357   7.615  68.766  1.00  0.00    -0.040 C  
HETATM   11  C   UNL     1      -8.046   9.423  68.390  1.00  0.00    -0.109 C  
BRANCH   9  12
HETATM   12  C   UNL     1      -8.740   7.000  68.180  1.00  0.00    -0.127 C  
BRANCH  12  13
HETATM   13  C   UNL     1     -10.111   7.661  68.290  1.00  0.00    -0.214 C  
BRANCH  13  14
HETATM   14  C   UNL     1     -10.746   7.462  69.664  1.00  0.00    -0.245 C  
BRANCH  14  15
HETATM   15  C   UNL     1     -11.256   8.810  70.170  1.00  0.00    -0.162 C  
BRANCH  15  16
HETATM   16  C   UNL     1     -11.354   8.856  71.689  1.00  0.00    -0.407 C  
BRANCH  16  17
HETATM   17  C   UNL     1     -10.039   8.394  72.316  1.00  0.00    -0.382 C  
BRANCH  17  18
HETATM   18  C   UNL     1     -10.287   7.487  73.516  1.00  0.00    -0.373 C  
HETATM   19  C   UNL     1     -10.548   6.056  73.078  1.00  0.00    -0.265 C  
ENDBRANCH  17  18
ENDBRANCH  16  17
ENDBRANCH  15  16
ENDBRANCH  14  15
ENDBRANCH  13  14
ENDBRANCH  12  13
ENDBRANCH   9  12
ENDBRANCH   8   9
ENDBRANCH   7   8
ENDBRANCH   6   7
ENDBRANCH   5   6
ENDBRANCH   4   5
ENDBRANCH   3   4
ENDBRANCH   2   3
TORSDOF 14
ENDMDL
MODEL      332
REMARK 921   NORMALIZED FREE ENERGY PREDICTED BY IDOCK:   -2.03 KCAL/MOL
REMARK 922        TOTAL FREE ENERGY PREDICTED BY IDOCK:   -5.43 KCAL/MOL
REMARK 923 INTER-LIGAND FREE ENERGY PREDICTED BY IDOCK:   -3.93 KCAL/MOL
REMARK 924 INTRA-LIGAND FREE ENERGY PREDICTED BY IDOCK:   -1.50 KCAL/MOL
REMARK 927      BINDING AFFINITY PREDICTED BY RF-SCORE:    0.00 PKD
ROOT
HETATM    1  C   UNL     1     -12.508  12.886  64.524  1.00  0.00    -0.468 C  
HETATM    2  C   UNL     1     -11.939  12.385  63.206  1.00  0.00    -0.509 C  
ENDROOT
BRANCH   2   3
HETATM    3  C   UNL     1     -10.437  12.151  63.310  1.00  0.00    -0.360 C  
BRANCH   3   4
HETATM    4  C   UNL     1     -10.128  10.723  63.759  1.00  0.00    -0.391 C  
BRANCH   4   5
HETATM    5  C   UNL     1      -9.225  10.742  64.984  1.00  0.00    -0.241 C  
BRANCH   5   6
HETATM    6  C   UNL     1      -8.860   9.335  65.455  1.00  0.00    -0.224 C  
BRANCH   6   7
HETATM    7  C   UNL     1      -8.920   9.296  66.979  1.00  0.00    -0.142 C  
BRANCH   7   8
HETATM    8  C   UNL     1      -7.545   9.098  67.611  1.00  0.00    -0.085 C  
BRANCH   8   9
HETATM    9  N   UNL     1      -7.242  10.129  68.735  1.00  0.00    -0.078 N  
HETATM   10  C   UNL     1      -6.231   9.549  69.724  1.00  0.00    -0.040 C  
HETATM   11  C   UNL     1      -6.691  11.421  68.129  1.00  0.00    -0.059 C  
BRANCH   9  12
HETATM   12  C   UNL     1      -8.595  10.407  69.448  1.00  0.00    -0.130 C  
BRANCH  12  13
HETATM   13  C   UNL     1      -9.146  11.798  69.151  1.00  0.00     0.390 C  
BRANCH  13  14
HETATM   14  C   UNL     1     -10.517  11.751  68.480  1.00  0.00    -0.233 C  
BRANCH  14  15
HETATM   15  C   UNL     1     -10.762  13.082  67.770  1.00  0.00    -0.242 C  
BRANCH  15  16
HETATM   16  C   UNL     1      -9.496  13.638  67.134  1.00  0.00    -0.244 C  
BRANCH  16  17
HETATM   17  C   UNL     1      -9.852  14.667  66.063  1.00  0.00    -0.347 C  
BRANCH  17  18
HETATM   18  C   UNL     1      -9.598  16.088  66.554  1.00  0.00    -0.283 C  
HETATM   19  C   UNL     1      -8.154  16.266  66.994  1.00  0.00    -0.244 C  
ENDBRANCH  17  18
ENDBRANCH  16  17
ENDBRANCH  15  16
ENDBRANCH  14  15
ENDBRANCH  13  14
ENDBRANCH  12  13
ENDBRANCH   9  12
ENDBRANCH   8   9
ENDBRANCH   7   8
ENDBRANCH   6   7
ENDBRANCH   5   6
ENDBRANCH   4   5
ENDBRANCH   3   4
ENDBRANCH   2   3
TORSDOF 14
ENDMDL
MODEL      333
REMARK 921   NORMALIZED FREE ENERGY PREDICTED BY IDOCK:   -2.03 KCAL/MOL
REMARK 922        TOTAL FREE ENERGY PREDICTED BY IDOCK:   -5.42 KCAL/MOL
REMARK 923 INTER-LIGAND FREE ENERGY PREDICTED BY IDOCK:   -4.62 KCAL/MOL
REMARK 924 INTRA-LIGAND FREE ENERGY PREDICTED BY IDOCK:   -0.80 KCAL/MOL
REMARK 927      BINDING AFFINITY PREDICTED BY RF-SCORE:    0.00 PKD
ROOT
HETATM    1  C   UNL     1      -8.904  20.949  67.463  1.00  0.00    -0.124 C  
HETATM    2  C   UNL     1      -8.492  19.580  67.979  1.00  0.00    -0.358 C  
ENDROOT
BRANCH   2   3
HETATM    3  C   UNL     1      -8.101  18.656  66.832  1.00  0.00    -0.256 C  
BRANCH   3   4
HETATM    4  C   UNL     1      -9.024  17.440  66.759  1.00  0.00    -0.272 C  
BRANCH   4   5
HETATM    5  C   UNL     1      -9.699  17.214  68.104  1.00  0.00    -0.276 C  
BRANCH   5   6
HETATM    6  C   UNL     1      -9.820  15.729  68.447  1.00  0.00    -0.206 C  
BRANCH   6   7
HETATM    7  C   UNL     1     -10.604  15.031  67.340  1.00  0.00    -0.271 C  
BRANCH   7   8
HETATM    8  C   UNL     1      -9.748  14.037  66.560  1.00  0.00    -0.295 C  
BRANCH   8   9
HETATM    9  N   UNL     1     -10.508  12.722  66.220  1.00  0.00    -0.253 N  
HETATM   10  C   UNL     1     -12.009  12.991  66.120  1.00  0.00    -0.427 C  
HETATM   11  C   UNL     1      -9.995  12.145  64.900  1.00  0.00    -0.212 C  
BRANCH   9  12
HETATM   12  C   UNL     1     -10.214  11.736  67.386  1.00  0.00    -0.199 C  
BRANCH  12  13
HETATM   13  C   UNL     1     -11.456  10.981  67.849  1.00  0.00    -0.358 C  
BRANCH  13  14
HETATM   14  C   UNL     1     -11.158   9.525  68.198  1.00  0.00    -0.052 C  
BRANCH  14  15
HETATM   15  C   UNL     1     -10.419   8.880  67.027  1.00  0.00    -0.326 C  
BRANCH  15  16
HETATM   16  C   UNL     1     -10.271   7.374  67.198  1.00  0.00    -0.347 C  
BRANCH  16  17
HETATM   17  C   UNL     1      -9.857   7.044  68.631  1.00  0.00    -0.148 C  
BRANCH  17  18
HETATM   18  C   UNL     1      -8.368   7.286  68.847  1.00  0.00    -0.126 C  
HETATM   19  C   UNL     1      -8.108   7.925  70.202  1.00  0.00    -0.116 C  
ENDBRANCH  17  18
ENDBRANCH  16  17
ENDBRANCH  15  16
ENDBRANCH  14  15
ENDBRANCH  13  14
ENDBRANCH  12  13
ENDBRANCH   9  12
ENDBRANCH   8   9
ENDBRANCH   7   8
ENDBRANCH   6   7
ENDBRANCH   5   6
ENDBRANCH   4   5
ENDBRANCH   3   4
ENDBRANCH   2   3
TORSDOF 14
ENDMDL
MODEL      334
REMARK 921   NORMALIZED FREE ENERGY PREDICTED BY IDOCK:   -2.02 KCAL/MOL
REMARK 922        TOTAL FREE ENERGY PREDICTED BY IDOCK:   -5.41 KCAL/MOL
REMARK 923 INTER-LIGAND FREE ENERGY PREDICTED BY IDOCK:   -4.06 KCAL/MOL
REMARK 924 INTRA-LIGAND FREE ENERGY PREDICTED BY IDOCK:   -1.36 KCAL/MOL
REMARK 927      BINDING AFFINITY PREDICTED BY RF-SCORE:    0.00 PKD
ROOT
HETATM    1  C   UNL     1      -9.816   3.507  71.329  1.00  0.00    -0.205 C  
HETATM    2  C   UNL     1      -8.299   3.471  71.428  1.00  0.00    -0.084 C  
ENDROOT
BRANCH   2   3
HETATM    3  C   UNL     1      -7.757   4.763  72.029  1.00  0.00    -0.095 C  
BRANCH   3   4
HETATM    4  C   UNL     1      -7.960   4.797  73.543  1.00  0.00    -0.103 C  
BRANCH   4   5
HETATM    5  C   UNL     1      -8.186   6.228  74.009  1.00  0.00    -0.111 C  
BRANCH   5   6
HETATM    6  C   UNL     1      -8.163   7.224  72.850  1.00  0.00    -0.126 C  
BRANCH   6   7
HETATM    7  C   UNL     1      -9.383   8.134  72.961  1.00  0.00    -0.335 C  
BRANCH   7   8
HETATM    8  C   UNL     1     -10.695   7.370  72.811  1.00  0.00    -0.314 C  
BRANCH   8   9
HETATM    9  N   UNL     1     -11.521   7.824  71.574  1.00  0.00    -0.258 N  
HETATM   10  C   UNL     1     -12.911   7.188  71.605  1.00  0.00    -0.379 C  
HETATM   11  C   UNL     1     -11.649   9.348  71.557  1.00  0.00    -0.397 C  
BRANCH   9  12
HETATM   12  C   UNL     1     -10.735   7.339  70.323  1.00  0.00    -0.236 C  
BRANCH  12  13
HETATM   13  C   UNL     1     -11.585   6.488  69.385  1.00  0.00    -0.249 C  
BRANCH  13  14
HETATM   14  C   UNL     1     -10.850   6.132  68.094  1.00  0.00    -0.389 C  
BRANCH  14  15
HETATM   15  C   UNL     1      -9.516   5.478  68.453  1.00  0.00    -0.144 C  
BRANCH  15  16
HETATM   16  C   UNL     1      -9.082   4.450  67.416  1.00  0.00    -0.148 C  
BRANCH  16  17
HETATM   17  C   UNL     1      -9.794   4.706  66.089  1.00  0.00    -0.240 C  
BRANCH  17  18
HETATM   18  C   UNL     1      -8.796   4.938  64.960  1.00  0.00    -0.154 C  
HETATM   19  C   UNL     1      -8.178   3.629  64.498  1.00  0.00    -0.093 C  
ENDBRANCH  17  18
ENDBRANCH  16  17
ENDBRANCH  15  16
ENDBRANCH  14  15
ENDBRANCH  13  14
ENDBRANCH  12  13
ENDBRANCH   9  12
ENDBRANCH   8   9
ENDBRANCH   7   8
ENDBRANCH   6   7
ENDBRANCH   5   6
ENDBRANCH   4   5
ENDBRANCH   3   4
ENDBRANCH   2   3
TORSDOF 14
ENDMDL
MODEL      335
REMARK 921   NORMALIZED FREE ENERGY PREDICTED BY IDOCK:   -2.01 KCAL/MOL
REMARK 922        TOTAL FREE ENERGY PREDICTED BY IDOCK:   -5.40 KCAL/MOL
REMARK 923 INTER-LIGAND FREE ENERGY PREDICTED BY IDOCK:   -4.72 KCAL/MOL
REMARK 924 INTRA-LIGAND FREE ENERGY PREDICTED BY IDOCK:   -0.68 KCAL/MOL
REMARK 927      BINDING AFFINITY PREDICTED BY RF-SCORE:    0.00 PKD
ROOT
HETATM    1  C   UNL     1      -5.599   5.270  69.037  1.00  0.00    -0.008 C  
HETATM    2  C   UNL     1      -5.928   6.347  68.016  1.00  0.00    -0.020 C  
ENDROOT
BRANCH   2   3
HETATM    3  C   UNL     1      -6.908   5.830  66.969  1.00  0.00    -0.063 C  
BRANCH   3   4
HETATM    4  C   UNL     1      -8.148   5.222  67.623  1.00  0.00    -0.100 C  
BRANCH   4   5
HETATM    5  C   UNL     1      -9.379   6.048  67.283  1.00  0.00    -0.115 C  
BRANCH   5   6
HETATM    6  C   UNL     1      -9.621   7.169  68.293  1.00  0.00    -0.136 C  
BRANCH   6   7
HETATM    7  C   UNL     1     -10.971   6.941  68.966  1.00  0.00    -0.225 C  
BRANCH   7   8
HETATM    8  C   UNL     1     -10.868   6.030  70.185  1.00  0.00    -0.339 C  
BRANCH   8   9
HETATM    9  N   UNL     1     -10.749   6.818  71.521  1.00  0.00    -0.223 N  
HETATM   10  C   UNL     1     -11.587   6.143  72.608  1.00  0.00    -0.197 C  
HETATM   11  C   UNL     1      -9.287   6.887  71.963  1.00  0.00    -0.140 C  
BRANCH   9  12
HETATM   12  C   UNL     1     -11.290   8.247  71.234  1.00  0.00    -0.267 C  
BRANCH  12  13
HETATM   13  C   UNL     1     -12.418   8.653  72.178  1.00  0.00    -0.453 C  
BRANCH  13  14
HETATM   14  C   UNL     1     -13.009  10.017  71.828  1.00  0.00    -0.560 C  
BRANCH  14  15
HETATM   15  C   UNL     1     -12.085  10.711  70.828  1.00  0.00    -0.474 C  
BRANCH  15  16
HETATM   16  C   UNL     1     -12.455  12.173  70.621  1.00  0.00    -0.330 C  
BRANCH  16  17
HETATM   17  C   UNL     1     -11.537  12.807  69.577  1.00  0.00    -0.342 C  
BRANCH  17  18
HETATM   18  C   UNL     1     -11.870  12.314  68.173  1.00  0.00    -0.372 C  
HETATM   19  C   UNL     1     -11.044  11.090  67.812  1.00  0.00    -0.356 C  
ENDBRANCH  17  18
ENDBRANCH  16  17
ENDBRANCH  15  16
ENDBRANCH  14  15
ENDBRANCH  13  14
ENDBRANCH  12  13
ENDBRANCH   9  12
ENDBRANCH   8   9
ENDBRANCH   7   8
ENDBRANCH   6   7
ENDBRANCH   5   6
ENDBRANCH   4   5
ENDBRANCH   3   4
ENDBRANCH   2   3
TORSDOF 14
ENDMDL
MODEL      336
REMARK 921   NORMALIZED FREE ENERGY PREDICTED BY IDOCK:   -2.01 KCAL/MOL
REMARK 922        TOTAL FREE ENERGY PREDICTED BY IDOCK:   -5.39 KCAL/MOL
REMARK 923 INTER-LIGAND FREE ENERGY PREDICTED BY IDOCK:   -4.70 KCAL/MOL
REMARK 924 INTRA-LIGAND FREE ENERGY PREDICTED BY IDOCK:   -0.69 KCAL/MOL
REMARK 927      BINDING AFFINITY PREDICTED BY RF-SCORE:    0.00 PKD
ROOT
HETATM    1  C   UNL     1     -12.667  12.181  63.771  1.00  0.00    -0.525 C  
HETATM    2  C   UNL     1     -12.365  12.853  65.101  1.00  0.00    -0.547 C  
ENDROOT
BRANCH   2   3
HETATM    3  C   UNL     1     -11.174  13.796  64.982  1.00  0.00    -0.339 C  
BRANCH   3   4
HETATM    4  C   UNL     1      -9.888  13.127  65.465  1.00  0.00    -0.153 C  
BRANCH   4   5
HETATM    5  C   UNL     1     -10.014  12.745  66.932  1.00  0.00    -0.232 C  
BRANCH   5   6
HETATM    6  C   UNL     1      -9.192  11.504  67.279  1.00  0.00    -0.168 C  
BRANCH   6   7
HETATM    7  C   UNL     1      -9.190  11.324  68.794  1.00  0.00    -0.133 C  
BRANCH   7   8
HETATM    8  C   UNL     1      -8.974   9.871  69.208  1.00  0.00    -0.178 C  
BRANCH   8   9
HETATM    9  N   UNL     1     -10.226   9.243  69.885  1.00  0.00    -0.201 N  
HETATM   10  C   UNL     1      -9.989   9.087  71.388  1.00  0.00    -0.318 C  
HETATM   11  C   UNL     1     -11.453  10.123  69.643  1.00  0.00    -0.198 C  
BRANCH   9  12
HETATM   12  C   UNL     1     -10.426   7.850  69.224  1.00  0.00    -0.216 C  
BRANCH  12  13
HETATM   13  C   UNL     1     -10.631   7.936  67.715  1.00  0.00    -0.244 C  
BRANCH  13  14
HETATM   14  C   UNL     1     -10.960   6.581  67.093  1.00  0.00    -0.480 C  
BRANCH  14  15
HETATM   15  C   UNL     1      -9.691   5.731  67.066  1.00  0.00    -0.155 C  
BRANCH  15  16
HETATM   16  C   UNL     1      -9.941   4.341  66.497  1.00  0.00    -0.214 C  
BRANCH  16  17
HETATM   17  C   UNL     1      -9.769   4.353  64.980  1.00  0.00    -0.172 C  
BRANCH  17  18
HETATM   18  C   UNL     1      -8.990   3.133  64.500  1.00  0.00    -0.121 C  
HETATM   19  C   UNL     1      -9.726   2.417  63.380  1.00  0.00    -0.106 C  
ENDBRANCH  17  18
ENDBRANCH  16  17
ENDBRANCH  15  16
ENDBRANCH  14  15
ENDBRANCH  13  14
ENDBRANCH  12  13
ENDBRANCH   9  12
ENDBRANCH   8   9
ENDBRANCH   7   8
ENDBRANCH   6   7
ENDBRANCH   5   6
ENDBRANCH   4   5
ENDBRANCH   3   4
ENDBRANCH   2   3
TORSDOF 14
ENDMDL
MODEL      337
REMARK 921   NORMALIZED FREE ENERGY PREDICTED BY IDOCK:   -2.01 KCAL/MOL
REMARK 922        TOTAL FREE ENERGY PREDICTED BY IDOCK:   -5.38 KCAL/MOL
REMARK 923 INTER-LIGAND FREE ENERGY PREDICTED BY IDOCK:   -4.44 KCAL/MOL
REMARK 924 INTRA-LIGAND FREE ENERGY PREDICTED BY IDOCK:   -0.94 KCAL/MOL
REMARK 927      BINDING AFFINITY PREDICTED BY RF-SCORE:    0.00 PKD
ROOT
HETATM    1  C   UNL     1      -9.354   6.165  72.944  1.00  0.00    -0.143 C  
HETATM    2  C   UNL     1     -10.472   5.555  72.113  1.00  0.00    -0.272 C  
ENDROOT
BRANCH   2   3
HETATM    3  C   UNL     1     -11.804   6.236  72.400  1.00  0.00    -0.272 C  
BRANCH   3   4
HETATM    4  C   UNL     1     -12.150   7.256  71.316  1.00  0.00    -0.373 C  
BRANCH   4   5
HETATM    5  C   UNL     1     -12.236   8.652  71.916  1.00  0.00    -0.419 C  
BRANCH   5   6
HETATM    6  C   UNL     1     -11.294   9.637  71.225  1.00  0.00    -0.458 C  
BRANCH   6   7
HETATM    7  C   UNL     1     -10.984   9.121  69.823  1.00  0.00    -0.195 C  
BRANCH   7   8
HETATM    8  C   UNL     1      -9.516   9.302  69.447  1.00  0.00    -0.168 C  
BRANCH   8   9
HETATM    9  N   UNL     1      -9.223   8.937  67.964  1.00  0.00    -0.139 N  
HETATM   10  C   UNL     1      -7.926   8.133  67.865  1.00  0.00    -0.127 C  
HETATM   11  C   UNL     1     -10.381   8.125  67.383  1.00  0.00    -0.281 C  
BRANCH   9  12
HETATM   12  C   UNL     1      -9.079  10.285  67.203  1.00  0.00    -0.142 C  
BRANCH  12  13
HETATM   13  C   UNL     1      -7.640  10.792  67.165  1.00  0.00    -0.105 C  
BRANCH  13  14
HETATM   14  C   UNL     1      -7.468  12.118  67.901  1.00  0.00    -0.117 C  
BRANCH  14  15
HETATM   15  C   UNL     1      -8.834  12.794  68.022  1.00  0.00    -0.195 C  
BRANCH  15  16
HETATM   16  C   UNL     1      -8.884  14.126  67.286  1.00  0.00    -0.227 C  
BRANCH  16  17
HETATM   17  C   UNL     1     -10.314  14.660  67.259  1.00  0.00    -0.256 C  
BRANCH  17  18
HETATM   18  C   UNL     1     -10.414  16.012  67.957  1.00  0.00    -0.275 C  
HETATM   19  C   UNL     1     -10.437  17.149  66.949  1.00  0.00    -0.274 C  
ENDBRANCH  17  18
ENDBRANCH  16  17
ENDBRANCH  15  16
ENDBRANCH  14  15
ENDBRANCH  13  14
ENDBRANCH  12  13
ENDBRANCH   9  12
ENDBRANCH   8   9
ENDBRANCH   7   8
ENDBRANCH   6   7
ENDBRANCH   5   6
ENDBRANCH   4   5
ENDBRANCH   3   4
ENDBRANCH   2   3
TORSDOF 14
ENDMDL
MODEL      338
REMARK 921   NORMALIZED FREE ENERGY PREDICTED BY IDOCK:   -1.98 KCAL/MOL
REMARK 922        TOTAL FREE ENERGY PREDICTED BY IDOCK:   -5.34 KCAL/MOL
REMARK 923 INTER-LIGAND FREE ENERGY PREDICTED BY IDOCK:   -4.41 KCAL/MOL
REMARK 924 INTRA-LIGAND FREE ENERGY PREDICTED BY IDOCK:   -0.93 KCAL/MOL
REMARK 927      BINDING AFFINITY PREDICTED BY RF-SCORE:    0.00 PKD
ROOT
HETATM    1  C   UNL     1     -12.329  13.618  63.973  1.00  0.00    -0.382 C  
HETATM    2  C   UNL     1     -11.943  12.274  63.375  1.00  0.00    -0.588 C  
ENDROOT
BRANCH   2   3
HETATM    3  C   UNL     1     -10.494  11.927  63.695  1.00  0.00    -0.493 C  
BRANCH   3   4
HETATM    4  C   UNL     1     -10.407  10.717  64.626  1.00  0.00    -0.394 C  
BRANCH   4   5
HETATM    5  C   UNL     1     -10.575  11.156  66.073  1.00  0.00    -0.298 C  
BRANCH   5   6
HETATM    6  C   UNL     1      -9.272  11.687  66.671  1.00  0.00    -0.196 C  
BRANCH   6   7
HETATM    7  C   UNL     1      -9.188  11.251  68.130  1.00  0.00    -0.170 C  
BRANCH   7   8
HETATM    8  C   UNL     1      -8.100  10.207  68.364  1.00  0.00    -0.104 C  
BRANCH   8   9
HETATM    9  N   UNL     1      -8.584   9.015  69.238  1.00  0.00    -0.133 N  
HETATM   10  C   UNL     1      -8.978   9.508  70.630  1.00  0.00    -0.166 C  
HETATM   11  C   UNL     1      -9.777   8.327  68.575  1.00  0.00    -0.156 C  
BRANCH   9  12
HETATM   12  C   UNL     1      -7.384   8.031  69.336  1.00  0.00    -0.080 C  
BRANCH  12  13
HETATM   13  C   UNL     1      -7.576   6.778  68.488  1.00  0.00    -0.104 C  
BRANCH  13  14
HETATM   14  C   UNL     1      -7.538   5.498  69.320  1.00  0.00    -0.086 C  
BRANCH  14  15
HETATM   15  C   UNL     1      -8.517   4.491  68.719  1.00  0.00    -0.093 C  
BRANCH  15  16
HETATM   16  C   UNL     1      -9.500   3.957  69.751  1.00  0.00    -0.264 C  
BRANCH  16  17
HETATM   17  C   UNL     1     -10.093   5.109  70.560  1.00  0.00    -0.326 C  
BRANCH  17  18
HETATM   18  C   UNL     1     -10.132   4.779  72.048  1.00  0.00    -0.258 C  
HETATM   19  C   UNL     1      -8.830   5.169  72.729  1.00  0.00    -0.118 C  
ENDBRANCH  17  18
ENDBRANCH  16  17
ENDBRANCH  15  16
ENDBRANCH  14  15
ENDBRANCH  13  14
ENDBRANCH  12  13
ENDBRANCH   9  12
ENDBRANCH   8   9
ENDBRANCH   7   8
ENDBRANCH   6   7
ENDBRANCH   5   6
ENDBRANCH   4   5
ENDBRANCH   3   4
ENDBRANCH   2   3
TORSDOF 14
ENDMDL
MODEL      339
REMARK 921   NORMALIZED FREE ENERGY PREDICTED BY IDOCK:   -1.98 KCAL/MOL
REMARK 922        TOTAL FREE ENERGY PREDICTED BY IDOCK:   -5.33 KCAL/MOL
REMARK 923 INTER-LIGAND FREE ENERGY PREDICTED BY IDOCK:   -3.73 KCAL/MOL
REMARK 924 INTRA-LIGAND FREE ENERGY PREDICTED BY IDOCK:   -1.60 KCAL/MOL
REMARK 927      BINDING AFFINITY PREDICTED BY RF-SCORE:    0.00 PKD
ROOT
HETATM    1  C   UNL     1      -6.166   6.136  66.169  1.00  0.00    -0.037 C  
HETATM    2  C   UNL     1      -7.325   6.704  66.973  1.00  0.00    -0.082 C  
ENDROOT
BRANCH   2   3
HETATM    3  C   UNL     1      -7.442   6.016  68.328  1.00  0.00    -0.086 C  
BRANCH   3   4
HETATM    4  C   UNL     1      -7.486   7.037  69.465  1.00  0.00    -0.096 C  
BRANCH   4   5
HETATM    5  C   UNL     1      -6.717   8.290  69.075  1.00  0.00    -0.048 C  
BRANCH   5   6
HETATM    6  C   UNL     1      -7.418   9.567  69.540  1.00  0.00    -0.092 C  
BRANCH   6   7
HETATM    7  C   UNL     1      -8.575   9.866  68.591  1.00  0.00    -0.119 C  
BRANCH   7   8
HETATM    8  C   UNL     1      -9.000  11.330  68.635  1.00  0.00    -0.147 C  
BRANCH   8   9
HETATM    9  N   UNL     1     -10.538  11.518  68.489  1.00  0.00    -0.201 N  
HETATM   10  C   UNL     1     -10.847  12.884  67.878  1.00  0.00    -0.227 C  
HETATM   11  C   UNL     1     -11.122  10.412  67.609  1.00  0.00    -0.293 C  
BRANCH   9  12
HETATM   12  C   UNL     1     -11.126  11.425  69.926  1.00  0.00    -0.059 C  
BRANCH  12  13
HETATM   13  C   UNL     1     -11.991  10.186  70.131  1.00  0.00    -0.262 C  
BRANCH  13  14
HETATM   14  C   UNL     1     -11.791   9.557  71.508  1.00  0.00    -0.478 C  
BRANCH  14  15
HETATM   15  C   UNL     1     -10.307   9.244  71.695  1.00  0.00    -0.300 C  
BRANCH  15  16
HETATM   16  C   UNL     1     -10.051   7.755  71.883  1.00  0.00    -0.231 C  
BRANCH  16  17
HETATM   17  C   UNL     1     -10.950   7.201  72.987  1.00  0.00    -0.357 C  
BRANCH  17  18
HETATM   18  C   UNL     1     -11.405   5.781  72.670  1.00  0.00    -0.349 C  
HETATM   19  C   UNL     1     -10.403   5.071  71.774  1.00  0.00    -0.268 C  
ENDBRANCH  17  18
ENDBRANCH  16  17
ENDBRANCH  15  16
ENDBRANCH  14  15
ENDBRANCH  13  14
ENDBRANCH  12  13
ENDBRANCH   9  12
ENDBRANCH   8   9
ENDBRANCH   7   8
ENDBRANCH   6   7
ENDBRANCH   5   6
ENDBRANCH   4   5
ENDBRANCH   3   4
ENDBRANCH   2   3
TORSDOF 14
ENDMDL
MODEL      340
REMARK 921   NORMALIZED FREE ENERGY PREDICTED BY IDOCK:   -1.96 KCAL/MOL
REMARK 922        TOTAL FREE ENERGY PREDICTED BY IDOCK:   -5.30 KCAL/MOL
REMARK 923 INTER-LIGAND FREE ENERGY PREDICTED BY IDOCK:   -5.27 KCAL/MOL
REMARK 924 INTRA-LIGAND FREE ENERGY PREDICTED BY IDOCK:   -0.03 KCAL/MOL
REMARK 927      BINDING AFFINITY PREDICTED BY RF-SCORE:    0.00 PKD
ROOT
HETATM    1  C   UNL     1      -9.238  10.847  63.465  1.00  0.00    -0.258 C  
HETATM    2  C   UNL     1     -10.739  11.068  63.566  1.00  0.00    -0.230 C  
ENDROOT
BRANCH   2   3
HETATM    3  C   UNL     1     -11.057  12.504  63.965  1.00  0.00    -0.449 C  
BRANCH   3   4
HETATM    4  C   UNL     1     -12.563  12.714  64.122  1.00  0.00    -0.442 C  
BRANCH   4   5
HETATM    5  C   UNL     1     -12.839  13.721  65.229  1.00  0.00    -0.430 C  
BRANCH   5   6
HETATM    6  C   UNL     1     -11.588  14.508  65.620  1.00  0.00    -0.344 C  
BRANCH   6   7
HETATM    7  C   UNL     1     -11.600  14.732  67.129  1.00  0.00    -0.373 C  
BRANCH   7   8
HETATM    8  C   UNL     1     -12.074  13.501  67.896  1.00  0.00    -0.269 C  
BRANCH   8   9
HETATM    9  N   UNL     1     -10.936  12.470  68.147  1.00  0.00    -0.217 N  
HETATM   10  C   UNL     1     -11.361  11.086  67.657  1.00  0.00    -0.281 C  
HETATM   11  C   UNL     1      -9.661  12.907  67.424  1.00  0.00    -0.201 C  
BRANCH   9  12
HETATM   12  C   UNL     1     -10.700  12.447  69.684  1.00  0.00     0.440 C  
BRANCH  12  13
HETATM   13  C   UNL     1     -11.982  12.217  70.476  1.00  0.00    -0.308 C  
BRANCH  13  14
HETATM   14  C   UNL     1     -12.543  10.809  70.283  1.00  0.00    -0.350 C  
BRANCH  14  15
HETATM   15  C   UNL     1     -12.725  10.160  71.655  1.00  0.00    -0.549 C  
BRANCH  15  16
HETATM   16  C   UNL     1     -11.566   9.241  72.015  1.00  0.00    -0.305 C  
BRANCH  16  17
HETATM   17  C   UNL     1     -10.799   8.840  70.756  1.00  0.00    -0.282 C  
BRANCH  17  18
HETATM   18  C   UNL     1      -9.298   8.787  71.015  1.00  0.00    -0.280 C  
HETATM   19  C   UNL     1      -8.767   7.370  70.872  1.00  0.00    -0.144 C  
ENDBRANCH  17  18
ENDBRANCH  16  17
ENDBRANCH  15  16
ENDBRANCH  14  15
ENDBRANCH  13  14
ENDBRANCH  12  13
ENDBRANCH   9  12
ENDBRANCH   8   9
ENDBRANCH   7   8
ENDBRANCH   6   7
ENDBRANCH   5   6
ENDBRANCH   4   5
ENDBRANCH   3   4
ENDBRANCH   2   3
TORSDOF 14
ENDMDL
MODEL      341
REMARK 921   NORMALIZED FREE ENERGY PREDICTED BY IDOCK:   -1.96 KCAL/MOL
REMARK 922        TOTAL FREE ENERGY PREDICTED BY IDOCK:   -5.30 KCAL/MOL
REMARK 923 INTER-LIGAND FREE ENERGY PREDICTED BY IDOCK:   -3.73 KCAL/MOL
REMARK 924 INTRA-LIGAND FREE ENERGY PREDICTED BY IDOCK:   -1.57 KCAL/MOL
REMARK 927      BINDING AFFINITY PREDICTED BY RF-SCORE:    0.00 PKD
ROOT
HETATM    1  C   UNL     1      -7.129   2.962  73.329  1.00  0.00    -0.040 C  
HETATM    2  C   UNL     1      -7.261   4.474  73.416  1.00  0.00    -0.080 C  
ENDROOT
BRANCH   2   3
HETATM    3  C   UNL     1      -7.659   5.070  72.071  1.00  0.00    -0.096 C  
BRANCH   3   4
HETATM    4  C   UNL     1      -8.997   5.803  72.164  1.00  0.00    -0.137 C  
BRANCH   4   5
HETATM    5  C   UNL     1     -10.008   5.171  71.218  1.00  0.00    -0.257 C  
BRANCH   5   6
HETATM    6  C   UNL     1      -9.359   4.167  70.265  1.00  0.00    -0.232 C  
BRANCH   6   7
HETATM    7  C   UNL     1      -9.726   4.542  68.833  1.00  0.00    -0.224 C  
BRANCH   7   8
HETATM    8  C   UNL     1      -8.697   5.469  68.192  1.00  0.00    -0.102 C  
BRANCH   8   9
HETATM    9  N   UNL     1      -8.705   5.399  66.638  1.00  0.00    -0.114 N  
HETATM   10  C   UNL     1      -7.570   4.501  66.145  1.00  0.00    -0.090 C  
HETATM   11  C   UNL     1     -10.046   4.856  66.143  1.00  0.00    -0.254 C  
BRANCH   9  12
HETATM   12  C   UNL     1      -8.497   6.855  66.135  1.00  0.00    -0.136 C  
BRANCH  12  13
HETATM   13  C   UNL     1      -8.858   7.901  67.186  1.00  0.00    -0.137 C  
BRANCH  13  14
HETATM   14  C   UNL     1     -10.003   8.805  66.739  1.00  0.00    -0.338 C  
BRANCH  14  15
HETATM   15  C   UNL     1     -10.661   9.414  67.977  1.00  0.00    -0.278 C  
BRANCH  15  16
HETATM   16  C   UNL     1      -9.966   8.992  69.264  1.00  0.00    -0.188 C  
BRANCH  16  17
HETATM   17  C   UNL     1     -10.968   8.343  70.217  1.00  0.00    -0.236 C  
BRANCH  17  18
HETATM   18  C   UNL     1     -11.256   9.240  71.415  1.00  0.00    -0.433 C  
HETATM   19  C   UNL     1     -11.715   8.425  72.613  1.00  0.00    -0.364 C  
ENDBRANCH  17  18
ENDBRANCH  16  17
ENDBRANCH  15  16
ENDBRANCH  14  15
ENDBRANCH  13  14
ENDBRANCH  12  13
ENDBRANCH   9  12
ENDBRANCH   8   9
ENDBRANCH   7   8
ENDBRANCH   6   7
ENDBRANCH   5   6
ENDBRANCH   4   5
ENDBRANCH   3   4
ENDBRANCH   2   3
TORSDOF 14
ENDMDL
MODEL      342
REMARK 921   NORMALIZED FREE ENERGY PREDICTED BY IDOCK:   -1.95 KCAL/MOL
REMARK 922        TOTAL FREE ENERGY PREDICTED BY IDOCK:   -5.29 KCAL/MOL
REMARK 923 INTER-LIGAND FREE ENERGY PREDICTED BY IDOCK:   -3.89 KCAL/MOL
REMARK 924 INTRA-LIGAND FREE ENERGY PREDICTED BY IDOCK:   -1.40 KCAL/MOL
REMARK 927      BINDING AFFINITY PREDICTED BY RF-SCORE:    0.00 PKD
ROOT
HETATM    1  C   UNL     1     -12.240  14.790  64.304  1.00  0.00    -0.402 C  
HETATM    2  C   UNL     1     -11.215  14.053  65.150  1.00  0.00    -0.329 C  
ENDROOT
BRANCH   2   3
HETATM    3  C   UNL     1     -11.800  13.657  66.500  1.00  0.00    -0.441 C  
BRANCH   3   4
HETATM    4  C   UNL     1     -11.543  12.181  66.805  1.00  0.00    -0.412 C  
BRANCH   4   5
HETATM    5  C   UNL     1     -10.475  11.632  65.871  1.00  0.00    -0.300 C  
BRANCH   5   6
HETATM    6  C   UNL     1     -10.199  10.149  66.118  1.00  0.00    -0.285 C  
BRANCH   6   7
HETATM    7  C   UNL     1      -8.987  10.020  67.036  1.00  0.00    -0.152 C  
BRANCH   7   8
HETATM    8  C   UNL     1      -7.914  11.062  66.733  1.00  0.00    -0.152 C  
BRANCH   8   9
HETATM    9  N   UNL     1      -6.471  10.489  66.826  1.00  0.00    -0.075 N  
HETATM   10  C   UNL     1      -6.411   9.104  66.184  1.00  0.00    -0.065 C  
HETATM   11  C   UNL     1      -5.486  11.428  66.127  1.00  0.00    -0.038 C  
BRANCH   9  12
HETATM   12  C   UNL     1      -6.137  10.395  68.342  1.00  0.00    -0.044 C  
BRANCH  12  13
HETATM   13  C   UNL     1      -6.927  11.391  69.185  1.00  0.00    -0.118 C  
BRANCH  13  14
HETATM   14  C   UNL     1      -6.072  12.565  69.654  1.00  0.00    -0.133 C  
BRANCH  14  15
HETATM   15  C   UNL     1      -6.204  13.704  68.644  1.00  0.00    -0.088 C  
BRANCH  15  16
HETATM   16  C   UNL     1      -7.578  14.359  68.691  1.00  0.00    -0.132 C  
BRANCH  16  17
HETATM   17  C   UNL     1      -8.169  14.446  67.285  1.00  0.00    -0.223 C  
BRANCH  17  18
HETATM   18  C   UNL     1      -8.459  15.891  66.894  1.00  0.00    -0.275 C  
HETATM   19  C   UNL     1      -9.620  16.453  67.698  1.00  0.00    -0.227 C  
ENDBRANCH  17  18
ENDBRANCH  16  17
ENDBRANCH  15  16
ENDBRANCH  14  15
ENDBRANCH  13  14
ENDBRANCH  12  13
ENDBRANCH   9  12
ENDBRANCH   8   9
ENDBRANCH   7   8
ENDBRANCH   6   7
ENDBRANCH   5   6
ENDBRANCH   4   5
ENDBRANCH   3   4
ENDBRANCH   2   3
TORSDOF 14
ENDMDL
MODEL      343
REMARK 921   NORMALIZED FREE ENERGY PREDICTED BY IDOCK:   -1.95 KCAL/MOL
REMARK 922        TOTAL FREE ENERGY PREDICTED BY IDOCK:   -5.28 KCAL/MOL
REMARK 923 INTER-LIGAND FREE ENERGY PREDICTED BY IDOCK:   -4.63 KCAL/MOL
REMARK 924 INTRA-LIGAND FREE ENERGY PREDICTED BY IDOCK:   -0.65 KCAL/MOL
REMARK 927      BINDING AFFINITY PREDICTED BY RF-SCORE:    0.00 PKD
ROOT
HETATM    1  C   UNL     1      -5.864  16.080  67.745  1.00  0.00    -0.162 C  
HETATM    2  C   UNL     1      -6.457  14.919  68.529  1.00  0.00    -0.091 C  
ENDROOT
BRANCH   2   3
HETATM    3  C   UNL     1      -7.878  15.230  68.980  1.00  0.00    -0.184 C  
BRANCH   3   4
HETATM    4  C   UNL     1      -8.462  16.408  68.201  1.00  0.00    -0.188 C  
BRANCH   4   5
HETATM    5  C   UNL     1      -9.964  16.232  68.031  1.00  0.00    -0.240 C  
BRANCH   5   6
HETATM    6  C   UNL     1     -10.309  15.325  66.850  1.00  0.00    -0.278 C  
BRANCH   6   7
HETATM    7  C   UNL     1     -10.923  14.034  67.385  1.00  0.00    -0.302 C  
BRANCH   7   8
HETATM    8  C   UNL     1     -12.110  13.564  66.549  1.00  0.00    -0.408 C  
BRANCH   8   9
HETATM    9  N   UNL     1     -11.681  12.763  65.287  1.00  0.00    -0.348 N  
HETATM   10  C   UNL     1     -12.900  12.463  64.414  1.00  0.00    -0.250 C  
HETATM   11  C   UNL     1     -10.652  13.559  64.483  1.00  0.00    -0.424 C  
BRANCH   9  12
HETATM   12  C   UNL     1     -11.050  11.439  65.804  1.00  0.00    -0.153 C  
BRANCH  12  13
HETATM   13  C   UNL     1     -10.067  10.825  64.811  1.00  0.00    -0.396 C  
BRANCH  13  14
HETATM   14  C   UNL     1      -8.737  10.455  65.462  1.00  0.00    -0.190 C  
BRANCH  14  15
HETATM   15  C   UNL     1      -9.013   9.856  66.840  1.00  0.00    -0.154 C  
BRANCH  15  16
HETATM   16  C   UNL     1      -8.101  10.435  67.913  1.00  0.00    -0.102 C  
BRANCH  16  17
HETATM   17  C   UNL     1      -8.747  10.289  69.289  1.00  0.00    -0.182 C  
BRANCH  17  18
HETATM   18  C   UNL     1     -10.180   9.780  69.178  1.00  0.00    -0.211 C  
HETATM   19  C   UNL     1     -11.110  10.557  70.094  1.00  0.00    -0.369 C  
ENDBRANCH  17  18
ENDBRANCH  16  17
ENDBRANCH  15  16
ENDBRANCH  14  15
ENDBRANCH  13  14
ENDBRANCH  12  13
ENDBRANCH   9  12
ENDBRANCH   8   9
ENDBRANCH   7   8
ENDBRANCH   6   7
ENDBRANCH   5   6
ENDBRANCH   4   5
ENDBRANCH   3   4
ENDBRANCH   2   3
TORSDOF 14
ENDMDL
MODEL      344
REMARK 921   NORMALIZED FREE ENERGY PREDICTED BY IDOCK:   -1.95 KCAL/MOL
REMARK 922        TOTAL FREE ENERGY PREDICTED BY IDOCK:   -5.28 KCAL/MOL
REMARK 923 INTER-LIGAND FREE ENERGY PREDICTED BY IDOCK:   -4.42 KCAL/MOL
REMARK 924 INTRA-LIGAND FREE ENERGY PREDICTED BY IDOCK:   -0.86 KCAL/MOL
REMARK 927      BINDING AFFINITY PREDICTED BY RF-SCORE:    0.00 PKD
ROOT
HETATM    1  C   UNL     1      -6.892  10.175  69.570  1.00  0.00    -0.079 C  
HETATM    2  C   UNL     1      -7.714   8.930  69.865  1.00  0.00    -0.076 C  
ENDROOT
BRANCH   2   3
HETATM    3  C   UNL     1      -8.993   9.281  70.614  1.00  0.00    -0.296 C  
BRANCH   3   4
HETATM    4  C   UNL     1     -10.232   8.867  69.821  1.00  0.00    -0.207 C  
BRANCH   4   5
HETATM    5  C   UNL     1     -10.988  10.099  69.347  1.00  0.00    -0.285 C  
BRANCH   5   6
HETATM    6  C   UNL     1     -10.378  10.699  68.080  1.00  0.00    -0.208 C  
BRANCH   6   7
HETATM    7  C   UNL     1     -11.349  11.727  67.507  1.00  0.00    -0.377 C  
BRANCH   7   8
HETATM    8  C   UNL     1     -10.841  12.347  66.208  1.00  0.00    -0.266 C  
BRANCH   8   9
HETATM    9  N   UNL     1     -11.208  13.853  66.073  1.00  0.00    -0.297 N  
HETATM   10  C   UNL     1     -10.945  14.333  64.646  1.00  0.00    -0.367 C  
HETATM   11  C   UNL     1     -12.679  14.070  66.430  1.00  0.00    -0.096 C  
BRANCH   9  12
HETATM   12  C   UNL     1     -10.295  14.615  67.074  1.00  0.00    -0.263 C  
BRANCH  12  13
HETATM   13  C   UNL     1     -11.085  15.356  68.148  1.00  0.00    -0.309 C  
BRANCH  13  14
HETATM   14  C   UNL     1     -10.234  16.381  68.895  1.00  0.00    -0.258 C  
BRANCH  14  15
HETATM   15  C   UNL     1      -8.826  15.815  69.072  1.00  0.00    -0.236 C  
BRANCH  15  16
HETATM   16  C   UNL     1      -7.751  16.792  68.614  1.00  0.00    -0.232 C  
BRANCH  16  17
HETATM   17  C   UNL     1      -7.129  16.315  67.303  1.00  0.00    -0.226 C  
BRANCH  17  18
HETATM   18  C   UNL     1      -5.613  16.478  67.318  1.00  0.00    -0.172 C  
HETATM   19  C   UNL     1      -5.205  17.850  66.805  1.00  0.00    -0.172 C  
ENDBRANCH  17  18
ENDBRANCH  16  17
ENDBRANCH  15  16
ENDBRANCH  14  15
ENDBRANCH  13  14
ENDBRANCH  12  13
ENDBRANCH   9  12
ENDBRANCH   8   9
ENDBRANCH   7   8
ENDBRANCH   6   7
ENDBRANCH   5   6
ENDBRANCH   4   5
ENDBRANCH   3   4
ENDBRANCH   2   3
TORSDOF 14
ENDMDL
MODEL      345
REMARK 921   NORMALIZED FREE ENERGY PREDICTED BY IDOCK:   -1.95 KCAL/MOL
REMARK 922        TOTAL FREE ENERGY PREDICTED BY IDOCK:   -5.28 KCAL/MOL
REMARK 923 INTER-LIGAND FREE ENERGY PREDICTED BY IDOCK:   -4.25 KCAL/MOL
REMARK 924 INTRA-LIGAND FREE ENERGY PREDICTED BY IDOCK:   -1.03 KCAL/MOL
REMARK 927      BINDING AFFINITY PREDICTED BY RF-SCORE:    0.00 PKD
ROOT
HETATM    1  C   UNL     1      -7.356   5.527  73.410  1.00  0.00    -0.095 C  
HETATM    2  C   UNL     1      -7.882   5.549  71.984  1.00  0.00    -0.106 C  
ENDROOT
BRANCH   2   3
HETATM    3  C   UNL     1      -8.032   6.978  71.476  1.00  0.00    -0.103 C  
BRANCH   3   4
HETATM    4  C   UNL     1      -6.673   7.593  71.141  1.00  0.00    -0.045 C  
BRANCH   4   5
HETATM    5  C   UNL     1      -6.561   7.831  69.642  1.00  0.00    -0.035 C  
BRANCH   5   6
HETATM    6  C   UNL     1      -6.345   9.306  69.306  1.00  0.00    -0.041 C  
BRANCH   6   7
HETATM    7  C   UNL     1      -7.372   9.727  68.260  1.00  0.00    -0.079 C  
BRANCH   7   8
HETATM    8  C   UNL     1      -8.236  10.895  68.728  1.00  0.00    -0.151 C  
BRANCH   8   9
HETATM    9  N   UNL     1      -9.745  10.531  68.823  1.00  0.00    -0.176 N  
HETATM   10  C   UNL     1     -10.011   9.712  70.086  1.00  0.00    -0.261 C  
HETATM   11  C   UNL     1     -10.593  11.803  68.842  1.00  0.00    -0.180 C  
BRANCH   9  12
HETATM   12  C   UNL     1     -10.070   9.688  67.558  1.00  0.00    -0.197 C  
BRANCH  12  13
HETATM   13  C   UNL     1     -10.781  10.496  66.476  1.00  0.00    -0.191 C  
BRANCH  13  14
HETATM   14  C   UNL     1      -9.832  10.947  65.367  1.00  0.00    -0.308 C  
BRANCH  14  15
HETATM   15  C   UNL     1     -10.598  10.972  64.045  1.00  0.00    -0.395 C  
BRANCH  15  16
HETATM   16  C   UNL     1     -10.988  12.384  63.631  1.00  0.00    -0.525 C  
BRANCH  16  17
HETATM   17  C   UNL     1     -12.366  12.735  64.188  1.00  0.00    -0.485 C  
BRANCH  17  18
HETATM   18  C   UNL     1     -12.377  14.131  64.800  1.00  0.00    -0.436 C  
HETATM   19  C   UNL     1     -12.428  14.064  66.318  1.00  0.00    -0.439 C  
ENDBRANCH  17  18
ENDBRANCH  16  17
ENDBRANCH  15  16
ENDBRANCH  14  15
ENDBRANCH  13  14
ENDBRANCH  12  13
ENDBRANCH   9  12
ENDBRANCH   8   9
ENDBRANCH   7   8
ENDBRANCH   6   7
ENDBRANCH   5   6
ENDBRANCH   4   5
ENDBRANCH   3   4
ENDBRANCH   2   3
TORSDOF 14
ENDMDL
MODEL      346
REMARK 921   NORMALIZED FREE ENERGY PREDICTED BY IDOCK:   -1.94 KCAL/MOL
REMARK 922        TOTAL FREE ENERGY PREDICTED BY IDOCK:   -5.27 KCAL/MOL
REMARK 923 INTER-LIGAND FREE ENERGY PREDICTED BY IDOCK:   -4.37 KCAL/MOL
REMARK 924 INTRA-LIGAND FREE ENERGY PREDICTED BY IDOCK:   -0.90 KCAL/MOL
REMARK 927      BINDING AFFINITY PREDICTED BY RF-SCORE:    0.00 PKD
ROOT
HETATM    1  C   UNL     1     -10.118   8.524  66.508  1.00  0.00    -0.328 C  
HETATM    2  C   UNL     1      -9.683   9.870  65.952  1.00  0.00    -0.326 C  
ENDROOT
BRANCH   2   3
HETATM    3  C   UNL     1      -9.007   9.711  64.596  1.00  0.00    -0.274 C  
BRANCH   3   4
HETATM    4  C   UNL     1      -9.510  10.756  63.600  1.00  0.00    -0.325 C  
BRANCH   4   5
HETATM    5  C   UNL     1     -10.907  11.219  63.987  1.00  0.00    -0.414 C  
BRANCH   5   6
HETATM    6  C   UNL     1     -11.447  12.284  63.033  1.00  0.00    -0.056 C  
BRANCH   6   7
HETATM    7  C   UNL     1     -11.662  13.578  63.813  1.00  0.00    -0.367 C  
BRANCH   7   8
HETATM    8  C   UNL     1     -11.483  13.389  65.316  1.00  0.00    -0.298 C  
BRANCH   8   9
HETATM    9  N   UNL     1     -11.075  14.700  66.046  1.00  0.00    -0.327 N  
HETATM   10  C   UNL     1     -11.282  15.903  65.125  1.00  0.00    -0.224 C  
HETATM   11  C   UNL     1     -11.905  14.874  67.319  1.00  0.00    -0.219 C  
BRANCH   9  12
HETATM   12  C   UNL     1      -9.570  14.549  66.405  1.00  0.00    -0.303 C  
BRANCH  12  13
HETATM   13  C   UNL     1      -9.308  13.418  67.394  1.00  0.00    -0.221 C  
BRANCH  13  14
HETATM   14  C   UNL     1      -8.868  13.930  68.763  1.00  0.00     0.007 C  
BRANCH  14  15
HETATM   15  C   UNL     1      -7.962  15.145  68.566  1.00  0.00    -0.142 C  
BRANCH  15  16
HETATM   16  C   UNL     1      -6.780  15.144  69.525  1.00  0.00    -0.171 C  
BRANCH  16  17
HETATM   17  C   UNL     1      -5.921  16.388  69.305  1.00  0.00    -0.154 C  
BRANCH  17  18
HETATM   18  C   UNL     1      -5.645  17.110  70.619  1.00  0.00    -0.068 C  
HETATM   19  C   UNL     1      -5.782  18.615  70.457  1.00  0.00    -0.160 C  
ENDBRANCH  17  18
ENDBRANCH  16  17
ENDBRANCH  15  16
ENDBRANCH  14  15
ENDBRANCH  13  14
ENDBRANCH  12  13
ENDBRANCH   9  12
ENDBRANCH   8   9
ENDBRANCH   7   8
ENDBRANCH   6   7
ENDBRANCH   5   6
ENDBRANCH   4   5
ENDBRANCH   3   4
ENDBRANCH   2   3
TORSDOF 14
ENDMDL
MODEL      347
REMARK 921   NORMALIZED FREE ENERGY PREDICTED BY IDOCK:   -1.94 KCAL/MOL
REMARK 922        TOTAL FREE ENERGY PREDICTED BY IDOCK:   -5.26 KCAL/MOL
REMARK 923 INTER-LIGAND FREE ENERGY PREDICTED BY IDOCK:   -4.54 KCAL/MOL
REMARK 924 INTRA-LIGAND FREE ENERGY PREDICTED BY IDOCK:   -0.72 KCAL/MOL
REMARK 927      BINDING AFFINITY PREDICTED BY RF-SCORE:    0.00 PKD
ROOT
HETATM    1  C   UNL     1      -5.734   5.923  68.513  1.00  0.00    -0.012 C  
HETATM    2  C   UNL     1      -5.769   7.199  67.687  1.00  0.00    -0.028 C  
ENDROOT
BRANCH   2   3
HETATM    3  C   UNL     1      -6.317   6.933  66.289  1.00  0.00    -0.050 C  
BRANCH   3   4
HETATM    4  C   UNL     1      -7.842   7.029  66.265  1.00  0.00    -0.104 C  
BRANCH   4   5
HETATM    5  C   UNL     1      -8.273   8.451  65.937  1.00  0.00    -0.123 C  
BRANCH   5   6
HETATM    6  C   UNL     1      -8.342   9.335  67.182  1.00  0.00    -0.124 C  
BRANCH   6   7
HETATM    7  C   UNL     1      -9.800   9.465  67.613  1.00  0.00    -0.217 C  
BRANCH   7   8
HETATM    8  C   UNL     1     -10.302   8.228  68.351  1.00  0.00    -0.199 C  
BRANCH   8   9
HETATM    9  N   UNL     1     -10.197   8.363  69.897  1.00  0.00    -0.197 N  
HETATM   10  C   UNL     1     -11.297   7.545  70.574  1.00  0.00    -0.260 C  
HETATM   11  C   UNL     1      -8.826   7.883  70.376  1.00  0.00    -0.142 C  
BRANCH   9  12
HETATM   12  C   UNL     1     -10.376   9.874  70.216  1.00  0.00    -0.281 C  
BRANCH  12  13
HETATM   13  C   UNL     1     -11.749  10.198  70.796  1.00  0.00    -0.446 C  
BRANCH  13  14
HETATM   14  C   UNL     1     -12.270  11.559  70.340  1.00  0.00    -0.442 C  
BRANCH  14  15
HETATM   15  C   UNL     1     -11.340  12.102  69.256  1.00  0.00    -0.327 C  
BRANCH  15  16
HETATM   16  C   UNL     1     -11.956  13.273  68.502  1.00  0.00    -0.340 C  
BRANCH  16  17
HETATM   17  C   UNL     1     -11.018  13.737  67.390  1.00  0.00    -0.296 C  
BRANCH  17  18
HETATM   18  C   UNL     1     -11.798  14.273  66.194  1.00  0.00    -0.413 C  
HETATM   19  C   UNL     1     -12.504  13.150  65.453  1.00  0.00    -0.535 C  
ENDBRANCH  17  18
ENDBRANCH  16  17
ENDBRANCH  15  16
ENDBRANCH  14  15
ENDBRANCH  13  14
ENDBRANCH  12  13
ENDBRANCH   9  12
ENDBRANCH   8   9
ENDBRANCH   7   8
ENDBRANCH   6   7
ENDBRANCH   5   6
ENDBRANCH   4   5
ENDBRANCH   3   4
ENDBRANCH   2   3
TORSDOF 14
ENDMDL
MODEL      348
REMARK 921   NORMALIZED FREE ENERGY PREDICTED BY IDOCK:   -1.94 KCAL/MOL
REMARK 922        TOTAL FREE ENERGY PREDICTED BY IDOCK:   -5.25 KCAL/MOL
REMARK 923 INTER-LIGAND FREE ENERGY PREDICTED BY IDOCK:   -4.34 KCAL/MOL
REMARK 924 INTRA-LIGAND FREE ENERGY PREDICTED BY IDOCK:   -0.92 KCAL/MOL
REMARK 927      BINDING AFFINITY PREDICTED BY RF-SCORE:    0.00 PKD
ROOT
HETATM    1  C   UNL     1      -8.342   7.682  69.891  1.00  0.00    -0.132 C  
HETATM    2  C   UNL     1      -8.249   7.587  68.377  1.00  0.00    -0.125 C  
ENDROOT
BRANCH   2   3
HETATM    3  C   UNL     1      -7.016   8.314  67.855  1.00  0.00    -0.078 C  
BRANCH   3   4
HETATM    4  C   UNL     1      -7.398   9.602  67.127  1.00  0.00    -0.087 C  
BRANCH   4   5
HETATM    5  C   UNL     1      -7.492  10.755  68.116  1.00  0.00    -0.091 C  
BRANCH   5   6
HETATM    6  C   UNL     1      -8.613  11.731  67.761  1.00  0.00    -0.151 C  
BRANCH   6   7
HETATM    7  C   UNL     1      -8.322  13.075  68.422  1.00  0.00    -0.118 C  
BRANCH   7   8
HETATM    8  C   UNL     1      -7.931  14.149  67.410  1.00  0.00    -0.184 C  
BRANCH   8   9
HETATM    9  N   UNL     1      -7.672  15.534  68.069  1.00  0.00    -0.123 N  
HETATM   10  C   UNL     1      -6.701  15.388  69.240  1.00  0.00    -0.150 C  
HETATM   11  C   UNL     1      -7.098  16.507  67.038  1.00  0.00    -0.212 C  
BRANCH   9  12
HETATM   12  C   UNL     1      -9.052  16.041  68.574  1.00  0.00    -0.203 C  
BRANCH  12  13
HETATM   13  C   UNL     1     -10.090  16.140  67.460  1.00  0.00    -0.256 C  
BRANCH  13  14
HETATM   14  C   UNL     1     -11.456  15.606  67.886  1.00  0.00    -0.253 C  
BRANCH  14  15
HETATM   15  C   UNL     1     -11.309  14.897  69.231  1.00  0.00    -0.315 C  
BRANCH  15  16
HETATM   16  C   UNL     1     -12.288  15.425  70.270  1.00  0.00    -0.425 C  
BRANCH  16  17
HETATM   17  C   UNL     1     -11.982  14.820  71.639  1.00  0.00    -0.411 C  
BRANCH  17  18
HETATM   18  C   UNL     1     -12.961  13.702  71.983  1.00  0.00    -0.427 C  
HETATM   19  C   UNL     1     -14.395  14.206  71.968  1.00  0.00    -0.599 C  
ENDBRANCH  17  18
ENDBRANCH  16  17
ENDBRANCH  15  16
ENDBRANCH  14  15
ENDBRANCH  13  14
ENDBRANCH  12  13
ENDBRANCH   9  12
ENDBRANCH   8   9
ENDBRANCH   7   8
ENDBRANCH   6   7
ENDBRANCH   5   6
ENDBRANCH   4   5
ENDBRANCH   3   4
ENDBRANCH   2   3
TORSDOF 14
ENDMDL
MODEL      349
REMARK 921   NORMALIZED FREE ENERGY PREDICTED BY IDOCK:   -1.93 KCAL/MOL
REMARK 922        TOTAL FREE ENERGY PREDICTED BY IDOCK:   -5.24 KCAL/MOL
REMARK 923 INTER-LIGAND FREE ENERGY PREDICTED BY IDOCK:   -4.44 KCAL/MOL
REMARK 924 INTRA-LIGAND FREE ENERGY PREDICTED BY IDOCK:   -0.79 KCAL/MOL
REMARK 927      BINDING AFFINITY PREDICTED BY RF-SCORE:    0.00 PKD
ROOT
HETATM    1  C   UNL     1      -7.432   3.572  72.453  1.00  0.00    -0.053 C  
HETATM    2  C   UNL     1      -8.340   4.501  73.243  1.00  0.00    -0.099 C  
ENDROOT
BRANCH   2   3
HETATM    3  C   UNL     1      -8.770   5.696  72.401  1.00  0.00    -0.128 C  
BRANCH   3   4
HETATM    4  C   UNL     1     -10.125   6.237  72.857  1.00  0.00    -0.196 C  
BRANCH   4   5
HETATM    5  C   UNL     1     -11.168   6.023  71.771  1.00  0.00    -0.333 C  
BRANCH   5   6
HETATM    6  C   UNL     1     -10.579   5.362  70.525  1.00  0.00    -0.312 C  
BRANCH   6   7
HETATM    7  C   UNL     1     -11.046   6.131  69.293  1.00  0.00    -0.463 C  
BRANCH   7   8
HETATM    8  C   UNL     1      -9.946   7.009  68.703  1.00  0.00    -0.156 C  
BRANCH   8   9
HETATM    9  N   UNL     1      -9.462   6.517  67.309  1.00  0.00    -0.122 N  
HETATM   10  C   UNL     1      -8.093   5.848  67.432  1.00  0.00    -0.102 C  
HETATM   11  C   UNL     1     -10.471   5.530  66.720  1.00  0.00    -0.296 C  
BRANCH   9  12
HETATM   12  C   UNL     1      -9.364   7.782  66.411  1.00  0.00    -0.181 C  
BRANCH  12  13
HETATM   13  C   UNL     1      -9.478   9.081  67.203  1.00  0.00    -0.196 C  
BRANCH  13  14
HETATM   14  C   UNL     1     -10.413  10.089  66.539  1.00  0.00    -0.223 C  
BRANCH  14  15
HETATM   15  C   UNL     1     -10.954  11.037  67.609  1.00  0.00    -0.332 C  
BRANCH  15  16
HETATM   16  C   UNL     1     -11.511  12.322  67.012  1.00  0.00    -0.419 C  
BRANCH  16  17
HETATM   17  C   UNL     1     -11.083  13.523  67.853  1.00  0.00    -0.288 C  
BRANCH  17  18
HETATM   18  C   UNL     1     -10.936  14.775  66.997  1.00  0.00    -0.324 C  
HETATM   19  C   UNL     1      -9.727  15.592  67.422  1.00  0.00    -0.218 C  
ENDBRANCH  17  18
ENDBRANCH  16  17
ENDBRANCH  15  16
ENDBRANCH  14  15
ENDBRANCH  13  14
ENDBRANCH  12  13
ENDBRANCH   9  12
ENDBRANCH   8   9
ENDBRANCH   7   8
ENDBRANCH   6   7
ENDBRANCH   5   6
ENDBRANCH   4   5
ENDBRANCH   3   4
ENDBRANCH   2   3
TORSDOF 14
ENDMDL
MODEL      350
REMARK 921   NORMALIZED FREE ENERGY PREDICTED BY IDOCK:   -1.91 KCAL/MOL
REMARK 922        TOTAL FREE ENERGY PREDICTED BY IDOCK:   -5.22 KCAL/MOL
REMARK 923 INTER-LIGAND FREE ENERGY PREDICTED BY IDOCK:   -4.39 KCAL/MOL
REMARK 924 INTRA-LIGAND FREE ENERGY PREDICTED BY IDOCK:   -0.82 KCAL/MOL
REMARK 927      BINDING AFFINITY PREDICTED BY RF-SCORE:    0.00 PKD
ROOT
HETATM    1  C   UNL     1     -11.666   5.926  72.255  1.00  0.00    -0.309 C  
HETATM    2  C   UNL     1     -12.622   7.004  71.770  1.00  0.00    -0.388 C  
ENDROOT
BRANCH   2   3
HETATM    3  C   UNL     1     -12.207   8.378  72.284  1.00  0.00    -0.449 C  
BRANCH   3   4
HETATM    4  C   UNL     1     -10.785   8.727  71.845  1.00  0.00    -0.429 C  
BRANCH   4   5
HETATM    5  C   UNL     1     -10.822   9.692  70.669  1.00  0.00    -0.386 C  
BRANCH   5   6
HETATM    6  C   UNL     1     -10.927   8.966  69.328  1.00  0.00    -0.026 C  
BRANCH   6   7
HETATM    7  C   UNL     1      -9.728   9.348  68.467  1.00  0.00    -0.160 C  
BRANCH   7   8
HETATM    8  C   UNL     1      -9.113  10.682  68.882  1.00  0.00    -0.176 C  
BRANCH   8   9
HETATM    9  N   UNL     1      -8.875  11.638  67.679  1.00  0.00    -0.154 N  
HETATM   10  C   UNL     1      -8.548  10.833  66.421  1.00  0.00    -0.158 C  
HETATM   11  C   UNL     1     -10.116  12.498  67.436  1.00  0.00    -0.210 C  
BRANCH   9  12
HETATM   12  C   UNL     1      -7.669  12.538  68.070  1.00  0.00    -0.140 C  
BRANCH  12  13
HETATM   13  C   UNL     1      -8.096  13.903  68.599  1.00  0.00    -0.097 C  
BRANCH  13  14
HETATM   14  C   UNL     1      -7.019  14.968  68.403  1.00  0.00    -0.109 C  
BRANCH  14  15
HETATM   15  C   UNL     1      -7.281  16.117  69.376  1.00  0.00    -0.204 C  
BRANCH  15  16
HETATM   16  C   UNL     1      -8.548  16.887  69.031  1.00  0.00    -0.148 C  
BRANCH  16  17
HETATM   17  C   UNL     1      -8.205  18.329  68.662  1.00  0.00    -0.301 C  
BRANCH  17  18
HETATM   18  C   UNL     1      -8.866  18.739  67.351  1.00  0.00    -0.285 C  
HETATM   19  C   UNL     1      -8.853  17.595  66.350  1.00  0.00    -0.263 C  
ENDBRANCH  17  18
ENDBRANCH  16  17
ENDBRANCH  15  16
ENDBRANCH  14  15
ENDBRANCH  13  14
ENDBRANCH  12  13
ENDBRANCH   9  12
ENDBRANCH   8   9
ENDBRANCH   7   8
ENDBRANCH   6   7
ENDBRANCH   5   6
ENDBRANCH   4   5
ENDBRANCH   3   4
ENDBRANCH   2   3
TORSDOF 14
ENDMDL
MODEL      351
REMARK 921   NORMALIZED FREE ENERGY PREDICTED BY IDOCK:   -1.91 KCAL/MOL
REMARK 922        TOTAL FREE ENERGY PREDICTED BY IDOCK:   -5.20 KCAL/MOL
REMARK 923 INTER-LIGAND FREE ENERGY PREDICTED BY IDOCK:   -4.53 KCAL/MOL
REMARK 924 INTRA-LIGAND FREE ENERGY PREDICTED BY IDOCK:   -0.67 KCAL/MOL
REMARK 927      BINDING AFFINITY PREDICTED BY RF-SCORE:    0.00 PKD
ROOT
HETATM    1  C   UNL     1     -10.827  13.712  64.481  1.00  0.00    -0.416 C  
HETATM    2  C   UNL     1     -10.169  13.573  65.844  1.00  0.00    -0.306 C  
ENDROOT
BRANCH   2   3
HETATM    3  C   UNL     1     -10.564  14.721  66.764  1.00  0.00    -0.302 C  
BRANCH   3   4
HETATM    4  C   UNL     1     -11.734  14.331  67.667  1.00  0.00    -0.421 C  
BRANCH   4   5
HETATM    5  C   UNL     1     -11.807  12.817  67.805  1.00  0.00    -0.387 C  
BRANCH   5   6
HETATM    6  C   UNL     1     -11.647  12.360  69.255  1.00  0.00    -0.379 C  
BRANCH   6   7
HETATM    7  C   UNL     1     -10.519  11.336  69.326  1.00  0.00    -0.145 C  
BRANCH   7   8
HETATM    8  C   UNL     1     -11.014   9.908  69.118  1.00  0.00    -0.200 C  
BRANCH   8   9
HETATM    9  N   UNL     1     -10.537   8.934  70.234  1.00  0.00    -0.210 N  
HETATM   10  C   UNL     1      -9.069   9.198  70.571  1.00  0.00    -0.241 C  
HETATM   11  C   UNL     1     -11.396   9.108  71.487  1.00  0.00    -0.368 C  
BRANCH   9  12
HETATM   12  C   UNL     1     -10.707   7.499  69.661  1.00  0.00    -0.230 C  
BRANCH  12  13
HETATM   13  C   UNL     1      -9.390   6.734  69.580  1.00  0.00    -0.146 C  
BRANCH  13  14
HETATM   14  C   UNL     1      -9.184   5.798  70.768  1.00  0.00    -0.171 C  
BRANCH  14  15
HETATM   15  C   UNL     1     -10.085   4.576  70.593  1.00  0.00    -0.232 C  
BRANCH  15  16
HETATM   16  C   UNL     1      -9.447   3.511  69.712  1.00  0.00    -0.241 C  
BRANCH  16  17
HETATM   17  C   UNL     1      -7.990   3.294  70.118  1.00  0.00    -0.053 C  
BRANCH  17  18
HETATM   18  C   UNL     1      -7.063   3.354  68.910  1.00  0.00    -0.049 C  
HETATM   19  C   UNL     1      -6.831   1.969  68.327  1.00  0.00    -0.035 C  
ENDBRANCH  17  18
ENDBRANCH  16  17
ENDBRANCH  15  16
ENDBRANCH  14  15
ENDBRANCH  13  14
ENDBRANCH  12  13
ENDBRANCH   9  12
ENDBRANCH   8   9
ENDBRANCH   7   8
ENDBRANCH   6   7
ENDBRANCH   5   6
ENDBRANCH   4   5
ENDBRANCH   3   4
ENDBRANCH   2   3
TORSDOF 14
ENDMDL
MODEL      352
REMARK 921   NORMALIZED FREE ENERGY PREDICTED BY IDOCK:   -1.91 KCAL/MOL
REMARK 922        TOTAL FREE ENERGY PREDICTED BY IDOCK:   -5.20 KCAL/MOL
REMARK 923 INTER-LIGAND FREE ENERGY PREDICTED BY IDOCK:   -4.42 KCAL/MOL
REMARK 924 INTRA-LIGAND FREE ENERGY PREDICTED BY IDOCK:   -0.78 KCAL/MOL
REMARK 927      BINDING AFFINITY PREDICTED BY RF-SCORE:    0.00 PKD
ROOT
HETATM    1  C   UNL     1     -10.192  16.046  69.638  1.00  0.00    -0.265 C  
HETATM    2  C   UNL     1     -11.527  15.818  68.948  1.00  0.00    -0.381 C  
ENDROOT
BRANCH   2   3
HETATM    3  C   UNL     1     -11.339  15.570  67.456  1.00  0.00    -0.232 C  
BRANCH   3   4
HETATM    4  C   UNL     1      -9.901  15.855  67.024  1.00  0.00    -0.236 C  
BRANCH   4   5
HETATM    5  C   UNL     1      -9.289  14.616  66.387  1.00  0.00    -0.313 C  
BRANCH   5   6
HETATM    6  C   UNL     1      -8.911  13.559  67.424  1.00  0.00    -0.221 C  
BRANCH   6   7
HETATM    7  C   UNL     1      -9.798  12.334  67.224  1.00  0.00    -0.208 C  
BRANCH   7   8
HETATM    8  C   UNL     1      -9.643  11.722  65.835  1.00  0.00    -0.230 C  
BRANCH   8   9
HETATM    9  N   UNL     1      -9.207  10.230  65.877  1.00  0.00    -0.160 N  
HETATM   10  C   UNL     1      -9.265   9.624  64.475  1.00  0.00    -0.218 C  
HETATM   11  C   UNL     1      -7.788  10.112  66.435  1.00  0.00    -0.114 C  
BRANCH   9  12
HETATM   12  C   UNL     1     -10.214   9.508  66.817  1.00  0.00    -0.243 C  
BRANCH  12  13
HETATM   13  C   UNL     1     -10.135   7.988  66.713  1.00  0.00    -0.357 C  
BRANCH  13  14
HETATM   14  C   UNL     1     -10.088   7.311  68.081  1.00  0.00    -0.201 C  
BRANCH  14  15
HETATM   15  C   UNL     1     -10.525   5.856  67.925  1.00  0.00    -0.297 C  
BRANCH  15  16
HETATM   16  C   UNL     1      -9.652   5.095  66.936  1.00  0.00    -0.157 C  
BRANCH  16  17
HETATM   17  C   UNL     1     -10.505   4.540  65.797  1.00  0.00    -0.268 C  
BRANCH  17  18
HETATM   18  C   UNL     1      -9.650   4.187  64.585  1.00  0.00    -0.173 C  
HETATM   19  C   UNL     1      -9.509   2.681  64.435  1.00  0.00    -0.145 C  
ENDBRANCH  17  18
ENDBRANCH  16  17
ENDBRANCH  15  16
ENDBRANCH  14  15
ENDBRANCH  13  14
ENDBRANCH  12  13
ENDBRANCH   9  12
ENDBRANCH   8   9
ENDBRANCH   7   8
ENDBRANCH   6   7
ENDBRANCH   5   6
ENDBRANCH   4   5
ENDBRANCH   3   4
ENDBRANCH   2   3
TORSDOF 14
ENDMDL
MODEL      353
REMARK 921   NORMALIZED FREE ENERGY PREDICTED BY IDOCK:   -1.91 KCAL/MOL
REMARK 922        TOTAL FREE ENERGY PREDICTED BY IDOCK:   -5.20 KCAL/MOL
REMARK 923 INTER-LIGAND FREE ENERGY PREDICTED BY IDOCK:   -3.94 KCAL/MOL
REMARK 924 INTRA-LIGAND FREE ENERGY PREDICTED BY IDOCK:   -1.25 KCAL/MOL
REMARK 927      BINDING AFFINITY PREDICTED BY RF-SCORE:    0.00 PKD
ROOT
HETATM    1  C   UNL     1      -6.903   9.764  69.415  1.00  0.00    -0.057 C  
HETATM    2  C   UNL     1      -6.869  11.277  69.557  1.00  0.00    -0.115 C  
ENDROOT
BRANCH   2   3
HETATM    3  C   UNL     1      -5.705  11.876  68.775  1.00  0.00    -0.050 C  
BRANCH   3   4
HETATM    4  C   UNL     1      -6.011  13.307  68.336  1.00  0.00    -0.090 C  
BRANCH   4   5
HETATM    5  C   UNL     1      -7.028  13.938  69.276  1.00  0.00    -0.067 C  
BRANCH   5   6
HETATM    6  C   UNL     1      -7.726  15.144  68.647  1.00  0.00    -0.126 C  
BRANCH   6   7
HETATM    7  C   UNL     1      -9.208  15.098  69.007  1.00  0.00    -0.221 C  
BRANCH   7   8
HETATM    8  C   UNL     1     -10.108  15.278  67.789  1.00  0.00    -0.230 C  
BRANCH   8   9
HETATM    9  N   UNL     1     -10.652  13.930  67.234  1.00  0.00    -0.274 N  
HETATM   10  C   UNL     1     -12.062  14.120  66.675  1.00  0.00    -0.451 C  
HETATM   11  C   UNL     1      -9.727  13.401  66.137  1.00  0.00    -0.250 C  
BRANCH   9  12
HETATM   12  C   UNL     1     -10.678  12.943  68.435  1.00  0.00    -0.255 C  
BRANCH  12  13
HETATM   13  C   UNL     1      -9.931  11.644  68.150  1.00  0.00    -0.198 C  
BRANCH  13  14
HETATM   14  C   UNL     1     -10.853  10.427  68.156  1.00  0.00    -0.311 C  
BRANCH  14  15
HETATM   15  C   UNL     1     -10.371   9.451  69.228  1.00  0.00    -0.217 C  
BRANCH  15  16
HETATM   16  C   UNL     1     -10.301   8.020  68.713  1.00  0.00    -0.223 C  
BRANCH  16  17
HETATM   17  C   UNL     1     -10.385   7.035  69.878  1.00  0.00    -0.225 C  
BRANCH  17  18
HETATM   18  C   UNL     1     -10.732   5.632  69.393  1.00  0.00    -0.365 C  
HETATM   19  C   UNL     1     -10.204   5.391  67.988  1.00  0.00    -0.221 C  
ENDBRANCH  17  18
ENDBRANCH  16  17
ENDBRANCH  15  16
ENDBRANCH  14  15
ENDBRANCH  13  14
ENDBRANCH  12  13
ENDBRANCH   9  12
ENDBRANCH   8   9
ENDBRANCH   7   8
ENDBRANCH   6   7
ENDBRANCH   5   6
ENDBRANCH   4   5
ENDBRANCH   3   4
ENDBRANCH   2   3
TORSDOF 14
ENDMDL
MODEL      354
REMARK 921   NORMALIZED FREE ENERGY PREDICTED BY IDOCK:   -1.89 KCAL/MOL
REMARK 922        TOTAL FREE ENERGY PREDICTED BY IDOCK:   -5.18 KCAL/MOL
REMARK 923 INTER-LIGAND FREE ENERGY PREDICTED BY IDOCK:   -4.04 KCAL/MOL
REMARK 924 INTRA-LIGAND FREE ENERGY PREDICTED BY IDOCK:   -1.14 KCAL/MOL
REMARK 927      BINDING AFFINITY PREDICTED BY RF-SCORE:    0.00 PKD
ROOT
HETATM    1  C   UNL     1      -9.880  10.821  64.013  1.00  0.00    -0.390 C  
HETATM    2  C   UNL     1     -10.219  10.412  65.437  1.00  0.00    -0.329 C  
ENDROOT
BRANCH   2   3
HETATM    3  C   UNL     1     -10.072  11.588  66.396  1.00  0.00    -0.250 C  
BRANCH   3   4
HETATM    4  C   UNL     1     -11.426  12.014  66.962  1.00  0.00    -0.402 C  
BRANCH   4   5
HETATM    5  C   UNL     1     -11.686  11.312  68.287  1.00  0.00    -0.344 C  
BRANCH   5   6
HETATM    6  C   UNL     1     -10.443  11.277  69.176  1.00  0.00    -0.191 C  
BRANCH   6   7
HETATM    7  C   UNL     1     -10.447   9.978  69.975  1.00  0.00    -0.337 C  
BRANCH   7   8
HETATM    8  C   UNL     1     -10.005   8.779  69.141  1.00  0.00    -0.191 C  
BRANCH   8   9
HETATM    9  N   UNL     1      -8.824   7.997  69.784  1.00  0.00    -0.143 N  
HETATM   10  C   UNL     1      -8.669   6.632  69.115  1.00  0.00    -0.130 C  
HETATM   11  C   UNL     1      -7.526   8.794  69.642  1.00  0.00    -0.071 C  
BRANCH   9  12
HETATM   12  C   UNL     1      -9.184   7.823  71.286  1.00  0.00    -0.141 C  
BRANCH  12  13
HETATM   13  C   UNL     1      -8.126   7.045  72.062  1.00  0.00    -0.097 C  
BRANCH  13  14
HETATM   14  C   UNL     1      -7.844   7.652  73.434  1.00  0.00    -0.157 C  
BRANCH  14  15
HETATM   15  C   UNL     1      -8.250   6.646  74.510  1.00  0.00    -0.147 C  
BRANCH  15  16
HETATM   16  C   UNL     1      -8.384   5.234  73.957  1.00  0.00    -0.113 C  
BRANCH  16  17
HETATM   17  C   UNL     1      -9.640   4.566  74.514  1.00  0.00    -0.153 C  
BRANCH  17  18
HETATM   18  C   UNL     1     -10.892   5.053  73.794  1.00  0.00    -0.366 C  
HETATM   19  C   UNL     1     -10.855   4.686  72.319  1.00  0.00    -0.085 C  
ENDBRANCH  17  18
ENDBRANCH  16  17
ENDBRANCH  15  16
ENDBRANCH  14  15
ENDBRANCH  13  14
ENDBRANCH  12  13
ENDBRANCH   9  12
ENDBRANCH   8   9
ENDBRANCH   7   8
ENDBRANCH   6   7
ENDBRANCH   5   6
ENDBRANCH   4   5
ENDBRANCH   3   4
ENDBRANCH   2   3
TORSDOF 14
ENDMDL
MODEL      355
REMARK 921   NORMALIZED FREE ENERGY PREDICTED BY IDOCK:   -1.89 KCAL/MOL
REMARK 922        TOTAL FREE ENERGY PREDICTED BY IDOCK:   -5.18 KCAL/MOL
REMARK 923 INTER-LIGAND FREE ENERGY PREDICTED BY IDOCK:   -3.59 KCAL/MOL
REMARK 924 INTRA-LIGAND FREE ENERGY PREDICTED BY IDOCK:   -1.58 KCAL/MOL
REMARK 927      BINDING AFFINITY PREDICTED BY RF-SCORE:    0.00 PKD
ROOT
HETATM    1  C   UNL     1      -6.177   6.160  66.115  1.00  0.00    -0.037 C  
HETATM    2  C   UNL     1      -7.310   6.977  66.715  1.00  0.00    -0.077 C  
ENDROOT
BRANCH   2   3
HETATM    3  C   UNL     1      -7.326   6.861  68.234  1.00  0.00    -0.097 C  
BRANCH   3   4
HETATM    4  C   UNL     1      -7.278   8.238  68.895  1.00  0.00    -0.078 C  
BRANCH   4   5
HETATM    5  C   UNL     1      -6.442   9.194  68.056  1.00  0.00    -0.059 C  
BRANCH   5   6
HETATM    6  C   UNL     1      -7.038  10.601  68.016  1.00  0.00    -0.085 C  
BRANCH   6   7
HETATM    7  C   UNL     1      -8.055  10.672  66.882  1.00  0.00    -0.124 C  
BRANCH   7   8
HETATM    8  C   UNL     1      -8.378  12.108  66.478  1.00  0.00     0.020 C  
BRANCH   8   9
HETATM    9  N   UNL     1      -9.859  12.295  66.041  1.00  0.00    -0.246 N  
HETATM   10  C   UNL     1      -9.977  13.464  65.064  1.00  0.00    -0.155 C  
HETATM   11  C   UNL     1     -10.379  11.015  65.383  1.00  0.00    -0.268 C  
BRANCH   9  12
HETATM   12  C   UNL     1     -10.661  12.594  67.338  1.00  0.00    -0.229 C  
BRANCH  12  13
HETATM   13  C   UNL     1     -11.763  11.572  67.602  1.00  0.00    -0.283 C  
BRANCH  13  14
HETATM   14  C   UNL     1     -11.843  11.167  69.072  1.00  0.00    -0.418 C  
BRANCH  14  15
HETATM   15  C   UNL     1     -10.475  10.650  69.515  1.00  0.00    -0.236 C  
BRANCH  15  16
HETATM   16  C   UNL     1     -10.555   9.258  70.126  1.00  0.00    -0.266 C  
BRANCH  16  17
HETATM   17  C   UNL     1     -11.681   9.199  71.157  1.00  0.00    -0.380 C  
BRANCH  17  18
HETATM   18  C   UNL     1     -12.337   7.823  71.183  1.00  0.00    -0.268 C  
HETATM   19  C   UNL     1     -11.669   6.879  70.197  1.00  0.00    -0.306 C  
ENDBRANCH  17  18
ENDBRANCH  16  17
ENDBRANCH  15  16
ENDBRANCH  14  15
ENDBRANCH  13  14
ENDBRANCH  12  13
ENDBRANCH   9  12
ENDBRANCH   8   9
ENDBRANCH   7   8
ENDBRANCH   6   7
ENDBRANCH   5   6
ENDBRANCH   4   5
ENDBRANCH   3   4
ENDBRANCH   2   3
TORSDOF 14
ENDMDL
MODEL      356
REMARK 921   NORMALIZED FREE ENERGY PREDICTED BY IDOCK:   -1.88 KCAL/MOL
REMARK 922        TOTAL FREE ENERGY PREDICTED BY IDOCK:   -5.16 KCAL/MOL
REMARK 923 INTER-LIGAND FREE ENERGY PREDICTED BY IDOCK:   -4.15 KCAL/MOL
REMARK 924 INTRA-LIGAND FREE ENERGY PREDICTED BY IDOCK:   -1.01 KCAL/MOL
REMARK 927      BINDING AFFINITY PREDICTED BY RF-SCORE:    0.00 PKD
ROOT
HETATM    1  C   UNL     1      -7.855   4.429  71.947  1.00  0.00    -0.085 C  
HETATM    2  C   UNL     1      -9.359   4.208  71.958  1.00  0.00    -0.184 C  
ENDROOT
BRANCH   2   3
HETATM    3  C   UNL     1     -10.021   4.989  73.086  1.00  0.00    -0.185 C  
BRANCH   3   4
HETATM    4  C   UNL     1     -10.916   6.100  72.540  1.00  0.00    -0.296 C  
BRANCH   4   5
HETATM    5  C   UNL     1     -10.803   7.341  73.413  1.00  0.00    -0.370 C  
BRANCH   5   6
HETATM    6  C   UNL     1     -10.047   8.472  72.716  1.00  0.00    -0.168 C  
BRANCH   6   7
HETATM    7  C   UNL     1      -9.840   8.095  71.252  1.00  0.00    -0.207 C  
BRANCH   7   8
HETATM    8  C   UNL     1      -8.451   8.469  70.744  1.00  0.00    -0.149 C  
BRANCH   8   9
HETATM    9  N   UNL     1      -8.191   7.993  69.286  1.00  0.00    -0.125 N  
HETATM   10  C   UNL     1      -6.704   7.707  69.082  1.00  0.00    -0.048 C  
HETATM   11  C   UNL     1      -9.007   6.733  68.991  1.00  0.00    -0.131 C  
BRANCH   9  12
HETATM   12  C   UNL     1      -8.648   9.156  68.361  1.00  0.00    -0.129 C  
BRANCH  12  13
HETATM   13  C   UNL     1      -8.471  10.528  69.004  1.00  0.00    -0.159 C  
BRANCH  13  14
HETATM   14  C   UNL     1      -9.591  11.496  68.630  1.00  0.00    -0.159 C  
BRANCH  14  15
HETATM   15  C   UNL     1     -10.175  11.076  67.282  1.00  0.00    -0.234 C  
BRANCH  15  16
HETATM   16  C   UNL     1     -10.293  12.246  66.316  1.00  0.00    -0.257 C  
BRANCH  16  17
HETATM   17  C   UNL     1     -11.059  11.822  65.064  1.00  0.00    -0.343 C  
BRANCH  17  18
HETATM   18  C   UNL     1     -12.480  12.375  65.071  1.00  0.00    -0.393 C  
HETATM   19  C   UNL     1     -12.493  13.849  65.443  1.00  0.00    -0.528 C  
ENDBRANCH  17  18
ENDBRANCH  16  17
ENDBRANCH  15  16
ENDBRANCH  14  15
ENDBRANCH  13  14
ENDBRANCH  12  13
ENDBRANCH   9  12
ENDBRANCH   8   9
ENDBRANCH   7   8
ENDBRANCH   6   7
ENDBRANCH   5   6
ENDBRANCH   4   5
ENDBRANCH   3   4
ENDBRANCH   2   3
TORSDOF 14
ENDMDL
MODEL      357
REMARK 921   NORMALIZED FREE ENERGY PREDICTED BY IDOCK:   -1.88 KCAL/MOL
REMARK 922        TOTAL FREE ENERGY PREDICTED BY IDOCK:   -5.15 KCAL/MOL
REMARK 923 INTER-LIGAND FREE ENERGY PREDICTED BY IDOCK:   -4.52 KCAL/MOL
REMARK 924 INTRA-LIGAND FREE ENERGY PREDICTED BY IDOCK:   -0.63 KCAL/MOL
REMARK 927      BINDING AFFINITY PREDICTED BY RF-SCORE:    0.00 PKD
ROOT
HETATM    1  C   UNL     1      -7.003   5.677  73.623  1.00  0.00    -0.085 C  
HETATM    2  C   UNL     1      -8.308   6.197  73.041  1.00  0.00    -0.115 C  
ENDROOT
BRANCH   2   3
HETATM    3  C   UNL     1      -8.180   7.657  72.623  1.00  0.00    -0.153 C  
BRANCH   3   4
HETATM    4  C   UNL     1      -7.881   7.782  71.130  1.00  0.00    -0.089 C  
BRANCH   4   5
HETATM    5  C   UNL     1      -9.063   8.413  70.409  1.00  0.00    -0.155 C  
BRANCH   5   6
HETATM    6  C   UNL     1      -9.029   8.151  68.904  1.00  0.00    -0.141 C  
BRANCH   6   7
HETATM    7  C   UNL     1      -9.227   9.474  68.170  1.00  0.00    -0.134 C  
BRANCH   7   8
HETATM    8  C   UNL     1      -9.585  10.617  69.115  1.00  0.00    -0.177 C  
BRANCH   8   9
HETATM    9  N   UNL     1     -10.586  11.629  68.488  1.00  0.00    -0.208 N  
HETATM   10  C   UNL     1     -11.141  11.077  67.176  1.00  0.00    -0.267 C  
HETATM   11  C   UNL     1     -11.733  11.906  69.461  1.00  0.00    -0.345 C  
BRANCH   9  12
HETATM   12  C   UNL     1      -9.780  12.932  68.226  1.00  0.00    -0.217 C  
BRANCH  12  13
HETATM   13  C   UNL     1     -10.647  14.186  68.285  1.00  0.00    -0.254 C  
BRANCH  13  14
HETATM   14  C   UNL     1     -10.749  14.889  66.933  1.00  0.00    -0.308 C  
BRANCH  14  15
HETATM   15  C   UNL     1     -10.084  16.261  67.041  1.00  0.00    -0.270 C  
BRANCH  15  16
HETATM   16  C   UNL     1     -10.815  17.181  68.009  1.00  0.00    -0.317 C  
BRANCH  16  17
HETATM   17  C   UNL     1     -10.439  18.637  67.739  1.00  0.00    -0.457 C  
BRANCH  17  18
HETATM   18  C   UNL     1     -10.049  18.847  66.281  1.00  0.00    -0.460 C  
HETATM   19  C   UNL     1      -8.928  19.866  66.154  1.00  0.00    -0.373 C  
ENDBRANCH  17  18
ENDBRANCH  16  17
ENDBRANCH  15  16
ENDBRANCH  14  15
ENDBRANCH  13  14
ENDBRANCH  12  13
ENDBRANCH   9  12
ENDBRANCH   8   9
ENDBRANCH   7   8
ENDBRANCH   6   7
ENDBRANCH   5   6
ENDBRANCH   4   5
ENDBRANCH   3   4
ENDBRANCH   2   3
TORSDOF 14
ENDMDL
MODEL      358
REMARK 921   NORMALIZED FREE ENERGY PREDICTED BY IDOCK:   -1.87 KCAL/MOL
REMARK 922        TOTAL FREE ENERGY PREDICTED BY IDOCK:   -5.14 KCAL/MOL
REMARK 923 INTER-LIGAND FREE ENERGY PREDICTED BY IDOCK:   -4.03 KCAL/MOL
REMARK 924 INTRA-LIGAND FREE ENERGY PREDICTED BY IDOCK:   -1.10 KCAL/MOL
REMARK 927      BINDING AFFINITY PREDICTED BY RF-SCORE:    0.00 PKD
ROOT
HETATM    1  C   UNL     1     -12.360  14.862  64.241  1.00  0.00    -0.300 C  
HETATM    2  C   UNL     1     -11.275  14.050  64.930  1.00  0.00    -0.362 C  
ENDROOT
BRANCH   2   3
HETATM    3  C   UNL     1     -11.875  13.054  65.915  1.00  0.00    -0.468 C  
BRANCH   3   4
HETATM    4  C   UNL     1     -11.390  11.633  65.633  1.00  0.00    -0.233 C  
BRANCH   4   5
HETATM    5  C   UNL     1     -10.234  11.661  64.643  1.00  0.00    -0.327 C  
BRANCH   5   6
HETATM    6  C   UNL     1      -9.432  10.360  64.655  1.00  0.00    -0.336 C  
BRANCH   6   7
HETATM    7  C   UNL     1      -8.386  10.437  65.763  1.00  0.00    -0.158 C  
BRANCH   7   8
HETATM    8  C   UNL     1      -8.733   9.547  66.954  1.00  0.00    -0.128 C  
BRANCH   8   9
HETATM    9  N   UNL     1      -8.658  10.300  68.313  1.00  0.00    -0.119 N  
HETATM   10  C   UNL     1      -8.331  11.775  68.081  1.00  0.00    -0.156 C  
HETATM   11  C   UNL     1      -9.987  10.174  69.058  1.00  0.00    -0.208 C  
BRANCH   9  12
HETATM   12  C   UNL     1      -7.521   9.618  69.126  1.00  0.00    -0.079 C  
BRANCH  12  13
HETATM   13  C   UNL     1      -7.317   8.155  68.745  1.00  0.00    -0.088 C  
BRANCH  13  14
HETATM   14  C   UNL     1      -7.888   7.196  69.786  1.00  0.00    -0.118 C  
BRANCH  14  15
HETATM   15  C   UNL     1      -9.138   6.532  69.209  1.00  0.00    -0.137 C  
BRANCH  15  16
HETATM   16  C   UNL     1      -8.846   5.780  67.918  1.00  0.00    -0.108 C  
BRANCH  16  17
HETATM   17  C   UNL     1      -9.818   6.215  66.823  1.00  0.00    -0.203 C  
BRANCH  17  18
HETATM   18  C   UNL     1     -10.499   5.014  66.176  1.00  0.00    -0.334 C  
HETATM   19  C   UNL     1      -9.495   4.150  65.432  1.00  0.00    -0.173 C  
ENDBRANCH  17  18
ENDBRANCH  16  17
ENDBRANCH  15  16
ENDBRANCH  14  15
ENDBRANCH  13  14
ENDBRANCH  12  13
ENDBRANCH   9  12
ENDBRANCH   8   9
ENDBRANCH   7   8
ENDBRANCH   6   7
ENDBRANCH   5   6
ENDBRANCH   4   5
ENDBRANCH   3   4
ENDBRANCH   2   3
TORSDOF 14
ENDMDL
MODEL      359
REMARK 921   NORMALIZED FREE ENERGY PREDICTED BY IDOCK:   -1.87 KCAL/MOL
REMARK 922        TOTAL FREE ENERGY PREDICTED BY IDOCK:   -5.13 KCAL/MOL
REMARK 923 INTER-LIGAND FREE ENERGY PREDICTED BY IDOCK:   -3.82 KCAL/MOL
REMARK 924 INTRA-LIGAND FREE ENERGY PREDICTED BY IDOCK:   -1.31 KCAL/MOL
REMARK 927      BINDING AFFINITY PREDICTED BY RF-SCORE:    0.00 PKD
ROOT
HETATM    1  C   UNL     1      -9.862   3.698  71.398  1.00  0.00    -0.219 C  
HETATM    2  C   UNL     1      -8.380   3.837  71.707  1.00  0.00    -0.083 C  
ENDROOT
BRANCH   2   3
HETATM    3  C   UNL     1      -8.069   5.204  72.304  1.00  0.00    -0.110 C  
BRANCH   3   4
HETATM    4  C   UNL     1      -8.556   5.301  73.750  1.00  0.00    -0.113 C  
BRANCH   4   5
HETATM    5  C   UNL     1      -8.703   6.759  74.157  1.00  0.00    -0.180 C  
BRANCH   5   6
HETATM    6  C   UNL     1      -8.652   7.703  72.956  1.00  0.00    -0.197 C  
BRANCH   6   7
HETATM    7  C   UNL     1      -9.909   8.567  72.956  1.00  0.00    -0.004 C  
BRANCH   7   8
HETATM    8  C   UNL     1     -11.187   7.737  72.869  1.00  0.00    -0.376 C  
BRANCH   8   9
HETATM    9  N   UNL     1     -11.911   7.883  71.501  1.00  0.00    -0.280 N  
HETATM   10  C   UNL     1     -13.263   7.171  71.541  1.00  0.00    -0.360 C  
HETATM   11  C   UNL     1     -12.113   9.362  71.168  1.00  0.00    -0.328 C  
BRANCH   9  12
HETATM   12  C   UNL     1     -10.984   7.218  70.444  1.00  0.00    -0.252 C  
BRANCH  12  13
HETATM   13  C   UNL     1     -11.754   6.395  69.416  1.00  0.00    -0.044 C  
BRANCH  13  14
HETATM   14  C   UNL     1     -11.020   6.293  68.081  1.00  0.00    -0.412 C  
BRANCH  14  15
HETATM   15  C   UNL     1      -9.516   6.279  68.347  1.00  0.00    -0.118 C  
BRANCH  15  16
HETATM   16  C   UNL     1      -8.782   7.362  67.568  1.00  0.00    -0.124 C  
BRANCH  16  17
HETATM   17  C   UNL     1      -9.785   8.293  66.889  1.00  0.00    -0.291 C  
BRANCH  17  18
HETATM   18  C   UNL     1      -9.575   9.741  67.317  1.00  0.00    -0.194 C  
HETATM   19  C   UNL     1      -8.437  10.383  66.539  1.00  0.00    -0.132 C  
ENDBRANCH  17  18
ENDBRANCH  16  17
ENDBRANCH  15  16
ENDBRANCH  14  15
ENDBRANCH  13  14
ENDBRANCH  12  13
ENDBRANCH   9  12
ENDBRANCH   8   9
ENDBRANCH   7   8
ENDBRANCH   6   7
ENDBRANCH   5   6
ENDBRANCH   4   5
ENDBRANCH   3   4
ENDBRANCH   2   3
TORSDOF 14
ENDMDL
MODEL      360
REMARK 921   NORMALIZED FREE ENERGY PREDICTED BY IDOCK:   -1.86 KCAL/MOL
REMARK 922        TOTAL FREE ENERGY PREDICTED BY IDOCK:   -5.12 KCAL/MOL
REMARK 923 INTER-LIGAND FREE ENERGY PREDICTED BY IDOCK:   -4.58 KCAL/MOL
REMARK 924 INTRA-LIGAND FREE ENERGY PREDICTED BY IDOCK:   -0.54 KCAL/MOL
REMARK 927      BINDING AFFINITY PREDICTED BY RF-SCORE:    0.00 PKD
ROOT
HETATM    1  C   UNL     1      -7.139  10.449  62.636  1.00  0.00    -0.136 C  
HETATM    2  C   UNL     1      -7.744   9.751  63.843  1.00  0.00    -0.136 C  
ENDROOT
BRANCH   2   3
HETATM    3  C   UNL     1      -9.121  10.316  64.172  1.00  0.00    -0.284 C  
BRANCH   3   4
HETATM    4  C   UNL     1      -9.720  11.050  62.972  1.00  0.00    -0.381 C  
BRANCH   4   5
HETATM    5  C   UNL     1     -10.766  12.052  63.438  1.00  0.00    -0.475 C  
BRANCH   5   6
HETATM    6  C   UNL     1     -10.220  13.005  64.501  1.00  0.00    -0.331 C  
BRANCH   6   7
HETATM    7  C   UNL     1     -11.382  13.511  65.350  1.00  0.00    -0.302 C  
BRANCH   7   8
HETATM    8  C   UNL     1     -11.527  12.739  66.659  1.00  0.00    -0.350 C  
BRANCH   8   9
HETATM    9  N   UNL     1     -10.804  13.428  67.851  1.00  0.00    -0.242 N  
HETATM   10  C   UNL     1     -10.364  14.838  67.457  1.00  0.00    -0.238 C  
HETATM   11  C   UNL     1     -11.734  13.495  69.063  1.00  0.00    -0.327 C  
BRANCH   9  12
HETATM   12  C   UNL     1      -9.563  12.549  68.175  1.00  0.00    -0.215 C  
BRANCH  12  13
HETATM   13  C   UNL     1      -9.930  11.245  68.877  1.00  0.00    -0.169 C  
BRANCH  13  14
HETATM   14  C   UNL     1     -10.708  10.293  67.972  1.00  0.00    -0.299 C  
BRANCH  14  15
HETATM   15  C   UNL     1      -9.878   9.029  67.758  1.00  0.00    -0.209 C  
BRANCH  15  16
HETATM   16  C   UNL     1     -10.099   8.002  68.860  1.00  0.00    -0.209 C  
BRANCH  16  17
HETATM   17  C   UNL     1      -8.787   7.291  69.190  1.00  0.00    -0.136 C  
BRANCH  17  18
HETATM   18  C   UNL     1      -7.597   8.234  69.055  1.00  0.00    -0.089 C  
HETATM   19  C   UNL     1      -6.498   7.612  68.209  1.00  0.00    -0.049 C  
ENDBRANCH  17  18
ENDBRANCH  16  17
ENDBRANCH  15  16
ENDBRANCH  14  15
ENDBRANCH  13  14
ENDBRANCH  12  13
ENDBRANCH   9  12
ENDBRANCH   8   9
ENDBRANCH   7   8
ENDBRANCH   6   7
ENDBRANCH   5   6
ENDBRANCH   4   5
ENDBRANCH   3   4
ENDBRANCH   2   3
TORSDOF 14
ENDMDL
MODEL      361
REMARK 921   NORMALIZED FREE ENERGY PREDICTED BY IDOCK:   -1.86 KCAL/MOL
REMARK 922        TOTAL FREE ENERGY PREDICTED BY IDOCK:   -5.12 KCAL/MOL
REMARK 923 INTER-LIGAND FREE ENERGY PREDICTED BY IDOCK:   -4.25 KCAL/MOL
REMARK 924 INTRA-LIGAND FREE ENERGY PREDICTED BY IDOCK:   -0.87 KCAL/MOL
REMARK 927      BINDING AFFINITY PREDICTED BY RF-SCORE:    0.00 PKD
ROOT
HETATM    1  C   UNL     1     -11.273  12.894  65.319  1.00  0.00    -0.319 C  
HETATM    2  C   UNL     1     -10.680  11.496  65.385  1.00  0.00    -0.335 C  
ENDROOT
BRANCH   2   3
HETATM    3  C   UNL     1     -10.666  10.972  66.816  1.00  0.00    -0.319 C  
BRANCH   3   4
HETATM    4  C   UNL     1      -9.819   9.705  66.934  1.00  0.00    -0.257 C  
BRANCH   4   5
HETATM    5  C   UNL     1     -10.455   8.739  67.922  1.00  0.00    -0.275 C  
BRANCH   5   6
HETATM    6  C   UNL     1      -9.430   7.793  68.547  1.00  0.00    -0.148 C  
BRANCH   6   7
HETATM    7  C   UNL     1     -10.147   6.871  69.529  1.00  0.00    -0.183 C  
BRANCH   7   8
HETATM    8  C   UNL     1     -11.456   7.466  70.038  1.00  0.00    -0.065 C  
BRANCH   8   9
HETATM    9  N   UNL     1     -11.760   7.083  71.514  1.00  0.00    -0.282 N  
HETATM   10  C   UNL     1     -11.143   8.111  72.463  1.00  0.00    -0.377 C  
HETATM   11  C   UNL     1     -13.272   7.013  71.738  1.00  0.00    -0.267 C  
BRANCH   9  12
HETATM   12  C   UNL     1     -11.119   5.686  71.743  1.00  0.00    -0.199 C  
BRANCH  12  13
HETATM   13  C   UNL     1     -11.179   5.239  73.201  1.00  0.00    -0.382 C  
BRANCH  13  14
HETATM   14  C   UNL     1     -10.835   3.761  73.373  1.00  0.00    -0.315 C  
BRANCH  14  15
HETATM   15  C   UNL     1      -9.951   3.323  72.206  1.00  0.00    -0.235 C  
BRANCH  15  16
HETATM   16  C   UNL     1      -8.941   2.260  72.616  1.00  0.00    -0.094 C  
BRANCH  16  17
HETATM   17  C   UNL     1      -7.521   2.744  72.328  1.00  0.00    -0.051 C  
BRANCH  17  18
HETATM   18  C   UNL     1      -7.528   4.007  71.475  1.00  0.00    -0.059 C  
HETATM   19  C   UNL     1      -7.122   5.223  72.292  1.00  0.00    -0.085 C  
ENDBRANCH  17  18
ENDBRANCH  16  17
ENDBRANCH  15  16
ENDBRANCH  14  15
ENDBRANCH  13  14
ENDBRANCH  12  13
ENDBRANCH   9  12
ENDBRANCH   8   9
ENDBRANCH   7   8
ENDBRANCH   6   7
ENDBRANCH   5   6
ENDBRANCH   4   5
ENDBRANCH   3   4
ENDBRANCH   2   3
TORSDOF 14
ENDMDL
MODEL      362
REMARK 921   NORMALIZED FREE ENERGY PREDICTED BY IDOCK:   -1.84 KCAL/MOL
REMARK 922        TOTAL FREE ENERGY PREDICTED BY IDOCK:   -5.09 KCAL/MOL
REMARK 923 INTER-LIGAND FREE ENERGY PREDICTED BY IDOCK:   -4.40 KCAL/MOL
REMARK 924 INTRA-LIGAND FREE ENERGY PREDICTED BY IDOCK:   -0.69 KCAL/MOL
REMARK 927      BINDING AFFINITY PREDICTED BY RF-SCORE:    0.00 PKD
ROOT
HETATM    1  C   UNL     1     -10.974  15.148  68.846  1.00  0.00    -0.256 C  
HETATM    2  C   UNL     1     -11.916  14.079  69.376  1.00  0.00    -0.390 C  
ENDROOT
BRANCH   2   3
HETATM    3  C   UNL     1     -12.146  12.987  68.339  1.00  0.00    -0.193 C  
BRANCH   3   4
HETATM    4  C   UNL     1     -12.175  13.563  66.924  1.00  0.00    -0.377 C  
BRANCH   4   5
HETATM    5  C   UNL     1     -11.471  12.620  65.959  1.00  0.00    -0.414 C  
BRANCH   5   6
HETATM    6  C   UNL     1      -9.950  12.677  66.100  1.00  0.00    -0.269 C  
BRANCH   6   7
HETATM    7  C   UNL     1      -9.478  11.428  66.838  1.00  0.00    -0.193 C  
BRANCH   7   8
HETATM    8  C   UNL     1      -9.396  10.208  65.925  1.00  0.00    -0.175 C  
BRANCH   8   9
HETATM    9  N   UNL     1      -8.336   9.171  66.394  1.00  0.00    -0.120 N  
HETATM   10  C   UNL     1      -8.373   7.935  65.495  1.00  0.00    -0.147 C  
HETATM   11  C   UNL     1      -6.940   9.795  66.360  1.00  0.00    -0.093 C  
BRANCH   9  12
HETATM   12  C   UNL     1      -8.716   8.789  67.852  1.00  0.00    -0.136 C  
BRANCH  12  13
HETATM   13  C   UNL     1      -8.450   7.320  68.167  1.00  0.00    -0.123 C  
BRANCH  13  14
HETATM   14  C   UNL     1      -8.880   6.939  69.581  1.00  0.00    -0.141 C  
BRANCH  14  15
HETATM   15  C   UNL     1      -9.988   5.890  69.492  1.00  0.00    -0.238 C  
BRANCH  15  16
HETATM   16  C   UNL     1     -10.913   5.925  70.701  1.00  0.00    -0.357 C  
BRANCH  16  17
HETATM   17  C   UNL     1     -10.138   5.572  71.969  1.00  0.00    -0.233 C  
BRANCH  17  18
HETATM   18  C   UNL     1     -10.364   4.118  72.369  1.00  0.00    -0.217 C  
HETATM   19  C   UNL     1     -11.281   4.018  73.577  1.00  0.00    -0.325 C  
ENDBRANCH  17  18
ENDBRANCH  16  17
ENDBRANCH  15  16
ENDBRANCH  14  15
ENDBRANCH  13  14
ENDBRANCH  12  13
ENDBRANCH   9  12
ENDBRANCH   8   9
ENDBRANCH   7   8
ENDBRANCH   6   7
ENDBRANCH   5   6
ENDBRANCH   4   5
ENDBRANCH   3   4
ENDBRANCH   2   3
TORSDOF 14
ENDMDL
MODEL      363
REMARK 921   NORMALIZED FREE ENERGY PREDICTED BY IDOCK:   -1.83 KCAL/MOL
REMARK 922        TOTAL FREE ENERGY PREDICTED BY IDOCK:   -5.05 KCAL/MOL
REMARK 923 INTER-LIGAND FREE ENERGY PREDICTED BY IDOCK:   -4.31 KCAL/MOL
REMARK 924 INTRA-LIGAND FREE ENERGY PREDICTED BY IDOCK:   -0.75 KCAL/MOL
REMARK 927      BINDING AFFINITY PREDICTED BY RF-SCORE:    0.00 PKD
ROOT
HETATM    1  C   UNL     1      -6.261   5.792  73.741  1.00  0.00    -0.063 C  
HETATM    2  C   UNL     1      -7.397   6.768  73.476  1.00  0.00    -0.078 C  
ENDROOT
BRANCH   2   3
HETATM    3  C   UNL     1      -6.881   8.199  73.386  1.00  0.00    -0.138 C  
BRANCH   3   4
HETATM    4  C   UNL     1      -6.251   8.477  72.021  1.00  0.00    -0.069 C  
BRANCH   4   5
HETATM    5  C   UNL     1      -7.277   9.103  71.088  1.00  0.00    -0.091 C  
BRANCH   5   6
HETATM    6  C   UNL     1      -7.388   8.350  69.762  1.00  0.00    -0.060 C  
BRANCH   6   7
HETATM    7  C   UNL     1      -7.856   9.322  68.683  1.00  0.00    -0.089 C  
BRANCH   7   8
HETATM    8  C   UNL     1      -8.403  10.621  69.267  1.00  0.00    -0.103 C  
BRANCH   8   9
HETATM    9  N   UNL     1      -9.668  11.134  68.521  1.00  0.00    -0.190 N  
HETATM   10  C   UNL     1      -9.891  10.325  67.244  1.00  0.00    -0.182 C  
HETATM   11  C   UNL     1     -10.895  11.021  69.427  1.00  0.00    -0.231 C  
BRANCH   9  12
HETATM   12  C   UNL     1      -9.394  12.625  68.174  1.00  0.00    -0.210 C  
BRANCH  12  13
HETATM   13  C   UNL     1     -10.666  13.467  68.139  1.00  0.00    -0.267 C  
BRANCH  13  14
HETATM   14  C   UNL     1     -10.403  14.935  68.466  1.00  0.00    -0.237 C  
BRANCH  14  15
HETATM   15  C   UNL     1     -11.276  15.339  69.652  1.00  0.00    -0.289 C  
BRANCH  15  16
HETATM   16  C   UNL     1     -12.234  14.231  70.067  1.00  0.00    -0.417 C  
BRANCH  16  17
HETATM   17  C   UNL     1     -12.690  14.439  71.509  1.00  0.00    -0.417 C  
BRANCH  17  18
HETATM   18  C   UNL     1     -11.978  15.625  72.150  1.00  0.00    -0.552 C  
HETATM   19  C   UNL     1     -12.107  15.590  73.664  1.00  0.00    -0.623 C  
ENDBRANCH  17  18
ENDBRANCH  16  17
ENDBRANCH  15  16
ENDBRANCH  14  15
ENDBRANCH  13  14
ENDBRANCH  12  13
ENDBRANCH   9  12
ENDBRANCH   8   9
ENDBRANCH   7   8
ENDBRANCH   6   7
ENDBRANCH   5   6
ENDBRANCH   4   5
ENDBRANCH   3   4
ENDBRANCH   2   3
TORSDOF 14
ENDMDL
MODEL      364
REMARK 921   NORMALIZED FREE ENERGY PREDICTED BY IDOCK:   -1.82 KCAL/MOL
REMARK 922        TOTAL FREE ENERGY PREDICTED BY IDOCK:   -5.04 KCAL/MOL
REMARK 923 INTER-LIGAND FREE ENERGY PREDICTED BY IDOCK:   -4.03 KCAL/MOL
REMARK 924 INTRA-LIGAND FREE ENERGY PREDICTED BY IDOCK:   -1.01 KCAL/MOL
REMARK 927      BINDING AFFINITY PREDICTED BY RF-SCORE:    0.00 PKD
ROOT
HETATM    1  C   UNL     1     -12.758  12.738  64.846  1.00  0.00    -0.479 C  
HETATM    2  C   UNL     1     -12.156  12.586  63.458  1.00  0.00    -0.653 C  
ENDROOT
BRANCH   2   3
HETATM    3  C   UNL     1     -10.638  12.464  63.529  1.00  0.00    -0.451 C  
BRANCH   3   4
HETATM    4  C   UNL     1     -10.189  11.016  63.336  1.00  0.00    -0.404 C  
BRANCH   4   5
HETATM    5  C   UNL     1     -10.009  10.338  64.686  1.00  0.00    -0.377 C  
BRANCH   5   6
HETATM    6  C   UNL     1      -9.778  11.345  65.812  1.00  0.00    -0.263 C  
BRANCH   6   7
HETATM    7  C   UNL     1      -8.542  10.924  66.602  1.00  0.00    -0.148 C  
BRANCH   7   8
HETATM    8  C   UNL     1      -8.888  10.426  68.002  1.00  0.00    -0.130 C  
BRANCH   8   9
HETATM    9  N   UNL     1      -8.732   8.886  68.151  1.00  0.00    -0.133 N  
HETATM   10  C   UNL     1      -8.417   8.525  69.603  1.00  0.00    -0.130 C  
HETATM   11  C   UNL     1     -10.017   8.182  67.710  1.00  0.00    -0.181 C  
BRANCH   9  12
HETATM   12  C   UNL     1      -7.552   8.475  67.226  1.00  0.00    -0.097 C  
BRANCH  12  13
HETATM   13  C   UNL     1      -7.815   7.175  66.474  1.00  0.00    -0.106 C  
BRANCH  13  14
HETATM   14  C   UNL     1      -6.850   6.062  66.877  1.00  0.00    -0.063 C  
BRANCH  14  15
HETATM   15  C   UNL     1      -6.474   5.261  65.631  1.00  0.00    -0.040 C  
BRANCH  15  16
HETATM   16  C   UNL     1      -7.400   5.554  64.458  1.00  0.00    -0.064 C  
BRANCH  16  17
HETATM   17  C   UNL     1      -7.996   4.254  63.919  1.00  0.00    -0.090 C  
BRANCH  17  18
HETATM   18  C   UNL     1      -8.284   3.268  65.046  1.00  0.00    -0.094 C  
HETATM   19  C   UNL     1      -9.370   2.282  64.646  1.00  0.00    -0.126 C  
ENDBRANCH  17  18
ENDBRANCH  16  17
ENDBRANCH  15  16
ENDBRANCH  14  15
ENDBRANCH  13  14
ENDBRANCH  12  13
ENDBRANCH   9  12
ENDBRANCH   8   9
ENDBRANCH   7   8
ENDBRANCH   6   7
ENDBRANCH   5   6
ENDBRANCH   4   5
ENDBRANCH   3   4
ENDBRANCH   2   3
TORSDOF 14
ENDMDL
MODEL      365
REMARK 921   NORMALIZED FREE ENERGY PREDICTED BY IDOCK:   -1.80 KCAL/MOL
REMARK 922        TOTAL FREE ENERGY PREDICTED BY IDOCK:   -5.01 KCAL/MOL
REMARK 923 INTER-LIGAND FREE ENERGY PREDICTED BY IDOCK:   -4.07 KCAL/MOL
REMARK 924 INTRA-LIGAND FREE ENERGY PREDICTED BY IDOCK:   -0.94 KCAL/MOL
REMARK 927      BINDING AFFINITY PREDICTED BY RF-SCORE:    0.00 PKD
ROOT
HETATM    1  C   UNL     1     -10.448  16.769  69.297  1.00  0.00    -0.331 C  
HETATM    2  C   UNL     1     -10.435  15.261  69.105  1.00  0.00    -0.247 C  
ENDROOT
BRANCH   2   3
HETATM    3  C   UNL     1     -11.806  14.659  69.393  1.00  0.00    -0.368 C  
BRANCH   3   4
HETATM    4  C   UNL     1     -12.145  13.552  68.396  1.00  0.00    -0.293 C  
BRANCH   4   5
HETATM    5  C   UNL     1     -11.640  13.922  67.009  1.00  0.00    -0.394 C  
BRANCH   5   6
HETATM    6  C   UNL     1     -10.841  12.790  66.363  1.00  0.00    -0.294 C  
BRANCH   6   7
HETATM    7  C   UNL     1     -11.037  11.520  67.185  1.00  0.00    -0.355 C  
BRANCH   7   8
HETATM    8  C   UNL     1      -9.777  11.118  67.947  1.00  0.00    -0.174 C  
BRANCH   8   9
HETATM    9  N   UNL     1      -9.346   9.650  67.670  1.00  0.00    -0.127 N  
HETATM   10  C   UNL     1     -10.277   9.012  66.639  1.00  0.00    -0.263 C  
HETATM   11  C   UNL     1      -7.905   9.612  67.161  1.00  0.00    -0.091 C  
BRANCH   9  12
HETATM   12  C   UNL     1      -9.454   8.901  69.029  1.00  0.00    -0.156 C  
BRANCH  12  13
HETATM   13  C   UNL     1     -10.583   7.875  69.050  1.00  0.00    -0.177 C  
BRANCH  13  14
HETATM   14  C   UNL     1     -10.433   6.866  70.187  1.00  0.00    -0.233 C  
BRANCH  14  15
HETATM   15  C   UNL     1      -9.637   5.666  69.677  1.00  0.00    -0.197 C  
BRANCH  15  16
HETATM   16  C   UNL     1      -8.299   5.518  70.388  1.00  0.00    -0.111 C  
BRANCH  16  17
HETATM   17  C   UNL     1      -8.411   6.008  71.831  1.00  0.00    -0.133 C  
BRANCH  17  18
HETATM   18  C   UNL     1      -7.444   7.154  72.104  1.00  0.00    -0.085 C  
HETATM   19  C   UNL     1      -6.692   7.549  70.844  1.00  0.00    -0.043 C  
ENDBRANCH  17  18
ENDBRANCH  16  17
ENDBRANCH  15  16
ENDBRANCH  14  15
ENDBRANCH  13  14
ENDBRANCH  12  13
ENDBRANCH   9  12
ENDBRANCH   8   9
ENDBRANCH   7   8
ENDBRANCH   6   7
ENDBRANCH   5   6
ENDBRANCH   4   5
ENDBRANCH   3   4
ENDBRANCH   2   3
TORSDOF 14
ENDMDL
MODEL      366
REMARK 921   NORMALIZED FREE ENERGY PREDICTED BY IDOCK:   -1.79 KCAL/MOL
REMARK 922        TOTAL FREE ENERGY PREDICTED BY IDOCK:   -5.00 KCAL/MOL
REMARK 923 INTER-LIGAND FREE ENERGY PREDICTED BY IDOCK:   -4.49 KCAL/MOL
REMARK 924 INTRA-LIGAND FREE ENERGY PREDICTED BY IDOCK:   -0.51 KCAL/MOL
REMARK 927      BINDING AFFINITY PREDICTED BY RF-SCORE:    0.00 PKD
ROOT
HETATM    1  C   UNL     1     -10.318  20.085  66.996  1.00  0.00    -0.555 C  
HETATM    2  C   UNL     1      -9.367  18.899  66.985  1.00  0.00    -0.329 C  
ENDROOT
BRANCH   2   3
HETATM    3  C   UNL     1      -7.919  19.353  67.127  1.00  0.00    -0.286 C  
BRANCH   3   4
HETATM    4  C   UNL     1      -7.279  18.778  68.390  1.00  0.00    -0.304 C  
BRANCH   4   5
HETATM    5  C   UNL     1      -6.717  17.393  68.108  1.00  0.00    -0.178 C  
BRANCH   5   6
HETATM    6  C   UNL     1      -7.006  16.410  69.242  1.00  0.00    -0.223 C  
BRANCH   6   7
HETATM    7  C   UNL     1      -8.216  15.562  68.861  1.00  0.00    -0.201 C  
BRANCH   7   8
HETATM    8  C   UNL     1      -9.536  16.285  69.114  1.00  0.00    -0.251 C  
BRANCH   8   9
HETATM    9  N   UNL     1     -10.761  15.325  69.112  1.00  0.00    -0.239 N  
HETATM   10  C   UNL     1     -11.217  15.050  70.545  1.00  0.00    -0.248 C  
HETATM   11  C   UNL     1     -11.910  15.940  68.312  1.00  0.00    -0.057 C  
BRANCH   9  12
HETATM   12  C   UNL     1     -10.282  14.009  68.438  1.00  0.00    -0.239 C  
BRANCH  12  13
HETATM   13  C   UNL     1     -11.390  12.968  68.320  1.00  0.00    -0.323 C  
BRANCH  13  14
HETATM   14  C   UNL     1     -10.935  11.712  67.581  1.00  0.00    -0.294 C  
BRANCH  14  15
HETATM   15  C   UNL     1     -10.005  10.913  68.494  1.00  0.00    -0.188 C  
BRANCH  15  16
HETATM   16  C   UNL     1      -9.522   9.626  67.840  1.00  0.00    -0.148 C  
BRANCH  16  17
HETATM   17  C   UNL     1      -9.858   8.427  68.724  1.00  0.00    -0.180 C  
BRANCH  17  18
HETATM   18  C   UNL     1      -9.403   7.121  68.083  1.00  0.00    -0.129 C  
HETATM   19  C   UNL     1      -7.973   7.228  67.578  1.00  0.00    -0.113 C  
ENDBRANCH  17  18
ENDBRANCH  16  17
ENDBRANCH  15  16
ENDBRANCH  14  15
ENDBRANCH  13  14
ENDBRANCH  12  13
ENDBRANCH   9  12
ENDBRANCH   8   9
ENDBRANCH   7   8
ENDBRANCH   6   7
ENDBRANCH   5   6
ENDBRANCH   4   5
ENDBRANCH   3   4
ENDBRANCH   2   3
TORSDOF 14
ENDMDL
MODEL      367
REMARK 921   NORMALIZED FREE ENERGY PREDICTED BY IDOCK:   -1.79 KCAL/MOL
REMARK 922        TOTAL FREE ENERGY PREDICTED BY IDOCK:   -4.99 KCAL/MOL
REMARK 923 INTER-LIGAND FREE ENERGY PREDICTED BY IDOCK:   -3.94 KCAL/MOL
REMARK 924 INTRA-LIGAND FREE ENERGY PREDICTED BY IDOCK:   -1.05 KCAL/MOL
REMARK 927      BINDING AFFINITY PREDICTED BY RF-SCORE:    0.00 PKD
ROOT
HETATM    1  C   UNL     1     -11.089  13.571  64.469  1.00  0.00    -0.394 C  
HETATM    2  C   UNL     1     -10.804  12.382  63.566  1.00  0.00    -0.487 C  
ENDROOT
BRANCH   2   3
HETATM    3  C   UNL     1      -9.532  11.659  63.995  1.00  0.00    -0.072 C  
BRANCH   3   4
HETATM    4  C   UNL     1      -9.755  10.861  65.279  1.00  0.00    -0.296 C  
BRANCH   4   5
HETATM    5  C   UNL     1      -8.823  11.360  66.374  1.00  0.00    -0.193 C  
BRANCH   5   6
HETATM    6  C   UNL     1      -7.794  10.306  66.782  1.00  0.00    -0.114 C  
BRANCH   6   7
HETATM    7  C   UNL     1      -8.054   9.899  68.229  1.00  0.00    -0.104 C  
BRANCH   7   8
HETATM    8  C   UNL     1      -8.468   8.436  68.357  1.00  0.00    -0.135 C  
BRANCH   8   9
HETATM    9  N   UNL     1     -10.004   8.256  68.525  1.00  0.00    -0.185 N  
HETATM   10  C   UNL     1     -10.665   9.604  68.810  1.00  0.00    -0.206 C  
HETATM   11  C   UNL     1     -10.604   7.641  67.259  1.00  0.00    -0.318 C  
BRANCH   9  12
HETATM   12  C   UNL     1     -10.201   7.295  69.731  1.00  0.00    -0.210 C  
BRANCH  12  13
HETATM   13  C   UNL     1     -10.942   7.949  70.894  1.00  0.00    -0.256 C  
BRANCH  13  14
HETATM   14  C   UNL     1     -10.286   7.657  72.242  1.00  0.00    -0.268 C  
BRANCH  14  15
HETATM   15  C   UNL     1      -8.909   8.319  72.271  1.00  0.00    -0.274 C  
BRANCH  15  16
HETATM   16  C   UNL     1      -7.896   7.506  73.065  1.00  0.00    -0.124 C  
BRANCH  16  17
HETATM   17  C   UNL     1      -7.768   6.102  72.475  1.00  0.00    -0.103 C  
BRANCH  17  18
HETATM   18  C   UNL     1      -7.709   5.044  73.571  1.00  0.00    -0.096 C  
HETATM   19  C   UNL     1      -9.090   4.479  73.862  1.00  0.00    -0.107 C  
ENDBRANCH  17  18
ENDBRANCH  16  17
ENDBRANCH  15  16
ENDBRANCH  14  15
ENDBRANCH  13  14
ENDBRANCH  12  13
ENDBRANCH   9  12
ENDBRANCH   8   9
ENDBRANCH   7   8
ENDBRANCH   6   7
ENDBRANCH   5   6
ENDBRANCH   4   5
ENDBRANCH   3   4
ENDBRANCH   2   3
TORSDOF 14
ENDMDL
MODEL      368
REMARK 921   NORMALIZED FREE ENERGY PREDICTED BY IDOCK:   -1.79 KCAL/MOL
REMARK 922        TOTAL FREE ENERGY PREDICTED BY IDOCK:   -4.99 KCAL/MOL
REMARK 923 INTER-LIGAND FREE ENERGY PREDICTED BY IDOCK:   -4.41 KCAL/MOL
REMARK 924 INTRA-LIGAND FREE ENERGY PREDICTED BY IDOCK:   -0.59 KCAL/MOL
REMARK 927      BINDING AFFINITY PREDICTED BY RF-SCORE:    0.00 PKD
ROOT
HETATM    1  C   UNL     1      -7.907   3.361  68.350  1.00  0.00    -0.059 C  
HETATM    2  C   UNL     1      -8.319   4.382  69.398  1.00  0.00    -0.083 C  
ENDROOT
BRANCH   2   3
HETATM    3  C   UNL     1      -9.822   4.335  69.650  1.00  0.00    -0.244 C  
BRANCH   3   4
HETATM    4  C   UNL     1     -10.488   5.659  69.277  1.00  0.00    -0.356 C  
BRANCH   4   5
HETATM    5  C   UNL     1     -10.433   5.867  67.770  1.00  0.00    -0.300 C  
BRANCH   5   6
HETATM    6  C   UNL     1     -11.140   7.151  67.338  1.00  0.00    -0.208 C  
BRANCH   6   7
HETATM    7  C   UNL     1     -10.105   8.266  67.219  1.00  0.00    -0.315 C  
BRANCH   7   8
HETATM    8  C   UNL     1     -10.670   9.629  67.607  1.00  0.00    -0.262 C  
BRANCH   8   9
HETATM    9  N   UNL     1      -9.937  10.809  66.908  1.00  0.00    -0.193 N  
HETATM   10  C   UNL     1      -8.423  10.614  66.994  1.00  0.00    -0.129 C  
HETATM   11  C   UNL     1     -10.365  10.900  65.443  1.00  0.00    -0.261 C  
BRANCH   9  12
HETATM   12  C   UNL     1     -10.358  12.097  67.671  1.00  0.00    -0.203 C  
BRANCH  12  13
HETATM   13  C   UNL     1      -9.246  13.139  67.730  1.00  0.00    -0.203 C  
BRANCH  13  14
HETATM   14  C   UNL     1      -9.661  14.392  68.497  1.00  0.00    -0.217 C  
BRANCH  14  15
HETATM   15  C   UNL     1      -9.697  15.573  67.528  1.00  0.00    -0.215 C  
BRANCH  15  16
HETATM   16  C   UNL     1      -8.468  15.620  66.631  1.00  0.00    -0.323 C  
BRANCH  16  17
HETATM   17  C   UNL     1      -7.512  16.714  67.103  1.00  0.00    -0.218 C  
BRANCH  17  18
HETATM   18  C   UNL     1      -7.486  17.885  66.127  1.00  0.00    -0.315 C  
HETATM   19  C   UNL     1      -8.222  19.088  66.695  1.00  0.00    -0.301 C  
ENDBRANCH  17  18
ENDBRANCH  16  17
ENDBRANCH  15  16
ENDBRANCH  14  15
ENDBRANCH  13  14
ENDBRANCH  12  13
ENDBRANCH   9  12
ENDBRANCH   8   9
ENDBRANCH   7   8
ENDBRANCH   6   7
ENDBRANCH   5   6
ENDBRANCH   4   5
ENDBRANCH   3   4
ENDBRANCH   2   3
TORSDOF 14
ENDMDL
MODEL      369
REMARK 921   NORMALIZED FREE ENERGY PREDICTED BY IDOCK:   -1.79 KCAL/MOL
REMARK 922        TOTAL FREE ENERGY PREDICTED BY IDOCK:   -4.98 KCAL/MOL
REMARK 923 INTER-LIGAND FREE ENERGY PREDICTED BY IDOCK:   -3.56 KCAL/MOL
REMARK 924 INTRA-LIGAND FREE ENERGY PREDICTED BY IDOCK:   -1.42 KCAL/MOL
REMARK 927      BINDING AFFINITY PREDICTED BY RF-SCORE:    0.00 PKD
ROOT
HETATM    1  C   UNL     1      -7.272   6.252  63.082  1.00  0.00    -0.057 C  
HETATM    2  C   UNL     1      -7.552   7.462  63.959  1.00  0.00    -0.110 C  
ENDROOT
BRANCH   2   3
HETATM    3  C   UNL     1      -6.753   8.673  63.495  1.00  0.00    -0.088 C  
BRANCH   3   4
HETATM    4  C   UNL     1      -7.553   9.964  63.666  1.00  0.00    -0.134 C  
BRANCH   4   5
HETATM    5  C   UNL     1      -9.045   9.664  63.635  1.00  0.00    -0.214 C  
BRANCH   5   6
HETATM    6  C   UNL     1      -9.829  10.708  62.841  1.00  0.00    -0.271 C  
BRANCH   6   7
HETATM    7  C   UNL     1     -10.455  11.699  63.818  1.00  0.00    -0.454 C  
BRANCH   7   8
HETATM    8  C   UNL     1     -10.252  11.290  65.274  1.00  0.00    -0.274 C  
BRANCH   8   9
HETATM    9  N   UNL     1     -10.337  12.492  66.257  1.00  0.00    -0.246 N  
HETATM   10  C   UNL     1      -8.933  12.942  66.663  1.00  0.00    -0.136 C  
HETATM   11  C   UNL     1     -11.084  13.655  65.602  1.00  0.00    -0.294 C  
BRANCH   9  12
HETATM   12  C   UNL     1     -11.120  11.984  67.500  1.00  0.00    -0.275 C  
BRANCH  12  13
HETATM   13  C   UNL     1     -11.278  10.467  67.520  1.00  0.00    -0.299 C  
BRANCH  13  14
HETATM   14  C   UNL     1     -10.836   9.852  68.846  1.00  0.00    -0.239 C  
BRANCH  14  15
HETATM   15  C   UNL     1      -9.309   9.864  68.909  1.00  0.00    -0.170 C  
BRANCH  15  16
HETATM   16  C   UNL     1      -8.680   9.076  67.768  1.00  0.00    -0.125 C  
BRANCH  16  17
HETATM   17  C   UNL     1      -7.166   9.280  67.759  1.00  0.00    -0.083 C  
BRANCH  17  18
HETATM   18  C   UNL     1      -6.748  10.374  68.735  1.00  0.00    -0.053 C  
HETATM   19  C   UNL     1      -5.241  10.570  68.726  1.00  0.00    -0.041 C  
ENDBRANCH  17  18
ENDBRANCH  16  17
ENDBRANCH  15  16
ENDBRANCH  14  15
ENDBRANCH  13  14
ENDBRANCH  12  13
ENDBRANCH   9  12
ENDBRANCH   8   9
ENDBRANCH   7   8
ENDBRANCH   6   7
ENDBRANCH   5   6
ENDBRANCH   4   5
ENDBRANCH   3   4
ENDBRANCH   2   3
TORSDOF 14
ENDMDL
MODEL      370
REMARK 921   NORMALIZED FREE ENERGY PREDICTED BY IDOCK:   -1.78 KCAL/MOL
REMARK 922        TOTAL FREE ENERGY PREDICTED BY IDOCK:   -4.97 KCAL/MOL
REMARK 923 INTER-LIGAND FREE ENERGY PREDICTED BY IDOCK:   -3.71 KCAL/MOL
REMARK 924 INTRA-LIGAND FREE ENERGY PREDICTED BY IDOCK:   -1.25 KCAL/MOL
REMARK 927      BINDING AFFINITY PREDICTED BY RF-SCORE:    0.00 PKD
ROOT
HETATM    1  C   UNL     1      -6.891  15.909  67.200  1.00  0.00    -0.199 C  
HETATM    2  C   UNL     1      -7.016  14.440  67.570  1.00  0.00    -0.182 C  
ENDROOT
BRANCH   2   3
HETATM    3  C   UNL     1      -8.413  13.913  67.267  1.00  0.00    -0.212 C  
BRANCH   3   4
HETATM    4  C   UNL     1      -9.202  14.899  66.405  1.00  0.00    -0.317 C  
BRANCH   4   5
HETATM    5  C   UNL     1     -10.487  14.252  65.911  1.00  0.00    -0.315 C  
BRANCH   5   6
HETATM    6  C   UNL     1     -10.342  13.678  64.502  1.00  0.00    -0.355 C  
BRANCH   6   7
HETATM    7  C   UNL     1     -10.579  12.172  64.557  1.00  0.00    -0.350 C  
BRANCH   7   8
HETATM    8  C   UNL     1     -10.286  11.487  63.226  1.00  0.00    -0.391 C  
BRANCH   8   9
HETATM    9  N   UNL     1      -9.032  10.568  63.282  1.00  0.00    -0.206 N  
HETATM   10  C   UNL     1      -9.268   9.303  62.458  1.00  0.00     0.079 C  
HETATM   11  C   UNL     1      -7.809  11.314  62.748  1.00  0.00     0.347 C  
BRANCH   9  12
HETATM   12  C   UNL     1      -8.826  10.204  64.780  1.00  0.00    -0.195 C  
BRANCH  12  13
HETATM   13  C   UNL     1      -7.957   8.966  64.973  1.00  0.00    -0.125 C  
BRANCH  13  14
HETATM   14  C   UNL     1      -8.465   8.066  66.097  1.00  0.00    -0.141 C  
BRANCH  14  15
HETATM   15  C   UNL     1      -9.760   8.657  66.653  1.00  0.00    -0.315 C  
BRANCH  15  16
HETATM   16  C   UNL     1      -9.631   9.049  68.118  1.00  0.00    -0.164 C  
BRANCH  16  17
HETATM   17  C   UNL     1     -10.058  10.502  68.315  1.00  0.00    -0.180 C  
BRANCH  17  18
HETATM   18  C   UNL     1     -10.428  10.779  69.768  1.00  0.00    -0.130 C  
HETATM   19  C   UNL     1     -10.213   9.548  70.633  1.00  0.00    -0.364 C  
ENDBRANCH  17  18
ENDBRANCH  16  17
ENDBRANCH  15  16
ENDBRANCH  14  15
ENDBRANCH  13  14
ENDBRANCH  12  13
ENDBRANCH   9  12
ENDBRANCH   8   9
ENDBRANCH   7   8
ENDBRANCH   6   7
ENDBRANCH   5   6
ENDBRANCH   4   5
ENDBRANCH   3   4
ENDBRANCH   2   3
TORSDOF 14
ENDMDL
MODEL      371
REMARK 921   NORMALIZED FREE ENERGY PREDICTED BY IDOCK:   -1.78 KCAL/MOL
REMARK 922        TOTAL FREE ENERGY PREDICTED BY IDOCK:   -4.97 KCAL/MOL
REMARK 923 INTER-LIGAND FREE ENERGY PREDICTED BY IDOCK:   -2.93 KCAL/MOL
REMARK 924 INTRA-LIGAND FREE ENERGY PREDICTED BY IDOCK:   -2.04 KCAL/MOL
REMARK 927      BINDING AFFINITY PREDICTED BY RF-SCORE:    0.00 PKD
ROOT
HETATM    1  C   UNL     1      -5.775   5.369  69.354  1.00  0.00    -0.012 C  
HETATM    2  C   UNL     1      -6.388   6.071  68.153  1.00  0.00    -0.044 C  
ENDROOT
BRANCH   2   3
HETATM    3  C   UNL     1      -7.642   5.349  67.676  1.00  0.00    -0.088 C  
BRANCH   3   4
HETATM    4  C   UNL     1      -8.513   4.913  68.853  1.00  0.00    -0.086 C  
BRANCH   4   5
HETATM    5  C   UNL     1      -9.984   4.972  68.469  1.00  0.00    -0.207 C  
BRANCH   5   6
HETATM    6  C   UNL     1     -10.833   5.666  69.533  1.00  0.00    -0.345 C  
BRANCH   6   7
HETATM    7  C   UNL     1     -10.099   6.917  70.008  1.00  0.00    -0.195 C  
BRANCH   7   8
HETATM    8  C   UNL     1     -10.599   8.183  69.319  1.00  0.00    -0.182 C  
BRANCH   8   9
HETATM    9  N   UNL     1     -10.307   9.472  70.138  1.00  0.00    -0.236 N  
HETATM   10  C   UNL     1      -9.955  10.626  69.198  1.00  0.00    -0.211 C  
HETATM   11  C   UNL     1     -11.526   9.846  70.983  1.00  0.00    -0.388 C  
BRANCH   9  12
HETATM   12  C   UNL     1      -9.099   9.140  71.058  1.00  0.00    -0.237 C  
BRANCH  12  13
HETATM   13  C   UNL     1      -7.755   9.438  70.400  1.00  0.00    -0.163 C  
BRANCH  13  14
HETATM   14  C   UNL     1      -6.611   8.641  71.023  1.00  0.00    -0.053 C  
BRANCH  14  15
HETATM   15  C   UNL     1      -7.077   8.079  72.365  1.00  0.00    -0.101 C  
BRANCH  15  16
HETATM   16  C   UNL     1      -6.310   6.825  72.762  1.00  0.00    -0.054 C  
BRANCH  16  17
HETATM   17  C   UNL     1      -7.238   5.842  73.473  1.00  0.00    -0.086 C  
BRANCH  17  18
HETATM   18  C   UNL     1      -7.814   4.820  72.500  1.00  0.00    -0.092 C  
HETATM   19  C   UNL     1      -9.299   4.607  72.744  1.00  0.00    -0.148 C  
ENDBRANCH  17  18
ENDBRANCH  16  17
ENDBRANCH  15  16
ENDBRANCH  14  15
ENDBRANCH  13  14
ENDBRANCH  12  13
ENDBRANCH   9  12
ENDBRANCH   8   9
ENDBRANCH   7   8
ENDBRANCH   6   7
ENDBRANCH   5   6
ENDBRANCH   4   5
ENDBRANCH   3   4
ENDBRANCH   2   3
TORSDOF 14
ENDMDL
MODEL      372
REMARK 921   NORMALIZED FREE ENERGY PREDICTED BY IDOCK:   -1.77 KCAL/MOL
REMARK 922        TOTAL FREE ENERGY PREDICTED BY IDOCK:   -4.95 KCAL/MOL
REMARK 923 INTER-LIGAND FREE ENERGY PREDICTED BY IDOCK:   -3.45 KCAL/MOL
REMARK 924 INTRA-LIGAND FREE ENERGY PREDICTED BY IDOCK:   -1.49 KCAL/MOL
REMARK 927      BINDING AFFINITY PREDICTED BY RF-SCORE:    0.00 PKD
ROOT
HETATM    1  C   UNL     1     -11.303  13.439  68.506  1.00  0.00    -0.324 C  
HETATM    2  C   UNL     1     -11.636  12.071  67.932  1.00  0.00    -0.405 C  
ENDROOT
BRANCH   2   3
HETATM    3  C   UNL     1     -10.669  11.010  68.443  1.00  0.00    -0.240 C  
BRANCH   3   4
HETATM    4  C   UNL     1     -10.405   9.944  67.381  1.00  0.00    -0.301 C  
BRANCH   4   5
HETATM    5  C   UNL     1     -10.780   8.569  67.914  1.00  0.00    -0.148 C  
BRANCH   5   6
HETATM    6  C   UNL     1     -10.632   7.477  66.854  1.00  0.00    -0.367 C  
BRANCH   6   7
HETATM    7  C   UNL     1     -10.891   6.122  67.505  1.00  0.00    -0.422 C  
BRANCH   7   8
HETATM    8  C   UNL     1     -10.203   5.985  68.860  1.00  0.00    -0.196 C  
BRANCH   8   9
HETATM    9  N   UNL     1      -9.080   4.909  68.862  1.00  0.00    -0.107 N  
HETATM   10  C   UNL     1      -8.897   4.340  70.268  1.00  0.00    -0.084 C  
HETATM   11  C   UNL     1      -9.429   3.783  67.888  1.00  0.00    -0.170 C  
BRANCH   9  12
HETATM   12  C   UNL     1      -7.783   5.632  68.401  1.00  0.00    -0.092 C  
BRANCH  12  13
HETATM   13  C   UNL     1      -6.926   6.112  69.568  1.00  0.00    -0.067 C  
BRANCH  13  14
HETATM   14  C   UNL     1      -7.032   7.619  69.789  1.00  0.00    -0.051 C  
BRANCH  14  15
HETATM   15  C   UNL     1      -7.337   8.292  68.451  1.00  0.00    -0.094 C  
BRANCH  15  16
HETATM   16  C   UNL     1      -6.073   8.733  67.726  1.00  0.00    -0.048 C  
BRANCH  16  17
HETATM   17  C   UNL     1      -6.388   9.056  66.267  1.00  0.00    -0.065 C  
BRANCH  17  18
HETATM   18  C   UNL     1      -6.961  10.461  66.121  1.00  0.00    -0.126 C  
HETATM   19  C   UNL     1      -6.092  11.484  66.834  1.00  0.00    -0.146 C  
ENDBRANCH  17  18
ENDBRANCH  16  17
ENDBRANCH  15  16
ENDBRANCH  14  15
ENDBRANCH  13  14
ENDBRANCH  12  13
ENDBRANCH   9  12
ENDBRANCH   8   9
ENDBRANCH   7   8
ENDBRANCH   6   7
ENDBRANCH   5   6
ENDBRANCH   4   5
ENDBRANCH   3   4
ENDBRANCH   2   3
TORSDOF 14
ENDMDL
MODEL      373
REMARK 921   NORMALIZED FREE ENERGY PREDICTED BY IDOCK:   -1.76 KCAL/MOL
REMARK 922        TOTAL FREE ENERGY PREDICTED BY IDOCK:   -4.93 KCAL/MOL
REMARK 923 INTER-LIGAND FREE ENERGY PREDICTED BY IDOCK:   -3.85 KCAL/MOL
REMARK 924 INTRA-LIGAND FREE ENERGY PREDICTED BY IDOCK:   -1.08 KCAL/MOL
REMARK 927      BINDING AFFINITY PREDICTED BY RF-SCORE:    0.00 PKD
ROOT
HETATM    1  C   UNL     1      -9.735  10.459  64.809  1.00  0.00    -0.383 C  
HETATM    2  C   UNL     1      -9.275   9.914  63.466  1.00  0.00    -0.279 C  
ENDROOT
BRANCH   2   3
HETATM    3  C   UNL     1      -7.849  10.353  63.154  1.00  0.00    -0.114 C  
BRANCH   3   4
HETATM    4  C   UNL     1      -6.832   9.329  63.655  1.00  0.00    -0.092 C  
BRANCH   4   5
HETATM    5  C   UNL     1      -7.309   7.918  63.341  1.00  0.00    -0.108 C  
BRANCH   5   6
HETATM    6  C   UNL     1      -7.018   6.942  64.480  1.00  0.00    -0.055 C  
BRANCH   6   7
HETATM    7  C   UNL     1      -8.319   6.645  65.219  1.00  0.00    -0.112 C  
BRANCH   7   8
HETATM    8  C   UNL     1      -8.228   6.961  66.709  1.00  0.00    -0.114 C  
BRANCH   8   9
HETATM    9  N   UNL     1      -9.370   6.306  67.536  1.00  0.00    -0.114 N  
HETATM   10  C   UNL     1     -10.696   6.415  66.784  1.00  0.00    -0.285 C  
HETATM   11  C   UNL     1      -9.047   4.836  67.807  1.00  0.00    -0.116 C  
BRANCH   9  12
HETATM   12  C   UNL     1      -9.445   7.093  68.875  1.00  0.00    -0.142 C  
BRANCH  12  13
HETATM   13  C   UNL     1      -8.234   7.992  69.102  1.00  0.00    -0.130 C  
BRANCH  13  14
HETATM   14  C   UNL     1      -8.627   9.429  69.433  1.00  0.00    -0.148 C  
BRANCH  14  15
HETATM   15  C   UNL     1     -10.035   9.429  70.027  1.00  0.00    -0.253 C  
BRANCH  15  16
HETATM   16  C   UNL     1     -10.894  10.557  69.471  1.00  0.00    -0.298 C  
BRANCH  16  17
HETATM   17  C   UNL     1     -11.929  10.992  70.508  1.00  0.00    -0.474 C  
BRANCH  17  18
HETATM   18  C   UNL     1     -13.123  10.044  70.531  1.00  0.00    -0.119 C  
HETATM   19  C   UNL     1     -13.399   9.544  71.940  1.00  0.00    -0.518 C  
ENDBRANCH  17  18
ENDBRANCH  16  17
ENDBRANCH  15  16
ENDBRANCH  14  15
ENDBRANCH  13  14
ENDBRANCH  12  13
ENDBRANCH   9  12
ENDBRANCH   8   9
ENDBRANCH   7   8
ENDBRANCH   6   7
ENDBRANCH   5   6
ENDBRANCH   4   5
ENDBRANCH   3   4
ENDBRANCH   2   3
TORSDOF 14
ENDMDL
MODEL      374
REMARK 921   NORMALIZED FREE ENERGY PREDICTED BY IDOCK:   -1.76 KCAL/MOL
REMARK 922        TOTAL FREE ENERGY PREDICTED BY IDOCK:   -4.93 KCAL/MOL
REMARK 923 INTER-LIGAND FREE ENERGY PREDICTED BY IDOCK:   -3.99 KCAL/MOL
REMARK 924 INTRA-LIGAND FREE ENERGY PREDICTED BY IDOCK:   -0.94 KCAL/MOL
REMARK 927      BINDING AFFINITY PREDICTED BY RF-SCORE:    0.00 PKD
ROOT
HETATM    1  C   UNL     1     -11.183  13.344  64.519  1.00  0.00    -0.393 C  
HETATM    2  C   UNL     1     -11.558  12.135  63.678  1.00  0.00    -0.575 C  
ENDROOT
BRANCH   2   3
HETATM    3  C   UNL     1     -10.410  11.134  63.612  1.00  0.00    -0.449 C  
BRANCH   3   4
HETATM    4  C   UNL     1     -10.267  10.367  64.926  1.00  0.00    -0.330 C  
BRANCH   4   5
HETATM    5  C   UNL     1      -8.858  10.528  65.476  1.00  0.00    -0.200 C  
BRANCH   5   6
HETATM    6  C   UNL     1      -7.950   9.360  65.090  1.00  0.00    -0.116 C  
BRANCH   6   7
HETATM    7  C   UNL     1      -7.422   8.706  66.364  1.00  0.00    -0.087 C  
BRANCH   7   8
HETATM    8  C   UNL     1      -7.924   7.276  66.535  1.00  0.00    -0.115 C  
BRANCH   8   9
HETATM    9  N   UNL     1      -8.946   7.129  67.699  1.00  0.00    -0.125 N  
HETATM   10  C   UNL     1      -8.879   8.350  68.616  1.00  0.00    -0.136 C  
HETATM   11  C   UNL     1     -10.361   6.977  67.140  1.00  0.00    -0.281 C  
BRANCH   9  12
HETATM   12  C   UNL     1      -8.537   5.847  68.478  1.00  0.00    -0.110 C  
BRANCH  12  13
HETATM   13  C   UNL     1      -9.699   4.877  68.671  1.00  0.00    -0.225 C  
BRANCH  13  14
HETATM   14  C   UNL     1      -9.752   4.305  70.086  1.00  0.00    -0.282 C  
BRANCH  14  15
HETATM   15  C   UNL     1      -9.938   5.456  71.074  1.00  0.00    -0.261 C  
BRANCH  15  16
HETATM   16  C   UNL     1      -8.982   5.361  72.255  1.00  0.00    -0.134 C  
BRANCH  16  17
HETATM   17  C   UNL     1      -7.536   5.444  71.771  1.00  0.00    -0.098 C  
BRANCH  17  18
HETATM   18  C   UNL     1      -6.705   4.282  72.305  1.00  0.00    -0.041 C  
HETATM   19  C   UNL     1      -6.655   3.139  71.304  1.00  0.00    -0.030 C  
ENDBRANCH  17  18
ENDBRANCH  16  17
ENDBRANCH  15  16
ENDBRANCH  14  15
ENDBRANCH  13  14
ENDBRANCH  12  13
ENDBRANCH   9  12
ENDBRANCH   8   9
ENDBRANCH   7   8
ENDBRANCH   6   7
ENDBRANCH   5   6
ENDBRANCH   4   5
ENDBRANCH   3   4
ENDBRANCH   2   3
TORSDOF 14
ENDMDL
MODEL      375
REMARK 921   NORMALIZED FREE ENERGY PREDICTED BY IDOCK:   -1.74 KCAL/MOL
REMARK 922        TOTAL FREE ENERGY PREDICTED BY IDOCK:   -4.90 KCAL/MOL
REMARK 923 INTER-LIGAND FREE ENERGY PREDICTED BY IDOCK:   -3.89 KCAL/MOL
REMARK 924 INTRA-LIGAND FREE ENERGY PREDICTED BY IDOCK:   -1.01 KCAL/MOL
REMARK 927      BINDING AFFINITY PREDICTED BY RF-SCORE:    0.00 PKD
ROOT
HETATM    1  C   UNL     1      -5.333   3.625  69.811  1.00  0.00    -0.008 C  
HETATM    2  C   UNL     1      -5.566   2.812  68.547  1.00  0.00    -0.018 C  
ENDROOT
BRANCH   2   3
HETATM    3  C   UNL     1      -7.020   2.900  68.098  1.00  0.00    -0.049 C  
BRANCH   3   4
HETATM    4  C   UNL     1      -7.754   4.034  68.814  1.00  0.00    -0.054 C  
BRANCH   4   5
HETATM    5  C   UNL     1      -8.244   5.061  67.804  1.00  0.00    -0.098 C  
BRANCH   5   6
HETATM    6  C   UNL     1      -8.444   6.440  68.433  1.00  0.00    -0.116 C  
BRANCH   6   7
HETATM    7  C   UNL     1      -9.082   7.363  67.400  1.00  0.00    -0.129 C  
BRANCH   7   8
HETATM    8  C   UNL     1      -8.440   8.748  67.381  1.00  0.00    -0.116 C  
BRANCH   8   9
HETATM    9  N   UNL     1      -9.487   9.898  67.332  1.00  0.00    -0.147 N  
HETATM   10  C   UNL     1      -8.826  11.228  67.694  1.00  0.00    -0.138 C  
HETATM   11  C   UNL     1     -10.103   9.989  65.935  1.00  0.00    -0.249 C  
BRANCH   9  12
HETATM   12  C   UNL     1     -10.580   9.538  68.377  1.00  0.00    -0.219 C  
BRANCH  12  13
HETATM   13  C   UNL     1     -10.360  10.223  69.723  1.00  0.00    -0.287 C  
BRANCH  13  14
HETATM   14  C   UNL     1     -10.299   9.229  70.880  1.00  0.00    -0.367 C  
BRANCH  14  15
HETATM   15  C   UNL     1     -11.656   9.209  71.583  1.00  0.00    -0.449 C  
BRANCH  15  16
HETATM   16  C   UNL     1     -11.721   8.153  72.678  1.00  0.00    -0.419 C  
BRANCH  16  17
HETATM   17  C   UNL     1     -10.344   7.526  72.890  1.00  0.00    -0.349 C  
BRANCH  17  18
HETATM   18  C   UNL     1     -10.441   6.231  73.688  1.00  0.00    -0.299 C  
HETATM   19  C   UNL     1     -11.386   5.245  73.020  1.00  0.00    -0.376 C  
ENDBRANCH  17  18
ENDBRANCH  16  17
ENDBRANCH  15  16
ENDBRANCH  14  15
ENDBRANCH  13  14
ENDBRANCH  12  13
ENDBRANCH   9  12
ENDBRANCH   8   9
ENDBRANCH   7   8
ENDBRANCH   6   7
ENDBRANCH   5   6
ENDBRANCH   4   5
ENDBRANCH   3   4
ENDBRANCH   2   3
TORSDOF 14
ENDMDL
MODEL      376
REMARK 921   NORMALIZED FREE ENERGY PREDICTED BY IDOCK:   -1.71 KCAL/MOL
REMARK 922        TOTAL FREE ENERGY PREDICTED BY IDOCK:   -4.85 KCAL/MOL
REMARK 923 INTER-LIGAND FREE ENERGY PREDICTED BY IDOCK:   -3.10 KCAL/MOL
REMARK 924 INTRA-LIGAND FREE ENERGY PREDICTED BY IDOCK:   -1.74 KCAL/MOL
REMARK 927      BINDING AFFINITY PREDICTED BY RF-SCORE:    0.00 PKD
ROOT
HETATM    1  C   UNL     1      -5.395   8.866  70.394  1.00  0.00    -0.020 C  
HETATM    2  C   UNL     1      -6.194   7.777  69.696  1.00  0.00    -0.030 C  
ENDROOT
BRANCH   2   3
HETATM    3  C   UNL     1      -5.671   7.531  68.286  1.00  0.00    -0.027 C  
BRANCH   3   4
HETATM    4  C   UNL     1      -5.609   6.037  67.971  1.00  0.00    -0.008 C  
BRANCH   4   5
HETATM    5  C   UNL     1      -5.955   5.225  69.211  1.00  0.00    -0.024 C  
BRANCH   5   6
HETATM    6  C   UNL     1      -6.858   4.034  68.889  1.00  0.00    -0.046 C  
BRANCH   6   7
HETATM    7  C   UNL     1      -8.299   4.524  68.787  1.00  0.00    -0.086 C  
BRANCH   7   8
HETATM    8  C   UNL     1      -8.997   4.020  67.527  1.00  0.00    -0.129 C  
BRANCH   8   9
HETATM    9  N   UNL     1      -9.354   5.164  66.536  1.00  0.00    -0.135 N  
HETATM   10  C   UNL     1      -8.339   5.208  65.393  1.00  0.00    -0.132 C  
HETATM   11  C   UNL     1     -10.760   4.952  65.972  1.00  0.00    -0.190 C  
BRANCH   9  12
HETATM   12  C   UNL     1      -9.299   6.484  67.355  1.00  0.00    -0.121 C  
BRANCH  12  13
HETATM   13  C   UNL     1     -10.529   7.362  67.147  1.00  0.00    -0.403 C  
BRANCH  13  14
HETATM   14  C   UNL     1     -10.218   8.849  67.297  1.00  0.00    -0.326 C  
BRANCH  14  15
HETATM   15  C   UNL     1      -9.455   9.062  68.604  1.00  0.00    -0.149 C  
BRANCH  15  16
HETATM   16  C   UNL     1     -10.351   9.595  69.713  1.00  0.00    -0.266 C  
BRANCH  16  17
HETATM   17  C   UNL     1      -9.989   8.940  71.045  1.00  0.00    -0.324 C  
BRANCH  17  18
HETATM   18  C   UNL     1     -11.197   8.254  71.672  1.00  0.00    -0.330 C  
HETATM   19  C   UNL     1     -11.498   6.934  70.981  1.00  0.00    -0.358 C  
ENDBRANCH  17  18
ENDBRANCH  16  17
ENDBRANCH  15  16
ENDBRANCH  14  15
ENDBRANCH  13  14
ENDBRANCH  12  13
ENDBRANCH   9  12
ENDBRANCH   8   9
ENDBRANCH   7   8
ENDBRANCH   6   7
ENDBRANCH   5   6
ENDBRANCH   4   5
ENDBRANCH   3   4
ENDBRANCH   2   3
TORSDOF 14
ENDMDL
MODEL      377
REMARK 921   NORMALIZED FREE ENERGY PREDICTED BY IDOCK:   -1.70 KCAL/MOL
REMARK 922        TOTAL FREE ENERGY PREDICTED BY IDOCK:   -4.83 KCAL/MOL
REMARK 923 INTER-LIGAND FREE ENERGY PREDICTED BY IDOCK:   -4.00 KCAL/MOL
REMARK 924 INTRA-LIGAND FREE ENERGY PREDICTED BY IDOCK:   -0.83 KCAL/MOL
REMARK 927      BINDING AFFINITY PREDICTED BY RF-SCORE:    0.00 PKD
ROOT
HETATM    1  C   UNL     1      -6.731   8.701  74.254  1.00  0.00    -0.127 C  
HETATM    2  C   UNL     1      -7.875   7.749  74.562  1.00  0.00    -0.250 C  
ENDROOT
BRANCH   2   3
HETATM    3  C   UNL     1      -8.576   7.302  73.285  1.00  0.00    -0.168 C  
BRANCH   3   4
HETATM    4  C   UNL     1     -10.003   6.834  73.571  1.00  0.00    -0.269 C  
BRANCH   4   5
HETATM    5  C   UNL     1     -11.001   7.892  73.126  1.00  0.00    -0.301 C  
BRANCH   5   6
HETATM    6  C   UNL     1     -10.464   8.747  71.978  1.00  0.00    -0.414 C  
BRANCH   6   7
HETATM    7  C   UNL     1     -11.168   8.337  70.688  1.00  0.00    -0.270 C  
BRANCH   7   8
HETATM    8  C   UNL     1     -10.681   9.131  69.480  1.00  0.00    -0.215 C  
BRANCH   8   9
HETATM    9  N   UNL     1      -9.916   8.254  68.448  1.00  0.00    -0.184 N  
HETATM   10  C   UNL     1      -9.549   6.906  69.071  1.00  0.00    -0.136 C  
HETATM   11  C   UNL     1     -10.778   8.032  67.205  1.00  0.00    -0.215 C  
BRANCH   9  12
HETATM   12  C   UNL     1      -8.629   9.042  68.075  1.00  0.00    -0.129 C  
BRANCH  12  13
HETATM   13  C   UNL     1      -7.806   8.351  66.992  1.00  0.00    -0.096 C  
BRANCH  13  14
HETATM   14  C   UNL     1      -7.623   9.223  65.752  1.00  0.00    -0.098 C  
BRANCH  14  15
HETATM   15  C   UNL     1      -8.230   8.501  64.550  1.00  0.00    -0.158 C  
BRANCH  15  16
HETATM   16  C   UNL     1      -8.222   9.365  63.296  1.00  0.00    -0.166 C  
BRANCH  16  17
HETATM   17  C   UNL     1      -8.517  10.820  63.656  1.00  0.00    -0.005 C  
BRANCH  17  18
HETATM   18  C   UNL     1      -9.948  11.201  63.295  1.00  0.00    -0.419 C  
HETATM   19  C   UNL     1     -10.705  11.705  64.513  1.00  0.00    -0.378 C  
ENDBRANCH  17  18
ENDBRANCH  16  17
ENDBRANCH  15  16
ENDBRANCH  14  15
ENDBRANCH  13  14
ENDBRANCH  12  13
ENDBRANCH   9  12
ENDBRANCH   8   9
ENDBRANCH   7   8
ENDBRANCH   6   7
ENDBRANCH   5   6
ENDBRANCH   4   5
ENDBRANCH   3   4
ENDBRANCH   2   3
TORSDOF 14
ENDMDL
MODEL      378
REMARK 921   NORMALIZED FREE ENERGY PREDICTED BY IDOCK:   -1.69 KCAL/MOL
REMARK 922        TOTAL FREE ENERGY PREDICTED BY IDOCK:   -4.81 KCAL/MOL
REMARK 923 INTER-LIGAND FREE ENERGY PREDICTED BY IDOCK:   -4.08 KCAL/MOL
REMARK 924 INTRA-LIGAND FREE ENERGY PREDICTED BY IDOCK:   -0.73 KCAL/MOL
REMARK 927      BINDING AFFINITY PREDICTED BY RF-SCORE:    0.00 PKD
ROOT
HETATM    1  C   UNL     1      -6.950   8.353  74.563  1.00  0.00    -0.218 C  
HETATM    2  C   UNL     1      -7.286   6.907  74.237  1.00  0.00    -0.092 C  
ENDROOT
BRANCH   2   3
HETATM    3  C   UNL     1      -7.571   6.731  72.751  1.00  0.00    -0.091 C  
BRANCH   3   4
HETATM    4  C   UNL     1      -8.497   5.540  72.501  1.00  0.00    -0.118 C  
BRANCH   4   5
HETATM    5  C   UNL     1      -9.948   5.957  72.687  1.00  0.00    -0.195 C  
BRANCH   5   6
HETATM    6  C   UNL     1     -10.237   7.331  72.084  1.00  0.00    -0.216 C  
BRANCH   6   7
HETATM    7  C   UNL     1     -10.317   7.196  70.567  1.00  0.00    -0.215 C  
BRANCH   7   8
HETATM    8  C   UNL     1     -10.983   8.401  69.909  1.00  0.00    -0.166 C  
BRANCH   8   9
HETATM    9  N   UNL     1     -10.063   9.109  68.873  1.00  0.00    -0.191 N  
HETATM   10  C   UNL     1      -8.608   8.693  69.089  1.00  0.00    -0.129 C  
HETATM   11  C   UNL     1     -10.498   8.752  67.452  1.00  0.00    -0.279 C  
BRANCH   9  12
HETATM   12  C   UNL     1     -10.227  10.636  69.117  1.00  0.00    -0.220 C  
BRANCH  12  13
HETATM   13  C   UNL     1      -9.699  11.479  67.961  1.00  0.00    -0.187 C  
BRANCH  13  14
HETATM   14  C   UNL     1     -10.221  12.914  68.000  1.00  0.00    -0.229 C  
BRANCH  14  15
HETATM   15  C   UNL     1     -10.786  13.269  66.625  1.00  0.00    -0.284 C  
BRANCH  15  16
HETATM   16  C   UNL     1     -11.439  14.644  66.608  1.00  0.00    -0.363 C  
BRANCH  16  17
HETATM   17  C   UNL     1     -10.386  15.731  66.816  1.00  0.00    -0.293 C  
BRANCH  17  18
HETATM   18  C   UNL     1     -10.703  16.583  68.040  1.00  0.00    -0.343 C  
HETATM   19  C   UNL     1      -9.571  16.531  69.052  1.00  0.00    -0.255 C  
ENDBRANCH  17  18
ENDBRANCH  16  17
ENDBRANCH  15  16
ENDBRANCH  14  15
ENDBRANCH  13  14
ENDBRANCH  12  13
ENDBRANCH   9  12
ENDBRANCH   8   9
ENDBRANCH   7   8
ENDBRANCH   6   7
ENDBRANCH   5   6
ENDBRANCH   4   5
ENDBRANCH   3   4
ENDBRANCH   2   3
TORSDOF 14
ENDMDL
MODEL      379
REMARK 921   NORMALIZED FREE ENERGY PREDICTED BY IDOCK:   -1.69 KCAL/MOL
REMARK 922        TOTAL FREE ENERGY PREDICTED BY IDOCK:   -4.80 KCAL/MOL
REMARK 923 INTER-LIGAND FREE ENERGY PREDICTED BY IDOCK:   -3.95 KCAL/MOL
REMARK 924 INTRA-LIGAND FREE ENERGY PREDICTED BY IDOCK:   -0.85 KCAL/MOL
REMARK 927      BINDING AFFINITY PREDICTED BY RF-SCORE:    0.00 PKD
ROOT
HETATM    1  C   UNL     1      -6.890   8.111  74.449  1.00  0.00    -0.165 C  
HETATM    2  C   UNL     1      -6.917   6.613  74.192  1.00  0.00    -0.083 C  
ENDROOT
BRANCH   2   3
HETATM    3  C   UNL     1      -7.120   6.313  72.712  1.00  0.00    -0.076 C  
BRANCH   3   4
HETATM    4  C   UNL     1      -7.441   4.836  72.484  1.00  0.00    -0.085 C  
BRANCH   4   5
HETATM    5  C   UNL     1      -8.906   4.564  72.792  1.00  0.00    -0.118 C  
BRANCH   5   6
HETATM    6  C   UNL     1      -9.838   5.540  72.074  1.00  0.00    -0.204 C  
BRANCH   6   7
HETATM    7  C   UNL     1     -10.095   5.024  70.661  1.00  0.00    -0.313 C  
BRANCH   7   8
HETATM    8  C   UNL     1     -11.102   5.883  69.902  1.00  0.00    -0.347 C  
BRANCH   8   9
HETATM    9  N   UNL     1     -10.425   6.943  68.986  1.00  0.00    -0.199 N  
HETATM   10  C   UNL     1      -8.918   6.697  68.921  1.00  0.00    -0.130 C  
HETATM   11  C   UNL     1     -11.022   6.881  67.580  1.00  0.00    -0.270 C  
BRANCH   9  12
HETATM   12  C   UNL     1     -10.718   8.326  69.632  1.00  0.00    -0.194 C  
BRANCH  12  13
HETATM   13  C   UNL     1      -9.999   9.472  68.925  1.00  0.00    -0.187 C  
BRANCH  13  14
HETATM   14  C   UNL     1     -10.406  10.840  69.470  1.00  0.00    -0.178 C  
BRANCH  14  15
HETATM   15  C   UNL     1     -11.706  10.688  70.258  1.00  0.00    -0.433 C  
BRANCH  15  16
HETATM   16  C   UNL     1     -12.208  12.019  70.802  1.00  0.00    -0.382 C  
BRANCH  16  17
HETATM   17  C   UNL     1     -12.506  12.979  69.652  1.00  0.00     0.053 C  
BRANCH  17  18
HETATM   18  C   UNL     1     -11.790  14.311  69.843  1.00  0.00    -0.382 C  
HETATM   19  C   UNL     1     -10.750  14.535  68.757  1.00  0.00    -0.257 C  
ENDBRANCH  17  18
ENDBRANCH  16  17
ENDBRANCH  15  16
ENDBRANCH  14  15
ENDBRANCH  13  14
ENDBRANCH  12  13
ENDBRANCH   9  12
ENDBRANCH   8   9
ENDBRANCH   7   8
ENDBRANCH   6   7
ENDBRANCH   5   6
ENDBRANCH   4   5
ENDBRANCH   3   4
ENDBRANCH   2   3
TORSDOF 14
ENDMDL
MODEL      380
REMARK 921   NORMALIZED FREE ENERGY PREDICTED BY IDOCK:   -1.65 KCAL/MOL
REMARK 922        TOTAL FREE ENERGY PREDICTED BY IDOCK:   -4.74 KCAL/MOL
REMARK 923 INTER-LIGAND FREE ENERGY PREDICTED BY IDOCK:   -3.34 KCAL/MOL
REMARK 924 INTRA-LIGAND FREE ENERGY PREDICTED BY IDOCK:   -1.41 KCAL/MOL
REMARK 927      BINDING AFFINITY PREDICTED BY RF-SCORE:    0.00 PKD
ROOT
HETATM    1  C   UNL     1      -6.088   2.286  73.935  1.00  0.00    -0.008 C  
HETATM    2  C   UNL     1      -6.811   3.477  73.328  1.00  0.00    -0.040 C  
ENDROOT
BRANCH   2   3
HETATM    3  C   UNL     1      -6.567   3.561  71.826  1.00  0.00    -0.015 C  
BRANCH   3   4
HETATM    4  C   UNL     1      -7.517   4.559  71.165  1.00  0.00    -0.060 C  
BRANCH   4   5
HETATM    5  C   UNL     1      -7.647   4.254  69.680  1.00  0.00    -0.054 C  
BRANCH   5   6
HETATM    6  C   UNL     1      -7.102   5.385  68.807  1.00  0.00    -0.061 C  
BRANCH   6   7
HETATM    7  C   UNL     1      -8.254   5.989  68.010  1.00  0.00    -0.113 C  
BRANCH   7   8
HETATM    8  C   UNL     1      -8.596   7.405  68.463  1.00  0.00    -0.128 C  
BRANCH   8   9
HETATM    9  N   UNL     1     -10.058   7.812  68.123  1.00  0.00    -0.179 N  
HETATM   10  C   UNL     1     -10.088   8.657  66.850  1.00  0.00    -0.285 C  
HETATM   11  C   UNL     1     -10.922   6.564  67.937  1.00  0.00    -0.294 C  
BRANCH   9  12
HETATM   12  C   UNL     1     -10.572   8.643  69.332  1.00  0.00    -0.199 C  
BRANCH  12  13
HETATM   13  C   UNL     1      -9.558   8.721  70.470  1.00  0.00    -0.226 C  
BRANCH  13  14
HETATM   14  C   UNL     1     -10.144   8.269  71.805  1.00  0.00    -0.290 C  
BRANCH  14  15
HETATM   15  C   UNL     1     -10.242   6.744  71.808  1.00  0.00    -0.206 C  
BRANCH  15  16
HETATM   16  C   UNL     1     -11.624   6.257  72.221  1.00  0.00    -0.355 C  
BRANCH  16  17
HETATM   17  C   UNL     1     -11.503   5.036  73.132  1.00  0.00    -0.362 C  
BRANCH  17  18
HETATM   18  C   UNL     1     -10.396   4.100  72.660  1.00  0.00    -0.233 C  
HETATM   19  C   UNL     1     -10.718   2.655  73.000  1.00  0.00    -0.231 C  
ENDBRANCH  17  18
ENDBRANCH  16  17
ENDBRANCH  15  16
ENDBRANCH  14  15
ENDBRANCH  13  14
ENDBRANCH  12  13
ENDBRANCH   9  12
ENDBRANCH   8   9
ENDBRANCH   7   8
ENDBRANCH   6   7
ENDBRANCH   5   6
ENDBRANCH   4   5
ENDBRANCH   3   4
ENDBRANCH   2   3
TORSDOF 14
ENDMDL
MODEL      381
REMARK 921   NORMALIZED FREE ENERGY PREDICTED BY IDOCK:   -1.64 KCAL/MOL
REMARK 922        TOTAL FREE ENERGY PREDICTED BY IDOCK:   -4.72 KCAL/MOL
REMARK 923 INTER-LIGAND FREE ENERGY PREDICTED BY IDOCK:   -4.10 KCAL/MOL
REMARK 924 INTRA-LIGAND FREE ENERGY PREDICTED BY IDOCK:   -0.62 KCAL/MOL
REMARK 927      BINDING AFFINITY PREDICTED BY RF-SCORE:    0.00 PKD
ROOT
HETATM    1  C   UNL     1      -6.384   8.061  74.264  1.00  0.00    -0.121 C  
HETATM    2  C   UNL     1      -6.597   6.557  74.337  1.00  0.00    -0.081 C  
ENDROOT
BRANCH   2   3
HETATM    3  C   UNL     1      -6.999   5.993  72.979  1.00  0.00    -0.080 C  
BRANCH   3   4
HETATM    4  C   UNL     1      -7.501   4.555  73.103  1.00  0.00    -0.085 C  
BRANCH   4   5
HETATM    5  C   UNL     1      -8.957   4.544  73.545  1.00  0.00    -0.100 C  
BRANCH   5   6
HETATM    6  C   UNL     1      -9.778   5.635  72.858  1.00  0.00    -0.169 C  
BRANCH   6   7
HETATM    7  C   UNL     1     -10.093   5.190  71.433  1.00  0.00    -0.265 C  
BRANCH   7   8
HETATM    8  C   UNL     1     -10.947   6.206  70.680  1.00  0.00    -0.311 C  
BRANCH   8   9
HETATM    9  N   UNL     1     -10.155   6.961  69.575  1.00  0.00    -0.170 N  
HETATM   10  C   UNL     1      -8.663   6.650  69.690  1.00  0.00    -0.140 C  
HETATM   11  C   UNL     1     -10.664   6.553  68.192  1.00  0.00    -0.282 C  
BRANCH   9  12
HETATM   12  C   UNL     1     -10.410   8.476  69.815  1.00  0.00    -0.212 C  
BRANCH  12  13
HETATM   13  C   UNL     1      -9.537   9.368  68.937  1.00  0.00    -0.155 C  
BRANCH  13  14
HETATM   14  C   UNL     1     -10.333  10.052  67.827  1.00  0.00    -0.261 C  
BRANCH  14  15
HETATM   15  C   UNL     1      -9.526   9.985  66.531  1.00  0.00    -0.222 C  
BRANCH  15  16
HETATM   16  C   UNL     1     -10.268  10.609  65.358  1.00  0.00    -0.341 C  
BRANCH  16  17
HETATM   17  C   UNL     1     -10.440  12.110  65.582  1.00  0.00    -0.290 C  
BRANCH  17  18
HETATM   18  C   UNL     1     -11.907  12.477  65.778  1.00  0.00    -0.494 C  
HETATM   19  C   UNL     1     -12.156  13.007  67.181  1.00  0.00    -0.325 C  
ENDBRANCH  17  18
ENDBRANCH  16  17
ENDBRANCH  15  16
ENDBRANCH  14  15
ENDBRANCH  13  14
ENDBRANCH  12  13
ENDBRANCH   9  12
ENDBRANCH   8   9
ENDBRANCH   7   8
ENDBRANCH   6   7
ENDBRANCH   5   6
ENDBRANCH   4   5
ENDBRANCH   3   4
ENDBRANCH   2   3
TORSDOF 14
ENDMDL
MODEL      382
REMARK 921   NORMALIZED FREE ENERGY PREDICTED BY IDOCK:   -1.64 KCAL/MOL
REMARK 922        TOTAL FREE ENERGY PREDICTED BY IDOCK:   -4.72 KCAL/MOL
REMARK 923 INTER-LIGAND FREE ENERGY PREDICTED BY IDOCK:   -2.74 KCAL/MOL
REMARK 924 INTRA-LIGAND FREE ENERGY PREDICTED BY IDOCK:   -1.98 KCAL/MOL
REMARK 927      BINDING AFFINITY PREDICTED BY RF-SCORE:    0.00 PKD
ROOT
HETATM    1  C   UNL     1      -5.824   9.163  70.885  1.00  0.00    -0.046 C  
HETATM    2  C   UNL     1      -7.045   8.356  70.474  1.00  0.00    -0.038 C  
ENDROOT
BRANCH   2   3
HETATM    3  C   UNL     1      -6.709   7.387  69.346  1.00  0.00    -0.041 C  
BRANCH   3   4
HETATM    4  C   UNL     1      -7.165   5.967  69.680  1.00  0.00    -0.074 C  
BRANCH   4   5
HETATM    5  C   UNL     1      -8.484   6.006  70.439  1.00  0.00    -0.132 C  
BRANCH   5   6
HETATM    6  C   UNL     1      -9.466   4.944  69.944  1.00  0.00    -0.229 C  
BRANCH   6   7
HETATM    7  C   UNL     1      -9.774   5.206  68.473  1.00  0.00    -0.205 C  
BRANCH   7   8
HETATM    8  C   UNL     1      -9.683   3.941  67.624  1.00  0.00    -0.101 C  
BRANCH   8   9
HETATM    9  N   UNL     1      -8.963   4.175  66.266  1.00  0.00    -0.118 N  
HETATM   10  C   UNL     1      -7.975   3.041  65.991  1.00  0.00    -0.085 C  
HETATM   11  C   UNL     1      -9.988   4.254  65.134  1.00  0.00    -0.204 C  
BRANCH   9  12
HETATM   12  C   UNL     1      -8.207   5.527  66.400  1.00  0.00    -0.106 C  
BRANCH  12  13
HETATM   13  C   UNL     1      -8.480   6.475  65.236  1.00  0.00    -0.091 C  
BRANCH  13  14
HETATM   14  C   UNL     1      -7.905   7.869  65.473  1.00  0.00    -0.112 C  
BRANCH  14  15
HETATM   15  C   UNL     1      -9.044   8.809  65.869  1.00  0.00    -0.271 C  
BRANCH  15  16
HETATM   16  C   UNL     1      -9.047   9.114  67.360  1.00  0.00    -0.142 C  
BRANCH  16  17
HETATM   17  C   UNL     1     -10.331   8.594  68.002  1.00  0.00    -0.277 C  
BRANCH  17  18
HETATM   18  C   UNL     1     -10.593   9.268  69.344  1.00  0.00    -0.234 C  
HETATM   19  C   UNL     1     -10.366  10.769  69.257  1.00  0.00    -0.228 C  
ENDBRANCH  17  18
ENDBRANCH  16  17
ENDBRANCH  15  16
ENDBRANCH  14  15
ENDBRANCH  13  14
ENDBRANCH  12  13
ENDBRANCH   9  12
ENDBRANCH   8   9
ENDBRANCH   7   8
ENDBRANCH   6   7
ENDBRANCH   5   6
ENDBRANCH   4   5
ENDBRANCH   3   4
ENDBRANCH   2   3
TORSDOF 14
ENDMDL
MODEL      383
REMARK 921   NORMALIZED FREE ENERGY PREDICTED BY IDOCK:   -1.64 KCAL/MOL
REMARK 922        TOTAL FREE ENERGY PREDICTED BY IDOCK:   -4.71 KCAL/MOL
REMARK 923 INTER-LIGAND FREE ENERGY PREDICTED BY IDOCK:   -3.92 KCAL/MOL
REMARK 924 INTRA-LIGAND FREE ENERGY PREDICTED BY IDOCK:   -0.80 KCAL/MOL
REMARK 927      BINDING AFFINITY PREDICTED BY RF-SCORE:    0.00 PKD
ROOT
HETATM    1  C   UNL     1      -6.733   8.892  74.141  1.00  0.00     0.028 C  
HETATM    2  C   UNL     1      -7.973   8.016  74.069  1.00  0.00    -0.285 C  
ENDROOT
BRANCH   2   3
HETATM    3  C   UNL     1      -8.356   7.725  72.623  1.00  0.00    -0.177 C  
BRANCH   3   4
HETATM    4  C   UNL     1      -9.819   7.296  72.512  1.00  0.00    -0.195 C  
BRANCH   4   5
HETATM    5  C   UNL     1     -10.692   8.494  72.166  1.00  0.00    -0.426 C  
BRANCH   5   6
HETATM    6  C   UNL     1      -9.932   9.549  71.362  1.00  0.00    -0.050 C  
BRANCH   6   7
HETATM    7  C   UNL     1     -10.476   9.567  69.937  1.00  0.00    -0.269 C  
BRANCH   7   8
HETATM    8  C   UNL     1      -9.803  10.626  69.070  1.00  0.00    -0.205 C  
BRANCH   8   9
HETATM    9  N   UNL     1     -10.806  11.674  68.508  1.00  0.00    -0.207 N  
HETATM   10  C   UNL     1     -12.242  11.240  68.800  1.00  0.00    -0.032 C  
HETATM   11  C   UNL     1     -10.541  13.044  69.134  1.00  0.00     0.043 C  
BRANCH   9  12
HETATM   12  C   UNL     1     -10.563  11.730  66.973  1.00  0.00    -0.232 C  
BRANCH  12  13
HETATM   13  C   UNL     1     -11.407  12.794  66.279  1.00  0.00    -0.365 C  
BRANCH  13  14
HETATM   14  C   UNL     1     -10.563  13.938  65.722  1.00  0.00    -0.300 C  
BRANCH  14  15
HETATM   15  C   UNL     1     -11.026  15.247  66.362  1.00  0.00    -0.299 C  
BRANCH  15  16
HETATM   16  C   UNL     1      -9.933  16.306  66.361  1.00  0.00    -0.315 C  
BRANCH  16  17
HETATM   17  C   UNL     1      -8.558  15.646  66.456  1.00  0.00    -0.335 C  
BRANCH  17  18
HETATM   18  C   UNL     1      -8.103  15.519  67.905  1.00  0.00    -0.147 C  
HETATM   19  C   UNL     1      -6.858  14.653  68.015  1.00  0.00    -0.152 C  
ENDBRANCH  17  18
ENDBRANCH  16  17
ENDBRANCH  15  16
ENDBRANCH  14  15
ENDBRANCH  13  14
ENDBRANCH  12  13
ENDBRANCH   9  12
ENDBRANCH   8   9
ENDBRANCH   7   8
ENDBRANCH   6   7
ENDBRANCH   5   6
ENDBRANCH   4   5
ENDBRANCH   3   4
ENDBRANCH   2   3
TORSDOF 14
ENDMDL
MODEL      384
REMARK 921   NORMALIZED FREE ENERGY PREDICTED BY IDOCK:   -1.62 KCAL/MOL
REMARK 922        TOTAL FREE ENERGY PREDICTED BY IDOCK:   -4.68 KCAL/MOL
REMARK 923 INTER-LIGAND FREE ENERGY PREDICTED BY IDOCK:   -3.65 KCAL/MOL
REMARK 924 INTRA-LIGAND FREE ENERGY PREDICTED BY IDOCK:   -1.04 KCAL/MOL
REMARK 927      BINDING AFFINITY PREDICTED BY RF-SCORE:    0.00 PKD
ROOT
HETATM    1  C   UNL     1      -8.965   4.152  64.272  1.00  0.00    -0.144 C  
HETATM    2  C   UNL     1      -9.745   4.094  65.576  1.00  0.00    -0.202 C  
ENDROOT
BRANCH   2   3
HETATM    3  C   UNL     1      -8.824   4.282  66.775  1.00  0.00    -0.116 C  
BRANCH   3   4
HETATM    4  C   UNL     1      -9.619   4.604  68.040  1.00  0.00    -0.207 C  
BRANCH   4   5
HETATM    5  C   UNL     1      -9.224   5.972  68.575  1.00  0.00    -0.114 C  
BRANCH   5   6
HETATM    6  C   UNL     1      -7.926   6.484  67.950  1.00  0.00    -0.109 C  
BRANCH   6   7
HETATM    7  C   UNL     1      -8.181   7.861  67.345  1.00  0.00    -0.123 C  
BRANCH   7   8
HETATM    8  C   UNL     1      -9.367   8.570  67.991  1.00  0.00    -0.136 C  
BRANCH   8   9
HETATM    9  N   UNL     1      -8.964   9.888  68.714  1.00  0.00    -0.134 N  
HETATM   10  C   UNL     1      -9.292   9.794  70.204  1.00  0.00    -0.215 C  
HETATM   11  C   UNL     1      -7.469  10.153  68.528  1.00  0.00    -0.086 C  
BRANCH   9  12
HETATM   12  C   UNL     1      -9.795  11.021  68.050  1.00  0.00    -0.171 C  
BRANCH  12  13
HETATM   13  C   UNL     1      -8.985  12.293  67.822  1.00  0.00    -0.177 C  
BRANCH  13  14
HETATM   14  C   UNL     1      -9.483  13.462  68.669  1.00  0.00    -0.039 C  
BRANCH  14  15
HETATM   15  C   UNL     1     -10.699  14.083  67.984  1.00  0.00    -0.253 C  
BRANCH  15  16
HETATM   16  C   UNL     1     -10.311  15.194  67.017  1.00  0.00    -0.271 C  
BRANCH  16  17
HETATM   17  C   UNL     1     -11.243  15.189  65.807  1.00  0.00    -0.287 C  
BRANCH  17  18
HETATM   18  C   UNL     1     -11.000  13.969  64.925  1.00  0.00    -0.398 C  
HETATM   19  C   UNL     1     -12.289  13.198  64.689  1.00  0.00    -0.463 C  
ENDBRANCH  17  18
ENDBRANCH  16  17
ENDBRANCH  15  16
ENDBRANCH  14  15
ENDBRANCH  13  14
ENDBRANCH  12  13
ENDBRANCH   9  12
ENDBRANCH   8   9
ENDBRANCH   7   8
ENDBRANCH   6   7
ENDBRANCH   5   6
ENDBRANCH   4   5
ENDBRANCH   3   4
ENDBRANCH   2   3
TORSDOF 14
ENDMDL
MODEL      385
REMARK 921   NORMALIZED FREE ENERGY PREDICTED BY IDOCK:   -1.62 KCAL/MOL
REMARK 922        TOTAL FREE ENERGY PREDICTED BY IDOCK:   -4.67 KCAL/MOL
REMARK 923 INTER-LIGAND FREE ENERGY PREDICTED BY IDOCK:   -3.46 KCAL/MOL
REMARK 924 INTRA-LIGAND FREE ENERGY PREDICTED BY IDOCK:   -1.21 KCAL/MOL
REMARK 927      BINDING AFFINITY PREDICTED BY RF-SCORE:    0.00 PKD
ROOT
HETATM    1  C   UNL     1      -7.272   8.427  74.566  1.00  0.00    -0.244 C  
HETATM    2  C   UNL     1      -8.535   7.664  74.200  1.00  0.00    -0.290 C  
ENDROOT
BRANCH   2   3
HETATM    3  C   UNL     1      -9.220   8.285  72.989  1.00  0.00    -0.316 C  
BRANCH   3   4
HETATM    4  C   UNL     1     -10.534   7.572  72.670  1.00  0.00    -0.322 C  
BRANCH   4   5
HETATM    5  C   UNL     1     -11.383   8.428  71.741  1.00  0.00    -0.366 C  
BRANCH   5   6
HETATM    6  C   UNL     1     -10.545   9.120  70.666  1.00  0.00    -0.305 C  
BRANCH   6   7
HETATM    7  C   UNL     1     -10.092   8.077  69.649  1.00  0.00    -0.198 C  
BRANCH   7   8
HETATM    8  C   UNL     1      -9.474   8.708  68.404  1.00  0.00    -0.138 C  
BRANCH   8   9
HETATM    9  N   UNL     1      -7.919   8.696  68.428  1.00  0.00    -0.112 N  
HETATM   10  C   UNL     1      -7.368   9.590  67.318  1.00  0.00    -0.087 C  
HETATM   11  C   UNL     1      -7.410   9.183  69.786  1.00  0.00    -0.064 C  
BRANCH   9  12
HETATM   12  C   UNL     1      -7.491   7.220  68.194  1.00  0.00    -0.102 C  
BRANCH  12  13
HETATM   13  C   UNL     1      -6.625   6.669  69.322  1.00  0.00    -0.048 C  
BRANCH  13  14
HETATM   14  C   UNL     1      -7.056   5.271  69.760  1.00  0.00    -0.059 C  
BRANCH  14  15
HETATM   15  C   UNL     1      -7.861   5.387  71.053  1.00  0.00    -0.103 C  
BRANCH  15  16
HETATM   16  C   UNL     1      -9.143   4.566  71.010  1.00  0.00    -0.185 C  
BRANCH  16  17
HETATM   17  C   UNL     1      -9.308   3.918  69.636  1.00  0.00    -0.246 C  
BRANCH  17  18
HETATM   18  C   UNL     1      -8.757   2.497  69.624  1.00  0.00    -0.126 C  
HETATM   19  C   UNL     1      -9.083   1.771  70.919  1.00  0.00    -0.150 C  
ENDBRANCH  17  18
ENDBRANCH  16  17
ENDBRANCH  15  16
ENDBRANCH  14  15
ENDBRANCH  13  14
ENDBRANCH  12  13
ENDBRANCH   9  12
ENDBRANCH   8   9
ENDBRANCH   7   8
ENDBRANCH   6   7
ENDBRANCH   5   6
ENDBRANCH   4   5
ENDBRANCH   3   4
ENDBRANCH   2   3
TORSDOF 14
ENDMDL
MODEL      386
REMARK 921   NORMALIZED FREE ENERGY PREDICTED BY IDOCK:   -1.60 KCAL/MOL
REMARK 922        TOTAL FREE ENERGY PREDICTED BY IDOCK:   -4.65 KCAL/MOL
REMARK 923 INTER-LIGAND FREE ENERGY PREDICTED BY IDOCK:   -3.77 KCAL/MOL
REMARK 924 INTRA-LIGAND FREE ENERGY PREDICTED BY IDOCK:   -0.88 KCAL/MOL
REMARK 927      BINDING AFFINITY PREDICTED BY RF-SCORE:    0.00 PKD
ROOT
HETATM    1  C   UNL     1     -11.664  13.594  64.505  1.00  0.00    -0.429 C  
HETATM    2  C   UNL     1     -11.722  12.652  63.313  1.00  0.00    -0.466 C  
ENDROOT
BRANCH   2   3
HETATM    3  C   UNL     1     -10.513  11.725  63.286  1.00  0.00    -0.439 C  
BRANCH   3   4
HETATM    4  C   UNL     1     -10.724  10.512  64.191  1.00  0.00     0.369 C  
BRANCH   4   5
HETATM    5  C   UNL     1      -9.809  10.597  65.404  1.00  0.00    -0.325 C  
BRANCH   5   6
HETATM    6  C   UNL     1      -8.865   9.399  65.501  1.00  0.00    -0.220 C  
BRANCH   6   7
HETATM    7  C   UNL     1      -9.154   8.650  66.799  1.00  0.00    -0.183 C  
BRANCH   7   8
HETATM    8  C   UNL     1      -9.541   9.587  67.938  1.00  0.00    -0.133 C  
BRANCH   8   9
HETATM    9  N   UNL     1      -8.318  10.056  68.777  1.00  0.00    -0.114 N  
HETATM   10  C   UNL     1      -7.017   9.619  68.103  1.00  0.00    -0.077 C  
HETATM   11  C   UNL     1      -8.336  11.578  68.929  1.00  0.00    -0.001 C  
BRANCH   9  12
HETATM   12  C   UNL     1      -8.457   9.377  70.169  1.00  0.00    -0.205 C  
BRANCH  12  13
HETATM   13  C   UNL     1      -7.422   8.280  70.398  1.00  0.00    -0.067 C  
BRANCH  13  14
HETATM   14  C   UNL     1      -8.038   7.009  70.979  1.00  0.00    -0.105 C  
BRANCH  14  15
HETATM   15  C   UNL     1      -8.889   6.338  69.901  1.00  0.00    -0.141 C  
BRANCH  15  16
HETATM   16  C   UNL     1     -10.206   5.812  70.452  1.00  0.00    -0.288 C  
BRANCH  16  17
HETATM   17  C   UNL     1     -11.036   6.960  71.024  1.00  0.00    -0.287 C  
BRANCH  17  18
HETATM   18  C   UNL     1     -11.595   6.609  72.398  1.00  0.00    -0.281 C  
HETATM   19  C   UNL     1     -10.710   7.157  73.506  1.00  0.00    -0.375 C  
ENDBRANCH  17  18
ENDBRANCH  16  17
ENDBRANCH  15  16
ENDBRANCH  14  15
ENDBRANCH  13  14
ENDBRANCH  12  13
ENDBRANCH   9  12
ENDBRANCH   8   9
ENDBRANCH   7   8
ENDBRANCH   6   7
ENDBRANCH   5   6
ENDBRANCH   4   5
ENDBRANCH   3   4
ENDBRANCH   2   3
TORSDOF 14
ENDMDL
MODEL      387
REMARK 921   NORMALIZED FREE ENERGY PREDICTED BY IDOCK:   -1.60 KCAL/MOL
REMARK 922        TOTAL FREE ENERGY PREDICTED BY IDOCK:   -4.64 KCAL/MOL
REMARK 923 INTER-LIGAND FREE ENERGY PREDICTED BY IDOCK:   -3.85 KCAL/MOL
REMARK 924 INTRA-LIGAND FREE ENERGY PREDICTED BY IDOCK:   -0.80 KCAL/MOL
REMARK 927      BINDING AFFINITY PREDICTED BY RF-SCORE:    0.00 PKD
ROOT
HETATM    1  C   UNL     1     -10.464  12.131  63.694  1.00  0.00    -0.495 C  
HETATM    2  C   UNL     1      -9.994  10.739  64.085  1.00  0.00    -0.405 C  
ENDROOT
BRANCH   2   3
HETATM    3  C   UNL     1     -10.072  10.536  65.593  1.00  0.00    -0.333 C  
BRANCH   3   4
HETATM    4  C   UNL     1      -9.659   9.118  65.984  1.00  0.00    -0.342 C  
BRANCH   4   5
HETATM    5  C   UNL     1     -10.509   8.625  67.146  1.00  0.00    -0.360 C  
BRANCH   5   6
HETATM    6  C   UNL     1     -10.852   7.141  67.023  1.00  0.00    -0.382 C  
BRANCH   6   7
HETATM    7  C   UNL     1     -10.862   6.522  68.417  1.00  0.00    -0.357 C  
BRANCH   7   8
HETATM    8  C   UNL     1     -10.405   7.502  69.493  1.00  0.00    -0.216 C  
BRANCH   8   9
HETATM    9  N   UNL     1      -9.205   6.970  70.327  1.00  0.00    -0.156 N  
HETATM   10  C   UNL     1      -8.303   8.128  70.752  1.00  0.00    -0.120 C  
HETATM   11  C   UNL     1      -9.713   6.227  71.564  1.00  0.00    -0.162 C  
BRANCH   9  12
HETATM   12  C   UNL     1      -8.428   5.995  69.398  1.00  0.00    -0.115 C  
BRANCH  12  13
HETATM   13  C   UNL     1      -7.000   6.455  69.120  1.00  0.00    -0.068 C  
BRANCH  13  14
HETATM   14  C   UNL     1      -6.436   5.860  67.832  1.00  0.00    -0.047 C  
BRANCH  14  15
HETATM   15  C   UNL     1      -7.476   6.013  66.723  1.00  0.00    -0.087 C  
BRANCH  15  16
HETATM   16  C   UNL     1      -6.959   5.524  65.377  1.00  0.00    -0.064 C  
BRANCH  16  17
HETATM   17  C   UNL     1      -6.070   6.588  64.736  1.00  0.00    -0.037 C  
BRANCH  17  18
HETATM   18  C   UNL     1      -5.698   7.676  65.737  1.00  0.00    -0.037 C  
HETATM   19  C   UNL     1      -6.219   9.032  65.291  1.00  0.00    -0.063 C  
ENDBRANCH  17  18
ENDBRANCH  16  17
ENDBRANCH  15  16
ENDBRANCH  14  15
ENDBRANCH  13  14
ENDBRANCH  12  13
ENDBRANCH   9  12
ENDBRANCH   8   9
ENDBRANCH   7   8
ENDBRANCH   6   7
ENDBRANCH   5   6
ENDBRANCH   4   5
ENDBRANCH   3   4
ENDBRANCH   2   3
TORSDOF 14
ENDMDL
MODEL      388
REMARK 921   NORMALIZED FREE ENERGY PREDICTED BY IDOCK:   -1.59 KCAL/MOL
REMARK 922        TOTAL FREE ENERGY PREDICTED BY IDOCK:   -4.63 KCAL/MOL
REMARK 923 INTER-LIGAND FREE ENERGY PREDICTED BY IDOCK:   -3.48 KCAL/MOL
REMARK 924 INTRA-LIGAND FREE ENERGY PREDICTED BY IDOCK:   -1.15 KCAL/MOL
REMARK 927      BINDING AFFINITY PREDICTED BY RF-SCORE:    0.00 PKD
ROOT
HETATM    1  C   UNL     1      -8.710   6.288  74.512  1.00  0.00    -0.149 C  
HETATM    2  C   UNL     1      -7.459   7.051  74.105  1.00  0.00    -0.117 C  
ENDROOT
BRANCH   2   3
HETATM    3  C   UNL     1      -7.807   8.243  73.222  1.00  0.00    -0.195 C  
BRANCH   3   4
HETATM    4  C   UNL     1      -7.437   7.979  71.763  1.00  0.00    -0.088 C  
BRANCH   4   5
HETATM    5  C   UNL     1      -6.423   9.007  71.284  1.00  0.00    -0.085 C  
BRANCH   5   6
HETATM    6  C   UNL     1      -7.045  10.040  70.346  1.00  0.00    -0.131 C  
BRANCH   6   7
HETATM    7  C   UNL     1      -8.479   9.621  70.035  1.00  0.00    -0.223 C  
BRANCH   7   8
HETATM    8  C   UNL     1      -9.222  10.660  69.200  1.00  0.00    -0.148 C  
BRANCH   8   9
HETATM    9  N   UNL     1     -10.676  10.230  68.854  1.00  0.00    -0.214 N  
HETATM   10  C   UNL     1     -11.545  10.250  70.111  1.00  0.00    -0.299 C  
HETATM   11  C   UNL     1     -11.266  11.170  67.801  1.00  0.00    -0.294 C  
BRANCH   9  12
HETATM   12  C   UNL     1     -10.580   8.786  68.288  1.00  0.00    -0.142 C  
BRANCH  12  13
HETATM   13  C   UNL     1     -10.464   8.752  66.767  1.00  0.00    -0.283 C  
BRANCH  13  14
HETATM   14  C   UNL     1      -9.039   8.468  66.297  1.00  0.00    -0.232 C  
BRANCH  14  15
HETATM   15  C   UNL     1      -8.491   7.277  67.082  1.00  0.00    -0.118 C  
BRANCH  15  16
HETATM   16  C   UNL     1      -7.959   6.181  66.169  1.00  0.00    -0.108 C  
BRANCH  16  17
HETATM   17  C   UNL     1      -9.112   5.331  65.638  1.00  0.00    -0.158 C  
BRANCH  17  18
HETATM   18  C   UNL     1     -10.086   4.961  66.751  1.00  0.00    -0.269 C  
HETATM   19  C   UNL     1      -9.527   3.848  67.622  1.00  0.00    -0.233 C  
ENDBRANCH  17  18
ENDBRANCH  16  17
ENDBRANCH  15  16
ENDBRANCH  14  15
ENDBRANCH  13  14
ENDBRANCH  12  13
ENDBRANCH   9  12
ENDBRANCH   8   9
ENDBRANCH   7   8
ENDBRANCH   6   7
ENDBRANCH   5   6
ENDBRANCH   4   5
ENDBRANCH   3   4
ENDBRANCH   2   3
TORSDOF 14
ENDMDL
MODEL      389
REMARK 921   NORMALIZED FREE ENERGY PREDICTED BY IDOCK:   -1.57 KCAL/MOL
REMARK 922        TOTAL FREE ENERGY PREDICTED BY IDOCK:   -4.60 KCAL/MOL
REMARK 923 INTER-LIGAND FREE ENERGY PREDICTED BY IDOCK:   -3.82 KCAL/MOL
REMARK 924 INTRA-LIGAND FREE ENERGY PREDICTED BY IDOCK:   -0.78 KCAL/MOL
REMARK 927      BINDING AFFINITY PREDICTED BY RF-SCORE:    0.00 PKD
ROOT
HETATM    1  C   UNL     1     -12.050  14.850  64.440  1.00  0.00    -0.417 C  
HETATM    2  C   UNL     1     -11.129  14.134  65.416  1.00  0.00    -0.321 C  
ENDROOT
BRANCH   2   3
HETATM    3  C   UNL     1     -11.107  14.838  66.767  1.00  0.00    -0.338 C  
BRANCH   3   4
HETATM    4  C   UNL     1     -11.746  13.972  67.853  1.00  0.00    -0.397 C  
BRANCH   4   5
HETATM    5  C   UNL     1     -11.559  12.497  67.525  1.00  0.00    -0.424 C  
BRANCH   5   6
HETATM    6  C   UNL     1     -12.082  11.587  68.636  1.00  0.00    -0.197 C  
BRANCH   6   7
HETATM    7  C   UNL     1     -10.895  11.038  69.420  1.00  0.00    -0.278 C  
BRANCH   7   8
HETATM    8  C   UNL     1     -10.113   9.989  68.635  1.00  0.00    -0.172 C  
BRANCH   8   9
HETATM    9  N   UNL     1      -9.970   8.643  69.400  1.00  0.00    -0.192 N  
HETATM   10  C   UNL     1     -11.279   8.297  70.109  1.00  0.00    -0.132 C  
HETATM   11  C   UNL     1      -9.595   7.522  68.429  1.00  0.00    -0.150 C  
BRANCH   9  12
HETATM   12  C   UNL     1      -8.833   8.851  70.440  1.00  0.00    -0.181 C  
BRANCH  12  13
HETATM   13  C   UNL     1      -7.867   9.964  70.046  1.00  0.00    -0.192 C  
BRANCH  13  14
HETATM   14  C   UNL     1      -6.488   9.432  69.665  1.00  0.00    -0.040 C  
BRANCH  14  15
HETATM   15  C   UNL     1      -6.399   9.343  68.142  1.00  0.00    -0.054 C  
BRANCH  15  16
HETATM   16  C   UNL     1      -5.716  10.560  67.533  1.00  0.00    -0.044 C  
BRANCH  16  17
HETATM   17  C   UNL     1      -5.858  11.764  68.462  1.00  0.00    -0.049 C  
BRANCH  17  18
HETATM   18  C   UNL     1      -6.098  13.047  67.673  1.00  0.00    -0.151 C  
HETATM   19  C   UNL     1      -7.543  13.144  67.210  1.00  0.00    -0.090 C  
ENDBRANCH  17  18
ENDBRANCH  16  17
ENDBRANCH  15  16
ENDBRANCH  14  15
ENDBRANCH  13  14
ENDBRANCH  12  13
ENDBRANCH   9  12
ENDBRANCH   8   9
ENDBRANCH   7   8
ENDBRANCH   6   7
ENDBRANCH   5   6
ENDBRANCH   4   5
ENDBRANCH   3   4
ENDBRANCH   2   3
TORSDOF 14
ENDMDL
MODEL      390
REMARK 921   NORMALIZED FREE ENERGY PREDICTED BY IDOCK:   -1.54 KCAL/MOL
REMARK 922        TOTAL FREE ENERGY PREDICTED BY IDOCK:   -4.53 KCAL/MOL
REMARK 923 INTER-LIGAND FREE ENERGY PREDICTED BY IDOCK:   -3.75 KCAL/MOL
REMARK 924 INTRA-LIGAND FREE ENERGY PREDICTED BY IDOCK:   -0.78 KCAL/MOL
REMARK 927      BINDING AFFINITY PREDICTED BY RF-SCORE:    0.00 PKD
ROOT
HETATM    1  C   UNL     1     -12.660  12.655  64.801  1.00  0.00    -0.530 C  
HETATM    2  C   UNL     1     -11.616  11.706  64.236  1.00  0.00    -0.306 C  
ENDROOT
BRANCH   2   3
HETATM    3  C   UNL     1     -10.205  12.209  64.520  1.00  0.00    -0.321 C  
BRANCH   3   4
HETATM    4  C   UNL     1      -9.599  11.503  65.733  1.00  0.00    -0.259 C  
BRANCH   4   5
HETATM    5  C   UNL     1      -9.553  12.451  66.922  1.00  0.00    -0.219 C  
BRANCH   5   6
HETATM    6  C   UNL     1     -10.312  11.902  68.130  1.00  0.00    -0.210 C  
BRANCH   6   7
HETATM    7  C   UNL     1     -11.576  12.731  68.335  1.00  0.00    -0.365 C  
BRANCH   7   8
HETATM    8  C   UNL     1     -11.699  13.263  69.760  1.00  0.00    -0.284 C  
BRANCH   8   9
HETATM    9  N   UNL     1     -11.603  14.814  69.836  1.00  0.00    -0.271 N  
HETATM   10  C   UNL     1     -12.786  15.377  70.624  1.00  0.00    -0.437 C  
HETATM   11  C   UNL     1     -10.291  15.228  70.503  1.00  0.00     0.028 C  
BRANCH   9  12
HETATM   12  C   UNL     1     -11.643  15.326  68.368  1.00  0.00    -0.349 C  
BRANCH  12  13
HETATM   13  C   UNL     1     -10.697  16.498  68.125  1.00  0.00    -0.343 C  
BRANCH  13  14
HETATM   14  C   UNL     1     -10.103  16.486  66.718  1.00  0.00    -0.290 C  
BRANCH  14  15
HETATM   15  C   UNL     1      -9.390  17.815  66.475  1.00  0.00    -0.291 C  
BRANCH  15  16
HETATM   16  C   UNL     1      -7.983  17.828  67.056  1.00  0.00    -0.238 C  
BRANCH  16  17
HETATM   17  C   UNL     1      -7.891  16.862  68.236  1.00  0.00    -0.208 C  
BRANCH  17  18
HETATM   18  C   UNL     1      -6.804  15.816  68.012  1.00  0.00    -0.141 C  
HETATM   19  C   UNL     1      -6.349  15.800  66.562  1.00  0.00     1.287 C  
ENDBRANCH  17  18
ENDBRANCH  16  17
ENDBRANCH  15  16
ENDBRANCH  14  15
ENDBRANCH  13  14
ENDBRANCH  12  13
ENDBRANCH   9  12
ENDBRANCH   8   9
ENDBRANCH   7   8
ENDBRANCH   6   7
ENDBRANCH   5   6
ENDBRANCH   4   5
ENDBRANCH   3   4
ENDBRANCH   2   3
TORSDOF 14
ENDMDL
MODEL      391
REMARK 921   NORMALIZED FREE ENERGY PREDICTED BY IDOCK:   -1.53 KCAL/MOL
REMARK 922        TOTAL FREE ENERGY PREDICTED BY IDOCK:   -4.52 KCAL/MOL
REMARK 923 INTER-LIGAND FREE ENERGY PREDICTED BY IDOCK:   -3.86 KCAL/MOL
REMARK 924 INTRA-LIGAND FREE ENERGY PREDICTED BY IDOCK:   -0.66 KCAL/MOL
REMARK 927      BINDING AFFINITY PREDICTED BY RF-SCORE:    0.00 PKD
ROOT
HETATM    1  C   UNL     1      -9.831   8.489  72.071  1.00  0.00    -0.383 C  
HETATM    2  C   UNL     1     -10.740   7.294  71.825  1.00  0.00    -0.243 C  
ENDROOT
BRANCH   2   3
HETATM    3  C   UNL     1     -10.057   6.259  70.940  1.00  0.00    -0.227 C  
BRANCH   3   4
HETATM    4  C   UNL     1      -8.676   5.890  71.481  1.00  0.00    -0.132 C  
BRANCH   4   5
HETATM    5  C   UNL     1      -7.604   6.232  70.457  1.00  0.00    -0.096 C  
BRANCH   5   6
HETATM    6  C   UNL     1      -7.523   5.196  69.336  1.00  0.00    -0.058 C  
BRANCH   6   7
HETATM    7  C   UNL     1      -7.901   5.867  68.019  1.00  0.00    -0.104 C  
BRANCH   7   8
HETATM    8  C   UNL     1      -7.623   4.977  66.811  1.00  0.00    -0.088 C  
BRANCH   8   9
HETATM    9  N   UNL     1      -7.969   5.666  65.460  1.00  0.00    -0.107 N  
HETATM   10  C   UNL     1      -6.694   5.918  64.655  1.00  0.00    -0.046 C  
HETATM   11  C   UNL     1      -8.928   4.790  64.653  1.00  0.00    -0.138 C  
BRANCH   9  12
HETATM   12  C   UNL     1      -8.652   7.015  65.822  1.00  0.00    -0.130 C  
BRANCH  12  13
HETATM   13  C   UNL     1      -7.910   8.224  65.259  1.00  0.00    -0.120 C  
BRANCH  13  14
HETATM   14  C   UNL     1      -8.798   9.095  64.375  1.00  0.00    -0.156 C  
BRANCH  14  15
HETATM   15  C   UNL     1      -8.882  10.493  64.987  1.00  0.00    -0.207 C  
BRANCH  15  16
HETATM   16  C   UNL     1     -10.146  11.230  64.569  1.00  0.00    -0.348 C  
BRANCH  16  17
HETATM   17  C   UNL     1     -10.534  12.257  65.631  1.00  0.00    -0.293 C  
BRANCH  17  18
HETATM   18  C   UNL     1     -12.034  12.532  65.615  1.00  0.00    -0.492 C  
HETATM   19  C   UNL     1     -12.600  12.396  64.211  1.00  0.00    -0.494 C  
ENDBRANCH  17  18
ENDBRANCH  16  17
ENDBRANCH  15  16
ENDBRANCH  14  15
ENDBRANCH  13  14
ENDBRANCH  12  13
ENDBRANCH   9  12
ENDBRANCH   8   9
ENDBRANCH   7   8
ENDBRANCH   6   7
ENDBRANCH   5   6
ENDBRANCH   4   5
ENDBRANCH   3   4
ENDBRANCH   2   3
TORSDOF 14
ENDMDL
MODEL      392
REMARK 921   NORMALIZED FREE ENERGY PREDICTED BY IDOCK:   -1.53 KCAL/MOL
REMARK 922        TOTAL FREE ENERGY PREDICTED BY IDOCK:   -4.51 KCAL/MOL
REMARK 923 INTER-LIGAND FREE ENERGY PREDICTED BY IDOCK:   -3.25 KCAL/MOL
REMARK 924 INTRA-LIGAND FREE ENERGY PREDICTED BY IDOCK:   -1.26 KCAL/MOL
REMARK 927      BINDING AFFINITY PREDICTED BY RF-SCORE:    0.00 PKD
ROOT
HETATM    1  C   UNL     1      -7.004   9.732  69.451  1.00  0.00    -0.059 C  
HETATM    2  C   UNL     1      -7.163  11.243  69.502  1.00  0.00    -0.020 C  
ENDROOT
BRANCH   2   3
HETATM    3  C   UNL     1      -5.944  11.944  68.915  1.00  0.00    -0.055 C  
BRANCH   3   4
HETATM    4  C   UNL     1      -6.352  13.142  68.059  1.00  0.00    -0.127 C  
BRANCH   4   5
HETATM    5  C   UNL     1      -7.795  13.528  68.351  1.00  0.00    -0.143 C  
BRANCH   5   6
HETATM    6  C   UNL     1      -8.438  14.284  67.189  1.00  0.00    -0.220 C  
BRANCH   6   7
HETATM    7  C   UNL     1      -9.860  13.766  66.993  1.00  0.00    -0.251 C  
BRANCH   7   8
HETATM    8  C   UNL     1     -10.108  13.270  65.571  1.00  0.00    -0.263 C  
BRANCH   8   9
HETATM    9  N   UNL     1     -10.091  11.719  65.460  1.00  0.00    -0.240 N  
HETATM   10  C   UNL     1     -10.651  11.280  64.107  1.00  0.00    -0.373 C  
HETATM   11  C   UNL     1      -8.663  11.195  65.624  1.00  0.00    -0.122 C  
BRANCH   9  12
HETATM   12  C   UNL     1     -10.991  11.190  66.612  1.00  0.00    -0.228 C  
BRANCH  12  13
HETATM   13  C   UNL     1     -10.252  10.244  67.553  1.00  0.00    -0.254 C  
BRANCH  13  14
HETATM   14  C   UNL     1     -10.675   8.788  67.369  1.00  0.00    -0.216 C  
BRANCH  14  15
HETATM   15  C   UNL     1      -9.583   7.883  67.937  1.00  0.00    -0.169 C  
BRANCH  15  16
HETATM   16  C   UNL     1      -9.054   6.899  66.902  1.00  0.00    -0.152 C  
BRANCH  16  17
HETATM   17  C   UNL     1      -8.628   7.643  65.637  1.00  0.00    -0.142 C  
BRANCH  17  18
HETATM   18  C   UNL     1      -7.671   6.804  64.797  1.00  0.00    -0.111 C  
HETATM   19  C   UNL     1      -7.937   5.319  64.983  1.00  0.00    -0.103 C  
ENDBRANCH  17  18
ENDBRANCH  16  17
ENDBRANCH  15  16
ENDBRANCH  14  15
ENDBRANCH  13  14
ENDBRANCH  12  13
ENDBRANCH   9  12
ENDBRANCH   8   9
ENDBRANCH   7   8
ENDBRANCH   6   7
ENDBRANCH   5   6
ENDBRANCH   4   5
ENDBRANCH   3   4
ENDBRANCH   2   3
TORSDOF 14
ENDMDL
MODEL      393
REMARK 921   NORMALIZED FREE ENERGY PREDICTED BY IDOCK:   -1.48 KCAL/MOL
REMARK 922        TOTAL FREE ENERGY PREDICTED BY IDOCK:   -4.43 KCAL/MOL
REMARK 923 INTER-LIGAND FREE ENERGY PREDICTED BY IDOCK:   -3.19 KCAL/MOL
REMARK 924 INTRA-LIGAND FREE ENERGY PREDICTED BY IDOCK:   -1.25 KCAL/MOL
REMARK 927      BINDING AFFINITY PREDICTED BY RF-SCORE:    0.00 PKD
ROOT
HETATM    1  C   UNL     1      -9.726  10.439  64.756  1.00  0.00    -0.383 C  
HETATM    2  C   UNL     1      -9.386   9.972  63.349  1.00  0.00    -0.300 C  
ENDROOT
BRANCH   2   3
HETATM    3  C   UNL     1      -8.008  10.465  62.926  1.00  0.00    -0.150 C  
BRANCH   3   4
HETATM    4  C   UNL     1      -6.935   9.410  63.195  1.00  0.00    -0.098 C  
BRANCH   4   5
HETATM    5  C   UNL     1      -7.398   8.052  62.688  1.00  0.00    -0.101 C  
BRANCH   5   6
HETATM    6  C   UNL     1      -6.871   6.904  63.549  1.00  0.00    -0.054 C  
BRANCH   6   7
HETATM    7  C   UNL     1      -8.003   6.395  64.436  1.00  0.00    -0.108 C  
BRANCH   7   8
HETATM    8  C   UNL     1      -7.579   6.249  65.894  1.00  0.00    -0.084 C  
BRANCH   8   9
HETATM    9  N   UNL     1      -8.043   4.905  66.527  1.00  0.00    -0.107 N  
HETATM   10  C   UNL     1      -9.433   4.532  66.011  1.00  0.00    -0.173 C  
HETATM   11  C   UNL     1      -7.049   3.794  66.189  1.00  0.00    -0.063 C  
BRANCH   9  12
HETATM   12  C   UNL     1      -8.084   5.138  68.063  1.00  0.00    -0.098 C  
BRANCH  12  13
HETATM   13  C   UNL     1      -7.429   6.452  68.480  1.00  0.00    -0.088 C  
BRANCH  13  14
HETATM   14  C   UNL     1      -7.727   6.817  69.932  1.00  0.00    -0.109 C  
BRANCH  14  15
HETATM   15  C   UNL     1      -8.192   5.562  70.670  1.00  0.00    -0.116 C  
BRANCH  15  16
HETATM   16  C   UNL     1      -9.450   5.809  71.491  1.00  0.00    -0.171 C  
BRANCH  16  17
HETATM   17  C   UNL     1     -10.691   5.454  70.674  1.00  0.00    -0.257 C  
BRANCH  17  18
HETATM   18  C   UNL     1     -11.303   6.692  70.028  1.00  0.00    -0.440 C  
HETATM   19  C   UNL     1     -11.276   6.589  68.511  1.00  0.00    -0.287 C  
ENDBRANCH  17  18
ENDBRANCH  16  17
ENDBRANCH  15  16
ENDBRANCH  14  15
ENDBRANCH  13  14
ENDBRANCH  12  13
ENDBRANCH   9  12
ENDBRANCH   8   9
ENDBRANCH   7   8
ENDBRANCH   6   7
ENDBRANCH   5   6
ENDBRANCH   4   5
ENDBRANCH   3   4
ENDBRANCH   2   3
TORSDOF 14
ENDMDL
MODEL      394
REMARK 921   NORMALIZED FREE ENERGY PREDICTED BY IDOCK:   -1.45 KCAL/MOL
REMARK 922        TOTAL FREE ENERGY PREDICTED BY IDOCK:   -4.38 KCAL/MOL
REMARK 923 INTER-LIGAND FREE ENERGY PREDICTED BY IDOCK:   -2.97 KCAL/MOL
REMARK 924 INTRA-LIGAND FREE ENERGY PREDICTED BY IDOCK:   -1.41 KCAL/MOL
REMARK 927      BINDING AFFINITY PREDICTED BY RF-SCORE:    0.00 PKD
ROOT
HETATM    1  C   UNL     1      -7.256   6.253  63.167  1.00  0.00    -0.057 C  
HETATM    2  C   UNL     1      -7.512   7.207  64.322  1.00  0.00    -0.098 C  
ENDROOT
BRANCH   2   3
HETATM    3  C   UNL     1      -6.714   8.495  64.159  1.00  0.00    -0.075 C  
BRANCH   3   4
HETATM    4  C   UNL     1      -7.460   9.688  64.755  1.00  0.00    -0.122 C  
BRANCH   4   5
HETATM    5  C   UNL     1      -8.961   9.449  64.701  1.00  0.00    -0.233 C  
BRANCH   5   6
HETATM    6  C   UNL     1      -9.733  10.704  64.296  1.00  0.00    -0.372 C  
BRANCH   6   7
HETATM    7  C   UNL     1     -10.373  11.311  65.541  1.00  0.00    -0.321 C  
BRANCH   7   8
HETATM    8  C   UNL     1     -10.201  10.428  66.773  1.00  0.00    -0.226 C  
BRANCH   8   9
HETATM    9  N   UNL     1     -10.495  11.181  68.102  1.00  0.00    -0.181 N  
HETATM   10  C   UNL     1     -10.039  12.636  67.996  1.00  0.00    -0.229 C  
HETATM   11  C   UNL     1     -11.991  11.129  68.416  1.00  0.00    -0.141 C  
BRANCH   9  12
HETATM   12  C   UNL     1      -9.690  10.444  69.208  1.00  0.00    -0.214 C  
BRANCH  12  13
HETATM   13  C   UNL     1      -8.551   9.599  68.647  1.00  0.00    -0.120 C  
BRANCH  13  14
HETATM   14  C   UNL     1      -7.243   9.803  69.408  1.00  0.00    -0.076 C  
BRANCH  14  15
HETATM   15  C   UNL     1      -6.771  11.241  69.196  1.00  0.00    -0.099 C  
BRANCH  15  16
HETATM   16  C   UNL     1      -6.607  11.582  67.721  1.00  0.00    -0.068 C  
BRANCH  16  17
HETATM   17  C   UNL     1      -6.308  13.071  67.554  1.00  0.00    -0.153 C  
BRANCH  17  18
HETATM   18  C   UNL     1      -6.488  13.823  68.868  1.00  0.00    -0.100 C  
HETATM   19  C   UNL     1      -6.183  15.303  68.699  1.00  0.00    -0.088 C  
ENDBRANCH  17  18
ENDBRANCH  16  17
ENDBRANCH  15  16
ENDBRANCH  14  15
ENDBRANCH  13  14
ENDBRANCH  12  13
ENDBRANCH   9  12
ENDBRANCH   8   9
ENDBRANCH   7   8
ENDBRANCH   6   7
ENDBRANCH   5   6
ENDBRANCH   4   5
ENDBRANCH   3   4
ENDBRANCH   2   3
TORSDOF 14
ENDMDL
MODEL      395
REMARK 921   NORMALIZED FREE ENERGY PREDICTED BY IDOCK:   -1.45 KCAL/MOL
REMARK 922        TOTAL FREE ENERGY PREDICTED BY IDOCK:   -4.37 KCAL/MOL
REMARK 923 INTER-LIGAND FREE ENERGY PREDICTED BY IDOCK:   -3.58 KCAL/MOL
REMARK 924 INTRA-LIGAND FREE ENERGY PREDICTED BY IDOCK:   -0.79 KCAL/MOL
REMARK 927      BINDING AFFINITY PREDICTED BY RF-SCORE:    0.00 PKD
ROOT
HETATM    1  C   UNL     1      -9.957   3.248  71.730  1.00  0.00    -0.192 C  
HETATM    2  C   UNL     1      -9.388   4.653  71.618  1.00  0.00    -0.195 C  
ENDROOT
BRANCH   2   3
HETATM    3  C   UNL     1      -9.355   5.119  70.167  1.00  0.00    -0.208 C  
BRANCH   3   4
HETATM    4  C   UNL     1     -10.274   6.320  69.951  1.00  0.00    -0.232 C  
BRANCH   4   5
HETATM    5  C   UNL     1     -10.049   6.910  68.566  1.00  0.00    -0.165 C  
BRANCH   5   6
HETATM    6  C   UNL     1      -8.570   7.173  68.283  1.00  0.00    -0.122 C  
BRANCH   6   7
HETATM    7  C   UNL     1      -8.304   6.939  66.799  1.00  0.00    -0.116 C  
BRANCH   7   8
HETATM    8  C   UNL     1      -7.331   7.959  66.214  1.00  0.00    -0.075 C  
BRANCH   8   9
HETATM    9  N   UNL     1      -7.867   8.631  64.918  1.00  0.00    -0.109 N  
HETATM   10  C   UNL     1      -6.974   9.808  64.526  1.00  0.00    -0.125 C  
HETATM   11  C   UNL     1      -7.912   7.613  63.777  1.00  0.00    -0.090 C  
BRANCH   9  12
HETATM   12  C   UNL     1      -9.302   9.130  65.247  1.00  0.00    -0.156 C  
BRANCH  12  13
HETATM   13  C   UNL     1      -9.308  10.359  66.150  1.00  0.00    -0.210 C  
BRANCH  13  14
HETATM   14  C   UNL     1     -10.720  10.863  66.441  1.00  0.00    -0.257 C  
BRANCH  14  15
HETATM   15  C   UNL     1     -10.625  12.136  67.280  1.00  0.00    -0.255 C  
BRANCH  15  16
HETATM   16  C   UNL     1     -10.536  13.388  66.419  1.00  0.00    -0.286 C  
BRANCH  16  17
HETATM   17  C   UNL     1      -9.639  14.428  67.089  1.00  0.00    -0.251 C  
BRANCH  17  18
HETATM   18  C   UNL     1      -9.831  15.807  66.470  1.00  0.00    -0.286 C  
HETATM   19  C   UNL     1      -9.604  16.905  67.496  1.00  0.00    -0.245 C  
ENDBRANCH  17  18
ENDBRANCH  16  17
ENDBRANCH  15  16
ENDBRANCH  14  15
ENDBRANCH  13  14
ENDBRANCH  12  13
ENDBRANCH   9  12
ENDBRANCH   8   9
ENDBRANCH   7   8
ENDBRANCH   6   7
ENDBRANCH   5   6
ENDBRANCH   4   5
ENDBRANCH   3   4
ENDBRANCH   2   3
TORSDOF 14
ENDMDL
MODEL      396
REMARK 921   NORMALIZED FREE ENERGY PREDICTED BY IDOCK:   -1.43 KCAL/MOL
REMARK 922        TOTAL FREE ENERGY PREDICTED BY IDOCK:   -4.34 KCAL/MOL
REMARK 923 INTER-LIGAND FREE ENERGY PREDICTED BY IDOCK:   -3.14 KCAL/MOL
REMARK 924 INTRA-LIGAND FREE ENERGY PREDICTED BY IDOCK:   -1.20 KCAL/MOL
REMARK 927      BINDING AFFINITY PREDICTED BY RF-SCORE:    0.00 PKD
ROOT
HETATM    1  C   UNL     1      -7.665  10.012  70.134  1.00  0.00    -0.158 C  
HETATM    2  C   UNL     1      -8.826   9.191  70.671  1.00  0.00    -0.278 C  
ENDROOT
BRANCH   2   3
HETATM    3  C   UNL     1      -8.416   7.741  70.895  1.00  0.00    -0.127 C  
BRANCH   3   4
HETATM    4  C   UNL     1      -9.104   7.154  72.128  1.00  0.00    -0.143 C  
BRANCH   4   5
HETATM    5  C   UNL     1     -10.343   6.374  71.715  1.00  0.00    -0.231 C  
BRANCH   5   6
HETATM    6  C   UNL     1     -10.002   4.975  71.204  1.00  0.00    -0.276 C  
BRANCH   6   7
HETATM    7  C   UNL     1      -9.920   5.014  69.681  1.00  0.00    -0.311 C  
BRANCH   7   8
HETATM    8  C   UNL     1      -8.919   4.005  69.125  1.00  0.00    -0.111 C  
BRANCH   8   9
HETATM    9  N   UNL     1      -8.327   4.435  67.752  1.00  0.00    -0.098 N  
HETATM   10  C   UNL     1      -7.029   3.676  67.477  1.00  0.00    -0.055 C  
HETATM   11  C   UNL     1      -9.335   4.159  66.635  1.00  0.00    -0.177 C  
BRANCH   9  12
HETATM   12  C   UNL     1      -8.047   5.960  67.856  1.00  0.00    -0.105 C  
BRANCH  12  13
HETATM   13  C   UNL     1      -8.739   6.765  66.761  1.00  0.00    -0.122 C  
BRANCH  13  14
HETATM   14  C   UNL     1      -8.883   8.242  67.123  1.00  0.00    -0.145 C  
BRANCH  14  15
HETATM   15  C   UNL     1      -7.639   8.989  66.645  1.00  0.00    -0.089 C  
BRANCH  15  16
HETATM   16  C   UNL     1      -7.988  10.253  65.871  1.00  0.00    -0.137 C  
BRANCH  16  17
HETATM   17  C   UNL     1      -9.052  11.052  66.620  1.00  0.00    -0.177 C  
BRANCH  17  18
HETATM   18  C   UNL     1      -8.421  12.114  67.514  1.00  0.00    -0.169 C  
HETATM   19  C   UNL     1      -8.975  13.494  67.200  1.00  0.00    -0.230 C  
ENDBRANCH  17  18
ENDBRANCH  16  17
ENDBRANCH  15  16
ENDBRANCH  14  15
ENDBRANCH  13  14
ENDBRANCH  12  13
ENDBRANCH   9  12
ENDBRANCH   8   9
ENDBRANCH   7   8
ENDBRANCH   6   7
ENDBRANCH   5   6
ENDBRANCH   4   5
ENDBRANCH   3   4
ENDBRANCH   2   3
TORSDOF 14
ENDMDL
MODEL      397
REMARK 921   NORMALIZED FREE ENERGY PREDICTED BY IDOCK:   -1.43 KCAL/MOL
REMARK 922        TOTAL FREE ENERGY PREDICTED BY IDOCK:   -4.34 KCAL/MOL
REMARK 923 INTER-LIGAND FREE ENERGY PREDICTED BY IDOCK:   -3.69 KCAL/MOL
REMARK 924 INTRA-LIGAND FREE ENERGY PREDICTED BY IDOCK:   -0.64 KCAL/MOL
REMARK 927      BINDING AFFINITY PREDICTED BY RF-SCORE:    0.00 PKD
ROOT
HETATM    1  C   UNL     1      -9.584   3.609  71.510  1.00  0.00    -0.234 C  
HETATM    2  C   UNL     1      -8.924   4.977  71.560  1.00  0.00    -0.157 C  
ENDROOT
BRANCH   2   3
HETATM    3  C   UNL     1      -8.992   5.669  70.204  1.00  0.00    -0.151 C  
BRANCH   3   4
HETATM    4  C   UNL     1     -10.336   6.370  70.007  1.00  0.00    -0.245 C  
BRANCH   4   5
HETATM    5  C   UNL     1     -10.236   7.389  68.881  1.00  0.00    -0.200 C  
BRANCH   5   6
HETATM    6  C   UNL     1      -9.990   8.804  69.402  1.00  0.00    -0.196 C  
BRANCH   6   7
HETATM    7  C   UNL     1      -8.659   9.306  68.850  1.00  0.00    -0.130 C  
BRANCH   7   8
HETATM    8  C   UNL     1      -8.447  10.796  69.105  1.00  0.00    -0.097 C  
BRANCH   8   9
HETATM    9  N   UNL     1      -8.166  11.597  67.802  1.00  0.00    -0.134 N  
HETATM   10  C   UNL     1      -6.885  12.418  67.954  1.00  0.00    -0.099 C  
HETATM   11  C   UNL     1      -8.031  10.642  66.615  1.00  0.00    -0.134 C  
BRANCH   9  12
HETATM   12  C   UNL     1      -9.387  12.538  67.597  1.00  0.00    -0.189 C  
BRANCH  12  13
HETATM   13  C   UNL     1      -9.205  13.897  68.265  1.00  0.00    -0.207 C  
BRANCH  13  14
HETATM   14  C   UNL     1     -10.198  14.937  67.752  1.00  0.00    -0.236 C  
BRANCH  14  15
HETATM   15  C   UNL     1      -9.493  16.290  67.667  1.00  0.00    -0.221 C  
BRANCH  15  16
HETATM   16  C   UNL     1      -9.045  16.618  66.249  1.00  0.00    -0.333 C  
BRANCH  16  17
HETATM   17  C   UNL     1      -8.313  17.959  66.225  1.00  0.00    -0.230 C  
BRANCH  17  18
HETATM   18  C   UNL     1      -8.222  18.566  67.620  1.00  0.00    -0.267 C  
HETATM   19  C   UNL     1      -6.775  18.693  68.069  1.00  0.00    -0.230 C  
ENDBRANCH  17  18
ENDBRANCH  16  17
ENDBRANCH  15  16
ENDBRANCH  14  15
ENDBRANCH  13  14
ENDBRANCH  12  13
ENDBRANCH   9  12
ENDBRANCH   8   9
ENDBRANCH   7   8
ENDBRANCH   6   7
ENDBRANCH   5   6
ENDBRANCH   4   5
ENDBRANCH   3   4
ENDBRANCH   2   3
TORSDOF 14
ENDMDL
MODEL      398
REMARK 921   NORMALIZED FREE ENERGY PREDICTED BY IDOCK:   -1.42 KCAL/MOL
REMARK 922        TOTAL FREE ENERGY PREDICTED BY IDOCK:   -4.32 KCAL/MOL
REMARK 923 INTER-LIGAND FREE ENERGY PREDICTED BY IDOCK:   -2.88 KCAL/MOL
REMARK 924 INTRA-LIGAND FREE ENERGY PREDICTED BY IDOCK:   -1.44 KCAL/MOL
REMARK 927      BINDING AFFINITY PREDICTED BY RF-SCORE:    0.00 PKD
ROOT
HETATM    1  C   UNL     1      -7.894   7.291  63.385  1.00  0.00    -0.110 C  
HETATM    2  C   UNL     1      -8.422   8.032  64.603  1.00  0.00    -0.000 C  
ENDROOT
BRANCH   2   3
HETATM    3  C   UNL     1      -7.645   9.321  64.842  1.00  0.00    -0.108 C  
BRANCH   3   4
HETATM    4  C   UNL     1      -8.429  10.282  65.735  1.00  0.00    -0.161 C  
BRANCH   4   5
HETATM    5  C   UNL     1      -9.734   9.639  66.179  1.00  0.00    -0.317 C  
BRANCH   5   6
HETATM    6  C   UNL     1     -10.269  10.251  67.474  1.00  0.00    -0.254 C  
BRANCH   6   7
HETATM    7  C   UNL     1     -10.655   9.124  68.427  1.00  0.00    -0.217 C  
BRANCH   7   8
HETATM    8  C   UNL     1      -9.967   7.807  68.081  1.00  0.00    -0.178 C  
BRANCH   8   9
HETATM    9  N   UNL     1      -9.886   6.832  69.290  1.00  0.00    -0.154 N  
HETATM   10  C   UNL     1      -9.333   7.558  70.517  1.00  0.00    -0.160 C  
HETATM   11  C   UNL     1     -11.271   6.265  69.603  1.00  0.00    -0.437 C  
BRANCH   9  12
HETATM   12  C   UNL     1      -8.923   5.688  68.864  1.00  0.00    -0.111 C  
BRANCH  12  13
HETATM   13  C   UNL     1      -8.193   5.986  67.558  1.00  0.00    -0.106 C  
BRANCH  13  14
HETATM   14  C   UNL     1      -8.230   4.808  66.587  1.00  0.00    -0.107 C  
BRANCH  14  15
HETATM   15  C   UNL     1      -8.794   3.588  67.314  1.00  0.00    -0.147 C  
BRANCH  15  16
HETATM   16  C   UNL     1      -8.209   2.284  66.790  1.00  0.00    -0.086 C  
BRANCH  16  17
HETATM   17  C   UNL     1      -7.298   2.557  65.594  1.00  0.00    -0.067 C  
BRANCH  17  18
HETATM   18  C   UNL     1      -7.678   1.691  64.399  1.00  0.00    -0.064 C  
HETATM   19  C   UNL     1      -9.012   2.123  63.811  1.00  0.00    -0.092 C  
ENDBRANCH  17  18
ENDBRANCH  16  17
ENDBRANCH  15  16
ENDBRANCH  14  15
ENDBRANCH  13  14
ENDBRANCH  12  13
ENDBRANCH   9  12
ENDBRANCH   8   9
ENDBRANCH   7   8
ENDBRANCH   6   7
ENDBRANCH   5   6
ENDBRANCH   4   5
ENDBRANCH   3   4
ENDBRANCH   2   3
TORSDOF 14
ENDMDL
MODEL      399
REMARK 921   NORMALIZED FREE ENERGY PREDICTED BY IDOCK:   -1.40 KCAL/MOL
REMARK 922        TOTAL FREE ENERGY PREDICTED BY IDOCK:   -4.27 KCAL/MOL
REMARK 923 INTER-LIGAND FREE ENERGY PREDICTED BY IDOCK:   -3.18 KCAL/MOL
REMARK 924 INTRA-LIGAND FREE ENERGY PREDICTED BY IDOCK:   -1.09 KCAL/MOL
REMARK 927      BINDING AFFINITY PREDICTED BY RF-SCORE:    0.00 PKD
ROOT
HETATM    1  C   UNL     1      -7.950   7.720  62.499  1.00  0.00    -0.136 C  
HETATM    2  C   UNL     1      -8.811   8.807  63.124  1.00  0.00     0.123 C  
ENDROOT
BRANCH   2   3
HETATM    3  C   UNL     1      -8.274  10.193  62.790  1.00  0.00    -0.159 C  
BRANCH   3   4
HETATM    4  C   UNL     1      -9.299  11.278  63.116  1.00  0.00    -0.325 C  
BRANCH   4   5
HETATM    5  C   UNL     1     -10.360  10.730  64.060  1.00  0.00    -0.357 C  
BRANCH   5   6
HETATM    6  C   UNL     1     -11.034  11.834  64.875  1.00  0.00    -0.358 C  
BRANCH   6   7
HETATM    7  C   UNL     1     -10.796  11.564  66.358  1.00  0.00    -0.334 C  
BRANCH   7   8
HETATM    8  C   UNL     1      -9.770  10.459  66.592  1.00  0.00    -0.190 C  
BRANCH   8   9
HETATM    9  N   UNL     1      -8.975  10.642  67.916  1.00  0.00    -0.136 N  
HETATM   10  C   UNL     1      -8.099  11.892  67.836  1.00  0.00    -0.147 C  
HETATM   11  C   UNL     1      -9.940  10.760  69.097  1.00  0.00    -0.187 C  
BRANCH   9  12
HETATM   12  C   UNL     1      -8.091   9.373  68.073  1.00  0.00    -0.106 C  
BRANCH  12  13
HETATM   13  C   UNL     1      -7.998   8.555  66.789  1.00  0.00    -0.094 C  
BRANCH  13  14
HETATM   14  C   UNL     1      -8.255   7.068  67.024  1.00  0.00    -0.117 C  
BRANCH  14  15
HETATM   15  C   UNL     1      -7.224   6.260  66.238  1.00  0.00    -0.069 C  
BRANCH  15  16
HETATM   16  C   UNL     1      -7.854   5.089  65.496  1.00  0.00    -0.092 C  
BRANCH  16  17
HETATM   17  C   UNL     1      -9.378   5.179  65.566  1.00  0.00    -0.125 C  
BRANCH  17  18
HETATM   18  C   UNL     1      -9.956   4.095  66.469  1.00  0.00    -0.165 C  
HETATM   19  C   UNL     1      -9.571   4.328  67.921  1.00  0.00    -0.207 C  
ENDBRANCH  17  18
ENDBRANCH  16  17
ENDBRANCH  15  16
ENDBRANCH  14  15
ENDBRANCH  13  14
ENDBRANCH  12  13
ENDBRANCH   9  12
ENDBRANCH   8   9
ENDBRANCH   7   8
ENDBRANCH   6   7
ENDBRANCH   5   6
ENDBRANCH   4   5
ENDBRANCH   3   4
ENDBRANCH   2   3
TORSDOF 14
ENDMDL
MODEL      400
REMARK 921   NORMALIZED FREE ENERGY PREDICTED BY IDOCK:   -1.38 KCAL/MOL
REMARK 922        TOTAL FREE ENERGY PREDICTED BY IDOCK:   -4.24 KCAL/MOL
REMARK 923 INTER-LIGAND FREE ENERGY PREDICTED BY IDOCK:   -3.20 KCAL/MOL
REMARK 924 INTRA-LIGAND FREE ENERGY PREDICTED BY IDOCK:   -1.04 KCAL/MOL
REMARK 927      BINDING AFFINITY PREDICTED BY RF-SCORE:    0.00 PKD
ROOT
HETATM    1  C   UNL     1     -10.406   4.905  70.496  1.00  0.00    -0.242 C  
HETATM    2  C   UNL     1      -9.545   3.804  69.899  1.00  0.00    -0.255 C  
ENDROOT
BRANCH   2   3
HETATM    3  C   UNL     1      -8.144   4.313  69.581  1.00  0.00    -0.062 C  
BRANCH   3   4
HETATM    4  C   UNL     1      -7.086   3.572  70.398  1.00  0.00    -0.037 C  
BRANCH   4   5
HETATM    5  C   UNL     1      -6.059   4.554  70.941  1.00  0.00    -0.018 C  
BRANCH   5   6
HETATM    6  C   UNL     1      -6.689   5.890  71.336  1.00  0.00    -0.058 C  
BRANCH   6   7
HETATM    7  C   UNL     1      -6.713   5.991  72.858  1.00  0.00    -0.074 C  
BRANCH   7   8
HETATM    8  C   UNL     1      -8.051   5.558  73.450  1.00  0.00    -0.114 C  
BRANCH   8   9
HETATM    9  N   UNL     1      -9.006   6.754  73.726  1.00  0.00    -0.139 N  
HETATM   10  C   UNL     1     -10.249   6.274  74.475  1.00  0.00    -0.300 C  
HETATM   11  C   UNL     1      -8.285   7.823  74.550  1.00  0.00    -0.213 C  
BRANCH   9  12
HETATM   12  C   UNL     1      -9.402   7.326  72.336  1.00  0.00    -0.138 C  
BRANCH  12  13
HETATM   13  C   UNL     1     -10.590   8.280  72.405  1.00  0.00    -0.408 C  
BRANCH  13  14
HETATM   14  C   UNL     1     -10.555   9.337  71.303  1.00  0.00    -0.417 C  
BRANCH  14  15
HETATM   15  C   UNL     1     -10.856   8.662  69.966  1.00  0.00    -0.226 C  
BRANCH  15  16
HETATM   16  C   UNL     1      -9.834   9.021  68.896  1.00  0.00    -0.181 C  
BRANCH  16  17
HETATM   17  C   UNL     1      -8.647   9.749  69.525  1.00  0.00    -0.186 C  
BRANCH  17  18
HETATM   18  C   UNL     1      -7.443   8.824  69.668  1.00  0.00    -0.071 C  
HETATM   19  C   UNL     1      -6.627   8.784  68.386  1.00  0.00    -0.060 C  
ENDBRANCH  17  18
ENDBRANCH  16  17
ENDBRANCH  15  16
ENDBRANCH  14  15
ENDBRANCH  13  14
ENDBRANCH  12  13
ENDBRANCH   9  12
ENDBRANCH   8   9
ENDBRANCH   7   8
ENDBRANCH   6   7
ENDBRANCH   5   6
ENDBRANCH   4   5
ENDBRANCH   3   4
ENDBRANCH   2   3
TORSDOF 14
ENDMDL
MODEL      401
REMARK 921   NORMALIZED FREE ENERGY PREDICTED BY IDOCK:   -1.35 KCAL/MOL
REMARK 922        TOTAL FREE ENERGY PREDICTED BY IDOCK:   -4.19 KCAL/MOL
REMARK 923 INTER-LIGAND FREE ENERGY PREDICTED BY IDOCK:   -3.08 KCAL/MOL
REMARK 924 INTRA-LIGAND FREE ENERGY PREDICTED BY IDOCK:   -1.11 KCAL/MOL
REMARK 927      BINDING AFFINITY PREDICTED BY RF-SCORE:    0.00 PKD
ROOT
HETATM    1  C   UNL     1      -9.462  10.655  65.250  1.00  0.00    -0.270 C  
HETATM    2  C   UNL     1      -9.111   9.599  64.214  1.00  0.00    -0.267 C  
ENDROOT
BRANCH   2   3
HETATM    3  C   UNL     1      -8.178  10.163  63.150  1.00  0.00    -0.160 C  
BRANCH   3   4
HETATM    4  C   UNL     1      -6.732  10.203  63.645  1.00  0.00    -0.117 C  
BRANCH   4   5
HETATM    5  C   UNL     1      -6.535   9.196  64.769  1.00  0.00    -0.071 C  
BRANCH   5   6
HETATM    6  C   UNL     1      -5.462   9.642  65.762  1.00  0.00    -0.044 C  
BRANCH   6   7
HETATM    7  C   UNL     1      -6.140  10.318  66.949  1.00  0.00    -0.060 C  
BRANCH   7   8
HETATM    8  C   UNL     1      -5.899  11.824  66.977  1.00  0.00    -0.145 C  
BRANCH   8   9
HETATM    9  N   UNL     1      -6.677  12.540  68.118  1.00  0.00    -0.070 N  
HETATM   10  C   UNL     1      -7.722  11.597  68.716  1.00  0.00    -0.111 C  
HETATM   11  C   UNL     1      -5.708  12.998  69.209  1.00  0.00    -0.084 C  
BRANCH   9  12
HETATM   12  C   UNL     1      -7.371  13.769  67.467  1.00  0.00    -0.162 C  
BRANCH  12  13
HETATM   13  C   UNL     1      -8.813  13.950  67.933  1.00  0.00    -0.184 C  
BRANCH  13  14
HETATM   14  C   UNL     1      -8.976  15.134  68.883  1.00  0.00    -0.206 C  
BRANCH  14  15
HETATM   15  C   UNL     1      -7.910  16.178  68.555  1.00  0.00    -0.172 C  
BRANCH  15  16
HETATM   16  C   UNL     1      -8.487  17.378  67.817  1.00  0.00    -0.223 C  
BRANCH  16  17
HETATM   17  C   UNL     1      -8.131  17.307  66.333  1.00  0.00    -0.328 C  
BRANCH  17  18
HETATM   18  C   UNL     1      -6.621  17.285  66.126  1.00  0.00    -0.186 C  
HETATM   19  C   UNL     1      -6.061  18.695  66.027  1.00  0.00    -0.225 C  
ENDBRANCH  17  18
ENDBRANCH  16  17
ENDBRANCH  15  16
ENDBRANCH  14  15
ENDBRANCH  13  14
ENDBRANCH  12  13
ENDBRANCH   9  12
ENDBRANCH   8   9
ENDBRANCH   7   8
ENDBRANCH   6   7
ENDBRANCH   5   6
ENDBRANCH   4   5
ENDBRANCH   3   4
ENDBRANCH   2   3
TORSDOF 14
ENDMDL
MODEL      402
REMARK 921   NORMALIZED FREE ENERGY PREDICTED BY IDOCK:   -1.28 KCAL/MOL
REMARK 922        TOTAL FREE ENERGY PREDICTED BY IDOCK:   -4.06 KCAL/MOL
REMARK 923 INTER-LIGAND FREE ENERGY PREDICTED BY IDOCK:   -3.22 KCAL/MOL
REMARK 924 INTRA-LIGAND FREE ENERGY PREDICTED BY IDOCK:   -0.84 KCAL/MOL
REMARK 927      BINDING AFFINITY PREDICTED BY RF-SCORE:    0.00 PKD
ROOT
HETATM    1  C   UNL     1      -6.779  15.944  67.224  1.00  0.00    -0.221 C  
HETATM    2  C   UNL     1      -6.899  14.491  67.655  1.00  0.00    -0.203 C  
ENDROOT
BRANCH   2   3
HETATM    3  C   UNL     1      -8.281  13.935  67.335  1.00  0.00    -0.198 C  
BRANCH   3   4
HETATM    4  C   UNL     1      -9.029  14.839  66.355  1.00  0.00    -0.223 C  
BRANCH   4   5
HETATM    5  C   UNL     1     -10.321  14.172  65.908  1.00  0.00    -0.326 C  
BRANCH   5   6
HETATM    6  C   UNL     1     -10.210  13.579  64.503  1.00  0.00    -0.296 C  
BRANCH   6   7
HETATM    7  C   UNL     1     -10.416  12.070  64.589  1.00  0.00    -0.338 C  
BRANCH   7   8
HETATM    8  C   UNL     1     -10.219  11.378  63.244  1.00  0.00    -0.385 C  
BRANCH   8   9
HETATM    9  N   UNL     1      -8.920  10.524  63.188  1.00  0.00    -0.209 N  
HETATM   10  C   UNL     1      -9.168   9.237  62.401  1.00  0.00     0.027 C  
HETATM   11  C   UNL     1      -7.793  11.323  62.532  1.00  0.00     0.172 C  
BRANCH   9  12
HETATM   12  C   UNL     1      -8.553  10.192  64.662  1.00  0.00    -0.183 C  
BRANCH  12  13
HETATM   13  C   UNL     1      -7.056   9.982  64.866  1.00  0.00    -0.136 C  
BRANCH  13  14
HETATM   14  C   UNL     1      -6.753   8.809  65.795  1.00  0.00    -0.068 C  
BRANCH  14  15
HETATM   15  C   UNL     1      -7.352   7.538  65.195  1.00  0.00    -0.073 C  
BRANCH  15  16
HETATM   16  C   UNL     1      -8.418   6.924  66.092  1.00  0.00    -0.136 C  
BRANCH  16  17
HETATM   17  C   UNL     1      -7.892   5.641  66.734  1.00  0.00    -0.101 C  
BRANCH  17  18
HETATM   18  C   UNL     1      -8.683   5.284  67.987  1.00  0.00    -0.102 C  
HETATM   19  C   UNL     1     -10.175   5.246  67.701  1.00  0.00    -0.223 C  
ENDBRANCH  17  18
ENDBRANCH  16  17
ENDBRANCH  15  16
ENDBRANCH  14  15
ENDBRANCH  13  14
ENDBRANCH  12  13
ENDBRANCH   9  12
ENDBRANCH   8   9
ENDBRANCH   7   8
ENDBRANCH   6   7
ENDBRANCH   5   6
ENDBRANCH   4   5
ENDBRANCH   3   4
ENDBRANCH   2   3
TORSDOF 14
ENDMDL
MODEL      403
REMARK 921   NORMALIZED FREE ENERGY PREDICTED BY IDOCK:   -1.27 KCAL/MOL
REMARK 922        TOTAL FREE ENERGY PREDICTED BY IDOCK:   -4.05 KCAL/MOL
REMARK 923 INTER-LIGAND FREE ENERGY PREDICTED BY IDOCK:   -3.56 KCAL/MOL
REMARK 924 INTRA-LIGAND FREE ENERGY PREDICTED BY IDOCK:   -0.48 KCAL/MOL
REMARK 927      BINDING AFFINITY PREDICTED BY RF-SCORE:    0.00 PKD
ROOT
HETATM    1  C   UNL     1      -8.813   6.418  74.542  1.00  0.00    -0.171 C  
HETATM    2  C   UNL     1      -7.545   7.062  74.004  1.00  0.00    -0.118 C  
ENDROOT
BRANCH   2   3
HETATM    3  C   UNL     1      -7.867   8.089  72.926  1.00  0.00    -0.190 C  
BRANCH   3   4
HETATM    4  C   UNL     1      -7.584   7.534  71.530  1.00  0.00    -0.084 C  
BRANCH   4   5
HETATM    5  C   UNL     1      -6.476   8.335  70.862  1.00  0.00    -0.038 C  
BRANCH   5   6
HETATM    6  C   UNL     1      -7.024   9.459  69.982  1.00  0.00    -0.071 C  
BRANCH   6   7
HETATM    7  C   UNL     1      -8.439   9.094  69.543  1.00  0.00    -0.128 C  
BRANCH   7   8
HETATM    8  C   UNL     1      -9.500   9.944  70.236  1.00  0.00    -0.105 C  
BRANCH   8   9
HETATM    9  N   UNL     1     -10.943   9.621  69.752  1.00  0.00    -0.240 N  
HETATM   10  C   UNL     1     -11.272   8.152  70.019  1.00  0.00    -0.084 C  
HETATM   11  C   UNL     1     -11.952  10.517  70.472  1.00  0.00    -0.342 C  
BRANCH   9  12
HETATM   12  C   UNL     1     -10.965   9.909  68.225  1.00  0.00    -0.196 C  
BRANCH  12  13
HETATM   13  C   UNL     1     -11.439  11.321  67.896  1.00  0.00    -0.360 C  
BRANCH  13  14
HETATM   14  C   UNL     1     -10.284  12.314  67.788  1.00  0.00    -0.206 C  
BRANCH  14  15
HETATM   15  C   UNL     1      -9.761  12.306  66.353  1.00  0.00    -0.243 C  
BRANCH  15  16
HETATM   16  C   UNL     1     -10.628  11.462  65.428  1.00  0.00    -0.333 C  
BRANCH  16  17
HETATM   17  C   UNL     1      -9.759  10.490  64.632  1.00  0.00    -0.369 C  
BRANCH  17  18
HETATM   18  C   UNL     1      -8.683   9.862  65.510  1.00  0.00    -0.170 C  
HETATM   19  C   UNL     1      -7.693   9.065  64.678  1.00  0.00    -0.115 C  
ENDBRANCH  17  18
ENDBRANCH  16  17
ENDBRANCH  15  16
ENDBRANCH  14  15
ENDBRANCH  13  14
ENDBRANCH  12  13
ENDBRANCH   9  12
ENDBRANCH   8   9
ENDBRANCH   7   8
ENDBRANCH   6   7
ENDBRANCH   5   6
ENDBRANCH   4   5
ENDBRANCH   3   4
ENDBRANCH   2   3
TORSDOF 14
ENDMDL
MODEL      404
REMARK 921   NORMALIZED FREE ENERGY PREDICTED BY IDOCK:   -1.19 KCAL/MOL
REMARK 922        TOTAL FREE ENERGY PREDICTED BY IDOCK:   -3.90 KCAL/MOL
REMARK 923 INTER-LIGAND FREE ENERGY PREDICTED BY IDOCK:   -3.82 KCAL/MOL
REMARK 924 INTRA-LIGAND FREE ENERGY PREDICTED BY IDOCK:   -0.09 KCAL/MOL
REMARK 927      BINDING AFFINITY PREDICTED BY RF-SCORE:    0.00 PKD
ROOT
HETATM    1  C   UNL     1      -7.154   8.119  67.977  1.00  0.00    -0.086 C  
HETATM    2  C   UNL     1      -6.817   9.590  68.169  1.00  0.00    -0.070 C  
ENDROOT
BRANCH   2   3
HETATM    3  C   UNL     1      -6.130  10.161  66.934  1.00  0.00    -0.056 C  
BRANCH   3   4
HETATM    4  C   UNL     1      -6.710  11.524  66.558  1.00  0.00    -0.019 C  
BRANCH   4   5
HETATM    5  C   UNL     1      -6.414  12.540  67.651  1.00  0.00    -0.138 C  
BRANCH   5   6
HETATM    6  C   UNL     1      -7.422  13.689  67.662  1.00  0.00    -0.191 C  
BRANCH   6   7
HETATM    7  C   UNL     1      -8.812  13.120  67.934  1.00  0.00    -0.196 C  
BRANCH   7   8
HETATM    8  C   UNL     1      -9.288  12.190  66.822  1.00  0.00    -0.212 C  
BRANCH   8   9
HETATM    9  N   UNL     1     -10.603  11.442  67.183  1.00  0.00    -0.230 N  
HETATM   10  C   UNL     1     -11.777  12.032  66.401  1.00  0.00    -0.252 C  
HETATM   11  C   UNL     1     -10.465   9.952  66.864  1.00  0.00    -0.215 C  
BRANCH   9  12
HETATM   12  C   UNL     1     -10.816  11.645  68.709  1.00  0.00    -0.220 C  
BRANCH  12  13
HETATM   13  C   UNL     1      -9.997  10.675  69.555  1.00  0.00    -0.138 C  
BRANCH  13  14
HETATM   14  C   UNL     1     -10.870   9.665  70.295  1.00  0.00    -0.339 C  
BRANCH  14  15
HETATM   15  C   UNL     1     -10.237   8.280  70.165  1.00  0.00    -0.199 C  
BRANCH  15  16
HETATM   16  C   UNL     1     -11.276   7.167  70.195  1.00  0.00    -0.295 C  
BRANCH  16  17
HETATM   17  C   UNL     1     -11.127   6.274  68.964  1.00  0.00    -0.446 C  
BRANCH  17  18
HETATM   18  C   UNL     1      -9.819   5.492  69.001  1.00  0.00    -0.220 C  
HETATM   19  C   UNL     1      -9.730   4.631  70.250  1.00  0.00    -0.295 C  
ENDBRANCH  17  18
ENDBRANCH  16  17
ENDBRANCH  15  16
ENDBRANCH  14  15
ENDBRANCH  13  14
ENDBRANCH  12  13
ENDBRANCH   9  12
ENDBRANCH   8   9
ENDBRANCH   7   8
ENDBRANCH   6   7
ENDBRANCH   5   6
ENDBRANCH   4   5
ENDBRANCH   3   4
ENDBRANCH   2   3
TORSDOF 14
ENDMDL
MODEL      405
REMARK 921   NORMALIZED FREE ENERGY PREDICTED BY IDOCK:   -1.12 KCAL/MOL
REMARK 922        TOTAL FREE ENERGY PREDICTED BY IDOCK:   -3.78 KCAL/MOL
REMARK 923 INTER-LIGAND FREE ENERGY PREDICTED BY IDOCK:   -2.89 KCAL/MOL
REMARK 924 INTRA-LIGAND FREE ENERGY PREDICTED BY IDOCK:   -0.89 KCAL/MOL
REMARK 927      BINDING AFFINITY PREDICTED BY RF-SCORE:    0.00 PKD
ROOT
HETATM    1  C   UNL     1      -9.198  15.064  67.181  1.00  0.00    -0.229 C  
HETATM    2  C   UNL     1      -9.013  13.822  68.038  1.00  0.00    -0.187 C  
ENDROOT
BRANCH   2   3
HETATM    3  C   UNL     1     -10.298  13.005  68.106  1.00  0.00    -0.244 C  
BRANCH   3   4
HETATM    4  C   UNL     1     -10.912  12.822  66.719  1.00  0.00    -0.301 C  
BRANCH   4   5
HETATM    5  C   UNL     1     -11.335  11.374  66.520  1.00  0.00    -0.195 C  
BRANCH   5   6
HETATM    6  C   UNL     1     -10.519  10.678  65.430  1.00  0.00    -0.254 C  
BRANCH   6   7
HETATM    7  C   UNL     1      -9.692   9.567  66.070  1.00  0.00    -0.341 C  
BRANCH   7   8
HETATM    8  C   UNL     1      -8.619   9.025  65.130  1.00  0.00    -0.179 C  
BRANCH   8   9
HETATM    9  N   UNL     1      -7.242   8.836  65.830  1.00  0.00    -0.083 N  
HETATM   10  C   UNL     1      -6.621   7.501  65.420  1.00  0.00    -0.045 C  
HETATM   11  C   UNL     1      -6.301   9.982  65.456  1.00  0.00    -0.094 C  
BRANCH   9  12
HETATM   12  C   UNL     1      -7.524   8.852  67.359  1.00  0.00    -0.085 C  
BRANCH  12  13
HETATM   13  C   UNL     1      -6.425   8.174  68.170  1.00  0.00    -0.056 C  
BRANCH  13  14
HETATM   14  C   UNL     1      -6.937   7.619  69.497  1.00  0.00    -0.056 C  
BRANCH  14  15
HETATM   15  C   UNL     1      -8.174   8.412  69.917  1.00  0.00    -0.122 C  
BRANCH  15  16
HETATM   16  C   UNL     1      -7.928   9.239  71.172  1.00  0.00    -0.041 C  
BRANCH  16  17
HETATM   17  C   UNL     1      -8.265   8.422  72.417  1.00  0.00    -0.202 C  
BRANCH  17  18
HETATM   18  C   UNL     1      -7.018   7.775  73.010  1.00  0.00    -0.090 C  
HETATM   19  C   UNL     1      -6.141   8.807  73.700  1.00  0.00    -0.089 C  
ENDBRANCH  17  18
ENDBRANCH  16  17
ENDBRANCH  15  16
ENDBRANCH  14  15
ENDBRANCH  13  14
ENDBRANCH  12  13
ENDBRANCH   9  12
ENDBRANCH   8   9
ENDBRANCH   7   8
ENDBRANCH   6   7
ENDBRANCH   5   6
ENDBRANCH   4   5
ENDBRANCH   3   4
ENDBRANCH   2   3
TORSDOF 14
ENDMDL
MODEL      406
REMARK 921   NORMALIZED FREE ENERGY PREDICTED BY IDOCK:   -1.08 KCAL/MOL
REMARK 922        TOTAL FREE ENERGY PREDICTED BY IDOCK:   -3.70 KCAL/MOL
REMARK 923 INTER-LIGAND FREE ENERGY PREDICTED BY IDOCK:   -2.62 KCAL/MOL
REMARK 924 INTRA-LIGAND FREE ENERGY PREDICTED BY IDOCK:   -1.08 KCAL/MOL
REMARK 927      BINDING AFFINITY PREDICTED BY RF-SCORE:    0.00 PKD
ROOT
HETATM    1  C   UNL     1      -7.002   9.732  69.452  1.00  0.00    -0.059 C  
HETATM    2  C   UNL     1      -7.169  11.242  69.500  1.00  0.00    -0.020 C  
ENDROOT
BRANCH   2   3
HETATM    3  C   UNL     1      -5.955  11.948  68.908  1.00  0.00    -0.055 C  
BRANCH   3   4
HETATM    4  C   UNL     1      -6.372  13.139  68.046  1.00  0.00    -0.127 C  
BRANCH   4   5
HETATM    5  C   UNL     1      -7.817  13.516  68.337  1.00  0.00    -0.143 C  
BRANCH   5   6
HETATM    6  C   UNL     1      -8.469  14.254  67.168  1.00  0.00    -0.220 C  
BRANCH   6   7
HETATM    7  C   UNL     1      -9.884  13.717  66.975  1.00  0.00    -0.251 C  
BRANCH   7   8
HETATM    8  C   UNL     1     -10.125  13.205  65.558  1.00  0.00    -0.261 C  
BRANCH   8   9
HETATM    9  N   UNL     1     -10.074  11.654  65.458  1.00  0.00    -0.236 N  
HETATM   10  C   UNL     1     -10.639  11.193  64.115  1.00  0.00    -0.368 C  
HETATM   11  C   UNL     1      -8.633  11.164  65.610  1.00  0.00    -0.083 C  
BRANCH   9  12
HETATM   12  C   UNL     1     -10.949  11.113  66.624  1.00  0.00    -0.228 C  
BRANCH  12  13
HETATM   13  C   UNL     1     -10.178  10.193  67.565  1.00  0.00    -0.257 C  
BRANCH  13  14
HETATM   14  C   UNL     1     -10.567   8.727  67.397  1.00  0.00    -0.304 C  
BRANCH  14  15
HETATM   15  C   UNL     1     -11.322   8.272  68.645  1.00  0.00     0.738 C  
BRANCH  15  16
HETATM   16  C   UNL     1     -10.668   7.066  69.306  1.00  0.00    -0.245 C  
BRANCH  16  17
HETATM   17  C   UNL     1      -9.188   7.342  69.560  1.00  0.00    -0.146 C  
BRANCH  17  18
HETATM   18  C   UNL     1      -8.624   6.406  70.623  1.00  0.00    -0.139 C  
HETATM   19  C   UNL     1      -9.356   5.074  70.625  1.00  0.00    -0.216 C  
ENDBRANCH  17  18
ENDBRANCH  16  17
ENDBRANCH  15  16
ENDBRANCH  14  15
ENDBRANCH  13  14
ENDBRANCH  12  13
ENDBRANCH   9  12
ENDBRANCH   8   9
ENDBRANCH   7   8
ENDBRANCH   6   7
ENDBRANCH   5   6
ENDBRANCH   4   5
ENDBRANCH   3   4
ENDBRANCH   2   3
TORSDOF 14
ENDMDL
MODEL      407
REMARK 921   NORMALIZED FREE ENERGY PREDICTED BY IDOCK:   -0.99 KCAL/MOL
REMARK 922        TOTAL FREE ENERGY PREDICTED BY IDOCK:   -3.54 KCAL/MOL
REMARK 923 INTER-LIGAND FREE ENERGY PREDICTED BY IDOCK:   -3.09 KCAL/MOL
REMARK 924 INTRA-LIGAND FREE ENERGY PREDICTED BY IDOCK:   -0.45 KCAL/MOL
REMARK 927      BINDING AFFINITY PREDICTED BY RF-SCORE:    0.00 PKD
ROOT
HETATM    1  C   UNL     1      -6.133   2.368  73.894  1.00  0.00    -0.008 C  
HETATM    2  C   UNL     1      -6.276   3.826  73.488  1.00  0.00    -0.023 C  
ENDROOT
BRANCH   2   3
HETATM    3  C   UNL     1      -6.235   3.981  71.972  1.00  0.00    -0.014 C  
BRANCH   3   4
HETATM    4  C   UNL     1      -7.005   5.221  71.521  1.00  0.00    -0.065 C  
BRANCH   4   5
HETATM    5  C   UNL     1      -7.608   4.992  70.143  1.00  0.00    -0.060 C  
BRANCH   5   6
HETATM    6  C   UNL     1      -7.181   6.062  69.139  1.00  0.00    -0.082 C  
BRANCH   6   7
HETATM    7  C   UNL     1      -8.422   6.587  68.423  1.00  0.00    -0.120 C  
BRANCH   7   8
HETATM    8  C   UNL     1      -8.839   7.969  68.918  1.00  0.00    -0.141 C  
BRANCH   8   9
HETATM    9  N   UNL     1     -10.378   8.189  68.872  1.00  0.00    -0.214 N  
HETATM   10  C   UNL     1     -10.764   8.960  67.610  1.00  0.00    -0.151 C  
HETATM   11  C   UNL     1     -11.103   6.842  68.898  1.00  0.00    -0.181 C  
BRANCH   9  12
HETATM   12  C   UNL     1     -10.738   9.015  70.139  1.00  0.00    -0.233 C  
BRANCH  12  13
HETATM   13  C   UNL     1     -11.894   9.982  69.906  1.00  0.00    -0.141 C  
BRANCH  13  14
HETATM   14  C   UNL     1     -11.484  11.440  70.102  1.00  0.00    -0.302 C  
BRANCH  14  15
HETATM   15  C   UNL     1     -11.289  12.085  68.731  1.00  0.00    -0.331 C  
BRANCH  15  16
HETATM   16  C   UNL     1      -9.864  12.581  68.526  1.00  0.00    -0.153 C  
BRANCH  16  17
HETATM   17  C   UNL     1      -9.873  13.931  67.810  1.00  0.00    -0.237 C  
BRANCH  17  18
HETATM   18  C   UNL     1     -10.863  13.937  66.651  1.00  0.00    -0.289 C  
HETATM   19  C   UNL     1     -10.142  14.014  65.315  1.00  0.00    -0.345 C  
ENDBRANCH  17  18
ENDBRANCH  16  17
ENDBRANCH  15  16
ENDBRANCH  14  15
ENDBRANCH  13  14
ENDBRANCH  12  13
ENDBRANCH   9  12
ENDBRANCH   8   9
ENDBRANCH   7   8
ENDBRANCH   6   7
ENDBRANCH   5   6
ENDBRANCH   4   5
ENDBRANCH   3   4
ENDBRANCH   2   3
TORSDOF 14
ENDMDL
MODEL      408
REMARK 921   NORMALIZED FREE ENERGY PREDICTED BY IDOCK:   -0.95 KCAL/MOL
REMARK 922        TOTAL FREE ENERGY PREDICTED BY IDOCK:   -3.46 KCAL/MOL
REMARK 923 INTER-LIGAND FREE ENERGY PREDICTED BY IDOCK:   -2.35 KCAL/MOL
REMARK 924 INTRA-LIGAND FREE ENERGY PREDICTED BY IDOCK:   -1.11 KCAL/MOL
REMARK 927      BINDING AFFINITY PREDICTED BY RF-SCORE:    0.00 PKD
ROOT
HETATM    1  C   UNL     1     -12.625  12.986  64.858  1.00  0.00    -0.490 C  
HETATM    2  C   UNL     1     -11.224  12.483  64.550  1.00  0.00    -0.370 C  
ENDROOT
BRANCH   2   3
HETATM    3  C   UNL     1     -10.207  13.617  64.614  1.00  0.00    -0.338 C  
BRANCH   3   4
HETATM    4  C   UNL     1      -9.412  13.575  65.918  1.00  0.00    -0.048 C  
BRANCH   4   5
HETATM    5  C   UNL     1     -10.054  14.488  66.953  1.00  0.00    -0.257 C  
BRANCH   5   6
HETATM    6  C   UNL     1     -10.627  13.708  68.136  1.00  0.00    -0.255 C  
BRANCH   6   7
HETATM    7  C   UNL     1     -11.947  14.349  68.555  1.00  0.00    -0.333 C  
BRANCH   7   8
HETATM    8  C   UNL     1     -12.154  14.322  70.066  1.00  0.00    -0.340 C  
BRANCH   8   9
HETATM    9  N   UNL     1     -11.514  15.543  70.786  1.00  0.00    -0.332 N  
HETATM   10  C   UNL     1     -12.490  16.122  71.810  1.00  0.00    -0.269 C  
HETATM   11  C   UNL     1     -10.219  15.125  71.482  1.00  0.00     1.465 C  
BRANCH   9  12
HETATM   12  C   UNL     1     -11.212  16.592  69.678  1.00  0.00    -0.045 C  
BRANCH  12  13
HETATM   13  C   UNL     1      -9.850  17.258  69.850  1.00  0.00     0.697 C  
BRANCH  13  14
HETATM   14  C   UNL     1      -9.204  17.619  68.515  1.00  0.00    -0.281 C  
BRANCH  14  15
HETATM   15  C   UNL     1      -7.748  18.009  68.763  1.00  0.00    -0.273 C  
BRANCH  15  16
HETATM   16  C   UNL     1      -7.256  19.057  67.774  1.00  0.00    -0.258 C  
BRANCH  16  17
HETATM   17  C   UNL     1      -7.962  18.887  66.430  1.00  0.00    -0.300 C  
BRANCH  17  18
HETATM   18  C   UNL     1      -8.823  20.101  66.099  1.00  0.00    -0.257 C  
HETATM   19  C   UNL     1      -8.952  21.025  67.299  1.00  0.00    -0.066 C  
ENDBRANCH  17  18
ENDBRANCH  16  17
ENDBRANCH  15  16
ENDBRANCH  14  15
ENDBRANCH  13  14
ENDBRANCH  12  13
ENDBRANCH   9  12
ENDBRANCH   8   9
ENDBRANCH   7   8
ENDBRANCH   6   7
ENDBRANCH   5   6
ENDBRANCH   4   5
ENDBRANCH   3   4
ENDBRANCH   2   3
TORSDOF 14
ENDMDL
MODEL      409
REMARK 921   NORMALIZED FREE ENERGY PREDICTED BY IDOCK:   -0.76 KCAL/MOL
REMARK 922        TOTAL FREE ENERGY PREDICTED BY IDOCK:   -3.11 KCAL/MOL
REMARK 923 INTER-LIGAND FREE ENERGY PREDICTED BY IDOCK:   -2.45 KCAL/MOL
REMARK 924 INTRA-LIGAND FREE ENERGY PREDICTED BY IDOCK:   -0.66 KCAL/MOL
REMARK 927      BINDING AFFINITY PREDICTED BY RF-SCORE:    0.00 PKD
ROOT
HETATM    1  C   UNL     1      -7.054   2.236  74.132  1.00  0.00    -0.028 C  
HETATM    2  C   UNL     1      -7.185   3.683  73.685  1.00  0.00    -0.056 C  
ENDROOT
BRANCH   2   3
HETATM    3  C   UNL     1      -7.505   3.771  72.197  1.00  0.00    -0.057 C  
BRANCH   3   4
HETATM    4  C   UNL     1      -8.453   4.933  71.902  1.00  0.00    -0.123 C  
BRANCH   4   5
HETATM    5  C   UNL     1      -9.614   4.457  71.042  1.00  0.00    -0.249 C  
BRANCH   5   6
HETATM    6  C   UNL     1      -9.235   3.263  70.167  1.00  0.00    -0.226 C  
BRANCH   6   7
HETATM    7  C   UNL     1      -9.534   3.606  68.711  1.00  0.00    -0.214 C  
BRANCH   7   8
HETATM    8  C   UNL     1      -8.487   4.537  68.105  1.00  0.00    -0.094 C  
BRANCH   8   9
HETATM    9  N   UNL     1      -8.881   5.051  66.691  1.00  0.00    -0.111 N  
HETATM   10  C   UNL     1      -8.215   4.195  65.614  1.00  0.00    -0.109 C  
HETATM   11  C   UNL     1     -10.400   5.010  66.521  1.00  0.00    -0.284 C  
BRANCH   9  12
HETATM   12  C   UNL     1      -8.372   6.518  66.604  1.00  0.00    -0.113 C  
BRANCH  12  13
HETATM   13  C   UNL     1      -8.602   7.301  67.892  1.00  0.00    -0.120 C  
BRANCH  13  14
HETATM   14  C   UNL     1      -8.737   8.802  67.646  1.00  0.00    -0.135 C  
BRANCH  14  15
HETATM   15  C   UNL     1      -9.289   9.460  68.910  1.00  0.00    -0.154 C  
BRANCH  15  16
HETATM   16  C   UNL     1      -9.156   8.562  70.132  1.00  0.00    -0.154 C  
BRANCH  16  17
HETATM   17  C   UNL     1      -7.683   8.289  70.429  1.00  0.00    -0.084 C  
BRANCH  17  18
HETATM   18  C   UNL     1      -6.950   9.568  70.820  1.00  0.00    -0.108 C  
HETATM   19  C   UNL     1      -5.509   9.544  70.338  1.00  0.00    -0.033 C  
ENDBRANCH  17  18
ENDBRANCH  16  17
ENDBRANCH  15  16
ENDBRANCH  14  15
ENDBRANCH  13  14
ENDBRANCH  12  13
ENDBRANCH   9  12
ENDBRANCH   8   9
ENDBRANCH   7   8
ENDBRANCH   6   7
ENDBRANCH   5   6
ENDBRANCH   4   5
ENDBRANCH   3   4
ENDBRANCH   2   3
TORSDOF 14
ENDMDL
MODEL      410
REMARK 921   NORMALIZED FREE ENERGY PREDICTED BY IDOCK:    0.12 KCAL/MOL
REMARK 922        TOTAL FREE ENERGY PREDICTED BY IDOCK:   -1.51 KCAL/MOL
REMARK 923 INTER-LIGAND FREE ENERGY PREDICTED BY IDOCK:   -1.54 KCAL/MOL
REMARK 924 INTRA-LIGAND FREE ENERGY PREDICTED BY IDOCK:    0.03 KCAL/MOL
REMARK 927      BINDING AFFINITY PREDICTED BY RF-SCORE:    0.00 PKD
ROOT
HETATM    1  C   UNL     1     -11.051  15.604  63.770  1.00  0.00     1.368 C  
HETATM    2  C   UNL     1     -10.752  14.151  64.101  1.00  0.00     0.260 C  
ENDROOT
BRANCH   2   3
HETATM    3  C   UNL     1     -10.386  13.986  65.571  1.00  0.00    -0.354 C  
BRANCH   3   4
HETATM    4  C   UNL     1     -10.246  15.342  66.262  1.00  0.00    -0.303 C  
BRANCH   4   5
HETATM    5  C   UNL     1     -11.327  15.506  67.320  1.00  0.00    -0.167 C  
BRANCH   5   6
HETATM    6  C   UNL     1     -10.966  14.805  68.629  1.00  0.00    -0.262 C  
BRANCH   6   7
HETATM    7  C   UNL     1      -9.540  14.274  68.526  1.00  0.00    -0.220 C  
BRANCH   7   8
HETATM    8  C   UNL     1      -8.504  15.291  68.996  1.00  0.00    -0.221 C  
BRANCH   8   9
HETATM    9  N   UNL     1      -7.158  15.184  68.224  1.00  0.00    -0.106 N  
HETATM   10  C   UNL     1      -7.086  16.257  67.139  1.00  0.00    -0.209 C  
HETATM   11  C   UNL     1      -5.984  15.344  69.191  1.00  0.00    -0.106 C  
BRANCH   9  12
HETATM   12  C   UNL     1      -7.135  13.768  67.583  1.00  0.00    -0.176 C  
BRANCH  12  13
HETATM   13  C   UNL     1      -6.707  12.681  68.565  1.00  0.00    -0.089 C  
BRANCH  13  14
HETATM   14  C   UNL     1      -6.932  11.275  68.013  1.00  0.00    -0.068 C  
BRANCH  14  15
HETATM   15  C   UNL     1      -7.498  10.395  69.127  1.00  0.00    -0.112 C  
BRANCH  15  16
HETATM   16  C   UNL     1      -8.912   9.921  68.823  1.00  0.00    -0.140 C  
BRANCH  16  17
HETATM   17  C   UNL     1      -9.113   8.496  69.336  1.00  0.00    -0.150 C  
BRANCH  17  18
HETATM   18  C   UNL     1      -8.977   8.428  70.853  1.00  0.00    -0.188 C  
HETATM   19  C   UNL     1     -10.339   8.453  71.527  1.00  0.00    -0.296 C  
ENDBRANCH  17  18
ENDBRANCH  16  17
ENDBRANCH  15  16
ENDBRANCH  14  15
ENDBRANCH  13  14
ENDBRANCH  12  13
ENDBRANCH   9  12
ENDBRANCH   8   9
ENDBRANCH   7   8
ENDBRANCH   6   7
ENDBRANCH   5   6
ENDBRANCH   4   5
ENDBRANCH   3   4
ENDBRANCH   2   3
TORSDOF 14
ENDMDL
MODEL      411
REMARK 921   NORMALIZED FREE ENERGY PREDICTED BY IDOCK:    2.89 KCAL/MOL
REMARK 922        TOTAL FREE ENERGY PREDICTED BY IDOCK:    3.52 KCAL/MOL
REMARK 923 INTER-LIGAND FREE ENERGY PREDICTED BY IDOCK:    4.31 KCAL/MOL
REMARK 924 INTRA-LIGAND FREE ENERGY PREDICTED BY IDOCK:   -0.80 KCAL/MOL
REMARK 927      BINDING AFFINITY PREDICTED BY RF-SCORE:    0.00 PKD
ROOT
HETATM    1  C   UNL     1     -11.147  16.798  67.398  1.00  0.00     0.019 C  
HETATM    2  C   UNL     1     -11.225  15.784  66.267  1.00  0.00     0.033 C  
ENDROOT
BRANCH   2   3
HETATM    3  C   UNL     1      -9.893  15.676  65.535  1.00  0.00    -0.326 C  
BRANCH   3   4
HETATM    4  C   UNL     1      -9.493  14.216  65.326  1.00  0.00     0.343 C  
BRANCH   4   5
HETATM    5  C   UNL     1      -9.470  13.483  66.659  1.00  0.00    -0.271 C  
BRANCH   5   6
HETATM    6  C   UNL     1      -8.251  12.571  66.798  1.00  0.00     0.003 C  
BRANCH   6   7
HETATM    7  C   UNL     1      -7.070  13.402  67.291  1.00  0.00     0.004 C  
BRANCH   7   8
HETATM    8  C   UNL     1      -6.812  13.218  68.784  1.00  0.00    -0.102 C  
BRANCH   8   9
HETATM    9  N   UNL     1      -6.573  14.564  69.526  1.00  0.00    -0.134 N  
HETATM   10  C   UNL     1      -5.175  14.584  70.144  1.00  0.00    -0.093 C  
HETATM   11  C   UNL     1      -6.727  15.735  68.555  1.00  0.00    -0.119 C  
BRANCH   9  12
HETATM   12  C   UNL     1      -7.655  14.646  70.640  1.00  0.00     1.288 C  
BRANCH  12  13
HETATM   13  C   UNL     1      -8.721  15.699  70.353  1.00  0.00     1.289 C  
BRANCH  13  14
HETATM   14  C   UNL     1      -9.926  15.578  71.283  1.00  0.00     1.566 C  
BRANCH  14  15
HETATM   15  C   UNL     1     -11.163  16.105  70.557  1.00  0.00    -0.381 C  
BRANCH  15  16
HETATM   16  C   UNL     1     -12.305  16.415  71.515  1.00  0.00     0.193 C  
BRANCH  16  17
HETATM   17  C   UNL     1     -11.762  17.039  72.799  1.00  0.00     0.385 C  
BRANCH  17  18
HETATM   18  C   UNL     1     -11.857  16.068  73.970  1.00  0.00    -0.130 C  
HETATM   19  C   UNL     1     -13.279  15.988  74.501  1.00  0.00     0.748 C  
ENDBRANCH  17  18
ENDBRANCH  16  17
ENDBRANCH  15  16
ENDBRANCH  14  15
ENDBRANCH  13  14
ENDBRANCH  12  13
ENDBRANCH   9  12
ENDBRANCH   8   9
ENDBRANCH   7   8
ENDBRANCH   6   7
ENDBRANCH   5   6
ENDBRANCH   4   5
ENDBRANCH   3   4
ENDBRANCH   2   3
TORSDOF 14
ENDMDL
MODEL      412
REMARK 921   NORMALIZED FREE ENERGY PREDICTED BY IDOCK:    4.38 KCAL/MOL
REMARK 922        TOTAL FREE ENERGY PREDICTED BY IDOCK:    6.22 KCAL/MOL
REMARK 923 INTER-LIGAND FREE ENERGY PREDICTED BY IDOCK:    6.32 KCAL/MOL
REMARK 924 INTRA-LIGAND FREE ENERGY PREDICTED BY IDOCK:   -0.09 KCAL/MOL
REMARK 927      BINDING AFFINITY PREDICTED BY RF-SCORE:    0.00 PKD
ROOT
HETATM    1  C   UNL     1     -12.625  20.322  66.387  1.00  0.00     5.041 C  
HETATM    2  C   UNL     1     -11.375  19.466  66.509  1.00  0.00     0.352 C  
ENDROOT
BRANCH   2   3
HETATM    3  C   UNL     1     -10.116  20.324  66.467  1.00  0.00    -0.518 C  
BRANCH   3   4
HETATM    4  C   UNL     1      -9.481  20.445  67.852  1.00  0.00    -0.352 C  
BRANCH   4   5
HETATM    5  C   UNL     1      -8.146  19.715  67.883  1.00  0.00    -0.339 C  
BRANCH   5   6
HETATM    6  C   UNL     1      -7.814  19.176  69.275  1.00  0.00    -0.120 C  
BRANCH   6   7
HETATM    7  C   UNL     1      -8.415  17.781  69.417  1.00  0.00     0.469 C  
BRANCH   7   8
HETATM    8  C   UNL     1      -9.940  17.794  69.356  1.00  0.00     0.020 C  
BRANCH   8   9
HETATM    9  N   UNL     1     -10.569  16.402  69.648  1.00  0.00    -0.312 N  
HETATM   10  C   UNL     1     -11.149  16.372  71.062  1.00  0.00     0.040 C  
HETATM   11  C   UNL     1     -11.668  16.098  68.630  1.00  0.00    -0.205 C  
BRANCH   9  12
HETATM   12  C   UNL     1      -9.416  15.367  69.517  1.00  0.00    -0.249 C  
BRANCH  12  13
HETATM   13  C   UNL     1      -9.653  14.356  68.399  1.00  0.00    -0.219 C  
BRANCH  13  14
HETATM   14  C   UNL     1      -8.469  13.412  68.207  1.00  0.00    -0.166 C  
BRANCH  14  15
HETATM   15  C   UNL     1      -7.178  14.175  68.499  1.00  0.00    -0.110 C  
BRANCH  15  16
HETATM   16  C   UNL     1      -7.083  15.471  67.706  1.00  0.00    -0.179 C  
BRANCH  16  17
HETATM   17  C   UNL     1      -6.049  15.333  66.590  1.00  0.00     1.806 C  
BRANCH  17  18
HETATM   18  C   UNL     1      -5.788  16.671  65.907  1.00  0.00     1.531 C  
HETATM   19  C   UNL     1      -5.176  17.670  66.876  1.00  0.00    -0.173 C  
ENDBRANCH  17  18
ENDBRANCH  16  17
ENDBRANCH  15  16
ENDBRANCH  14  15
ENDBRANCH  13  14
ENDBRANCH  12  13
ENDBRANCH   9  12
ENDBRANCH   8   9
ENDBRANCH   7   8
ENDBRANCH   6   7
ENDBRANCH   5   6
ENDBRANCH   4   5
ENDBRANCH   3   4
ENDBRANCH   2   3
TORSDOF 14
ENDMDL
MODEL      413
REMARK 921   NORMALIZED FREE ENERGY PREDICTED BY IDOCK:    5.03 KCAL/MOL
REMARK 922        TOTAL FREE ENERGY PREDICTED BY IDOCK:    7.41 KCAL/MOL
REMARK 923 INTER-LIGAND FREE ENERGY PREDICTED BY IDOCK:   -1.66 KCAL/MOL
REMARK 924 INTRA-LIGAND FREE ENERGY PREDICTED BY IDOCK:    9.07 KCAL/MOL
REMARK 927      BINDING AFFINITY PREDICTED BY RF-SCORE:    0.00 PKD
ROOT
HETATM    1  C   UNL     1      -8.210  13.691  68.574  1.00  0.00    -0.112 C  
HETATM    2  C   UNL     1      -7.975  13.057  67.212  1.00  0.00    -0.143 C  
ENDROOT
BRANCH   2   3
HETATM    3  C   UNL     1      -6.703  12.217  67.210  1.00  0.00    -0.144 C  
BRANCH   3   4
HETATM    4  C   UNL     1      -6.873  10.957  66.361  1.00  0.00    -0.135 C  
BRANCH   4   5
HETATM    5  C   UNL     1      -8.227  10.319  66.635  1.00  0.00    -0.125 C  
BRANCH   5   6
HETATM    6  C   UNL     1      -8.777   9.584  65.413  1.00  0.00    -0.190 C  
BRANCH   6   7
HETATM    7  C   UNL     1     -10.165  10.133  65.094  1.00  0.00    -0.233 C  
BRANCH   7   8
HETATM    8  C   UNL     1     -10.283  11.625  65.390  1.00  0.00    -0.263 C  
BRANCH   8   9
HETATM    9  N   UNL     1     -11.155  11.925  66.643  1.00  0.00    -0.295 N  
HETATM   10  C   UNL     1     -12.639  11.828  66.289  1.00  0.00     2.368 C  
HETATM   11  C   UNL     1     -10.824  10.937  67.763  1.00  0.00    -0.259 C  
BRANCH   9  12
HETATM   12  C   UNL     1     -10.800  13.373  67.085  1.00  0.00    -0.276 C  
BRANCH  12  13
HETATM   13  C   UNL     1     -12.034  14.241  67.311  1.00  0.00    -0.439 C  
BRANCH  13  14
HETATM   14  C   UNL     1     -12.214  14.628  68.777  1.00  0.00    -0.154 C  
BRANCH  14  15
HETATM   15  C   UNL     1     -10.930  14.295  69.535  1.00  0.00    -0.206 C  
BRANCH  15  16
HETATM   16  C   UNL     1      -9.856  15.357  69.345  1.00  0.00    -0.273 C  
BRANCH  16  17
HETATM   17  C   UNL     1      -9.320  15.315  67.915  1.00  0.00    -0.189 C  
BRANCH  17  18
HETATM   18  C   UNL     1      -9.638  16.604  67.166  1.00  0.00    -0.244 C  
HETATM   19  C   UNL     1     -10.748  17.380  67.855  1.00  0.00    -0.351 C  
ENDBRANCH  17  18
ENDBRANCH  16  17
ENDBRANCH  15  16
ENDBRANCH  14  15
ENDBRANCH  13  14
ENDBRANCH  12  13
ENDBRANCH   9  12
ENDBRANCH   8   9
ENDBRANCH   7   8
ENDBRANCH   6   7
ENDBRANCH   5   6
ENDBRANCH   4   5
ENDBRANCH   3   4
ENDBRANCH   2   3
TORSDOF 14
ENDMDL
MODEL      414
REMARK 921   NORMALIZED FREE ENERGY PREDICTED BY IDOCK:    7.49 KCAL/MOL
REMARK 922        TOTAL FREE ENERGY PREDICTED BY IDOCK:   11.88 KCAL/MOL
REMARK 923 INTER-LIGAND FREE ENERGY PREDICTED BY IDOCK:   11.91 KCAL/MOL
REMARK 924 INTRA-LIGAND FREE ENERGY PREDICTED BY IDOCK:   -0.04 KCAL/MOL
REMARK 927      BINDING AFFINITY PREDICTED BY RF-SCORE:    0.00 PKD
ROOT
HETATM    1  C   UNL     1     -13.438  20.284  65.997  1.00  0.00     9.584 C  
HETATM    2  C   UNL     1     -12.276  19.323  66.185  1.00  0.00     4.456 C  
ENDROOT
BRANCH   2   3
HETATM    3  C   UNL     1     -10.946  20.067  66.215  1.00  0.00    -0.039 C  
BRANCH   3   4
HETATM    4  C   UNL     1     -10.415  20.194  67.642  1.00  0.00    -0.408 C  
BRANCH   4   5
HETATM    5  C   UNL     1      -9.061  19.510  67.761  1.00  0.00    -0.384 C  
BRANCH   5   6
HETATM    6  C   UNL     1      -8.848  18.882  69.138  1.00  0.00    -0.060 C  
BRANCH   6   7
HETATM    7  C   UNL     1      -9.410  17.464  69.124  1.00  0.00    -0.009 C  
BRANCH   7   8
HETATM    8  C   UNL     1     -10.805  17.396  68.511  1.00  0.00    -0.190 C  
BRANCH   8   9
HETATM    9  N   UNL     1     -11.455  15.989  68.641  1.00  0.00    -0.387 N  
HETATM   10  C   UNL     1     -12.739  16.075  69.467  1.00  0.00     0.762 C  
HETATM   11  C   UNL     1     -11.767  15.422  67.255  1.00  0.00     0.013 C  
BRANCH   9  12
HETATM   12  C   UNL     1     -10.410  15.092  69.364  1.00  0.00    -0.235 C  
BRANCH  12  13
HETATM   13  C   UNL     1      -9.914  13.942  68.492  1.00  0.00    -0.221 C  
BRANCH  13  14
HETATM   14  C   UNL     1      -8.391  13.849  68.461  1.00  0.00    -0.132 C  
BRANCH  14  15
HETATM   15  C   UNL     1      -7.958  13.318  67.095  1.00  0.00    -0.077 C  
BRANCH  15  16
HETATM   16  C   UNL     1      -8.750  12.086  66.679  1.00  0.00    -0.171 C  
BRANCH  16  17
HETATM   17  C   UNL     1      -7.885  10.834  66.808  1.00  0.00    -0.135 C  
BRANCH  17  18
HETATM   18  C   UNL     1      -8.658   9.582  66.408  1.00  0.00    -0.143 C  
HETATM   19  C   UNL     1      -9.165   9.684  64.979  1.00  0.00    -0.310 C  
ENDBRANCH  17  18
ENDBRANCH  16  17
ENDBRANCH  15  16
ENDBRANCH  14  15
ENDBRANCH  13  14
ENDBRANCH  12  13
ENDBRANCH   9  12
ENDBRANCH   8   9
ENDBRANCH   7   8
ENDBRANCH   6   7
ENDBRANCH   5   6
ENDBRANCH   4   5
ENDBRANCH   3   4
ENDBRANCH   2   3
TORSDOF 14
ENDMDL
MODEL      415
REMARK 921   NORMALIZED FREE ENERGY PREDICTED BY IDOCK:   15.86 KCAL/MOL
REMARK 922        TOTAL FREE ENERGY PREDICTED BY IDOCK:   27.11 KCAL/MOL
REMARK 923 INTER-LIGAND FREE ENERGY PREDICTED BY IDOCK:   11.13 KCAL/MOL
REMARK 924 INTRA-LIGAND FREE ENERGY PREDICTED BY IDOCK:   15.98 KCAL/MOL
REMARK 927      BINDING AFFINITY PREDICTED BY RF-SCORE:    0.00 PKD
ROOT
HETATM    1  C   UNL     1     -12.629  17.608  68.604  1.00  0.00     5.474 C  
HETATM    2  C   UNL     1     -12.881  16.567  67.525  1.00  0.00     3.884 C  
ENDROOT
BRANCH   2   3
HETATM    3  C   UNL     1     -11.587  15.872  67.119  1.00  0.00     0.291 C  
BRANCH   3   4
HETATM    4  C   UNL     1     -11.622  14.385  67.469  1.00  0.00    -0.398 C  
BRANCH   4   5
HETATM    5  C   UNL     1     -11.268  14.183  68.935  1.00  0.00    -0.294 C  
BRANCH   5   6
HETATM    6  C   UNL     1     -11.207  12.704  69.317  1.00  0.00    -0.255 C  
BRANCH   6   7
HETATM    7  C   UNL     1     -10.001  12.069  68.632  1.00  0.00    -0.151 C  
BRANCH   7   8
HETATM    8  C   UNL     1      -8.690  12.752  69.010  1.00  0.00     0.507 C  
BRANCH   8   9
HETATM    9  N   UNL     1      -8.820  14.300  69.103  1.00  0.00     0.070 N  
HETATM   10  C   UNL     1      -7.981  14.966  68.012  1.00  0.00    -0.129 C  
HETATM   11  C   UNL     1     -10.285  14.714  68.956  1.00  0.00    -0.220 C  
BRANCH   9  12
HETATM   12  C   UNL     1      -8.289  14.698  70.509  1.00  0.00     1.782 C  
BRANCH  12  13
HETATM   13  C   UNL     1      -6.831  15.145  70.485  1.00  0.00     0.283 C  
BRANCH  13  14
HETATM   14  C   UNL     1      -6.674  16.602  70.054  1.00  0.00     0.327 C  
BRANCH  14  15
HETATM   15  C   UNL     1      -5.941  16.641  68.714  1.00  0.00    -0.141 C  
BRANCH  15  16
HETATM   16  C   UNL     1      -5.491  18.048  68.345  1.00  0.00    -0.161 C  
BRANCH  16  17
HETATM   17  C   UNL     1      -5.209  18.860  69.608  1.00  0.00    -0.193 C  
BRANCH  17  18
HETATM   18  C   UNL     1      -6.463  19.009  70.462  1.00  0.00     0.321 C  
HETATM   19  C   UNL     1      -7.535  19.798  69.728  1.00  0.00     0.133 C  
ENDBRANCH  17  18
ENDBRANCH  16  17
ENDBRANCH  15  16
ENDBRANCH  14  15
ENDBRANCH  13  14
ENDBRANCH  12  13
ENDBRANCH   9  12
ENDBRANCH   8   9
ENDBRANCH   7   8
ENDBRANCH   6   7
ENDBRANCH   5   6
ENDBRANCH   4   5
ENDBRANCH   3   4
ENDBRANCH   2   3
TORSDOF 14
ENDMDL
