MODEL        1
REMARK 921   NORMALIZED FREE ENERGY PREDICTED BY IDOCK:  -10.34 KCAL/MOL
REMARK 922        TOTAL FREE ENERGY PREDICTED BY IDOCK:  -16.50 KCAL/MOL
REMARK 923 INTER-LIGAND FREE ENERGY PREDICTED BY IDOCK:  -14.57 KCAL/MOL
REMARK 924 INTRA-LIGAND FREE ENERGY PREDICTED BY IDOCK:   -1.93 KCAL/MOL
REMARK 927      BINDING AFFINITY PREDICTED BY RF-SCORE:    0.00 PKD
ROOT
HETATM    1  C   UNL     1      -5.732  21.075  67.525  1.00  0.00    -0.286 C  
HETATM    2  O   UNL     1      -7.080  21.118  67.064  1.00  0.00    -0.380 OA 
ENDROOT
BRANCH   2   3
HETATM    3  C   UNL     1      -7.629  19.902  66.750  1.00  0.00    -0.270 A  
HETATM    4  C   UNL     1      -9.021  19.864  66.712  1.00  0.00    -0.360 A  
HETATM    5  C   UNL     1      -9.708  18.686  66.427  1.00  0.00    -0.363 A  
HETATM    6  O   UNL     1      -9.752  20.991  66.979  1.00  0.00    -0.671 OA 
HETATM    7  C   UNL     1      -9.012  17.493  66.142  1.00  0.00    -0.156 A  
HETATM    8  H   UNL     1     -10.701  20.965  66.953  1.00  0.00     0.000 HD 
HETATM    9  C   UNL     1      -7.610  17.546  66.156  1.00  0.00    -0.320 A  
HETATM   10  C   UNL     1      -6.923  18.739  66.452  1.00  0.00    -0.249 A  
BRANCH   7  11
HETATM   11  C   UNL     1      -9.740  16.226  65.859  1.00  0.00    -0.321 C  
HETATM   12  C   UNL     1     -10.801  16.228  65.038  1.00  0.00    -0.337 C  
HETATM   13  C   UNL     1     -11.567  14.996  64.844  1.00  0.00    -0.374 C  
HETATM   14  O   UNL     1     -12.543  14.966  64.110  1.00  0.00    -0.785 OA 
HETATM   15  C   UNL     1     -11.125  13.811  65.576  1.00  0.00    -0.300 A  
HETATM   16  C   UNL     1     -11.844  12.621  65.508  1.00  0.00    -0.431 A  
HETATM   17  C   UNL     1     -11.394  11.481  66.164  1.00  0.00    -0.200 A  
HETATM   18  O   UNL     1     -13.000  12.485  64.789  1.00  0.00    -0.827 OA 
HETATM   19  C   UNL     1     -10.205  11.511  66.886  1.00  0.00    -0.217 A  
HETATM   20  H   UNL     1     -13.490  11.673  64.742  1.00  0.00     0.000 HD 
HETATM   21  C   UNL     1      -9.490  12.728  66.976  1.00  0.00    -0.233 A  
HETATM   22  C   UNL     1      -9.964  13.891  66.341  1.00  0.00    -0.297 A  
HETATM   23  O   UNL     1      -9.253  15.072  66.489  1.00  0.00    -0.256 OA 
BRANCH  19  24
HETATM   24  O   UNL     1      -9.609  10.411  67.441  1.00  0.00    -0.152 OA 
BRANCH  24  25
HETATM   25  C   UNL     1     -10.283   9.618  68.457  1.00  0.00    -0.193 C  
HETATM   26  O   UNL     1     -10.975  10.376  69.462  1.00  0.00    -0.227 OA 
HETATM   27  C   UNL     1     -11.643   9.607  70.469  1.00  0.00    -0.272 C  
HETATM   28  H   UNL     1      -8.598   6.360  70.177  1.00  0.00     0.000 HD 
HETATM   29  C   UNL     1     -10.651   8.641  71.148  1.00  0.00    -0.228 C  
HETATM   30  O   UNL     1      -8.817   7.700  67.985  1.00  0.00    -0.128 OA 
HETATM   31  C   UNL     1      -9.975   7.745  70.128  1.00  0.00    -0.186 C  
HETATM   32  O   UNL     1     -11.214   7.764  72.139  1.00  0.00    -0.261 OA 
HETATM   33  H   UNL     1     -10.603   7.170  72.557  1.00  0.00     0.000 HD 
HETATM   34  H   UNL     1      -8.213   7.056  68.336  1.00  0.00     0.000 HD 
HETATM   35  O   UNL     1      -9.021   6.921  70.817  1.00  0.00    -0.149 OA 
HETATM   36  C   UNL     1      -9.298   8.567  69.031  1.00  0.00    -0.146 C  
BRANCH  27  37
HETATM   37  C   UNL     1     -12.161  10.501  71.616  1.00  0.00    -0.195 C  
BRANCH  37  38
HETATM   38  O   UNL     1     -13.205  11.422  71.329  1.00  0.00    -0.264 OA 
BRANCH  38  39
HETATM   39  C   UNL     1     -12.792  12.777  71.657  1.00  0.00    -0.261 C  
HETATM   40  C   UNL     1     -13.549  14.758  72.855  1.00  0.00    -0.376 C  
HETATM   41  O   UNL     1     -13.788  13.398  72.476  1.00  0.00    -0.668 OA 
HETATM   42  C   UNL     1     -13.232  15.662  71.649  1.00  0.00    -0.472 C  
HETATM   43  C   UNL     1     -12.520  14.845  73.976  1.00  0.00    -0.516 C  
HETATM   44  O   UNL     1     -14.402  15.793  70.823  1.00  0.00    -0.657 OA 
HETATM   45  C   UNL     1     -12.117  15.080  70.780  1.00  0.00    -0.322 C  
HETATM   46  O   UNL     1     -10.838  15.187  71.414  1.00  0.00    -0.538 OA 
HETATM   47  C   UNL     1     -12.451  13.632  70.398  1.00  0.00    -0.294 C  
HETATM   48  H   UNL     1     -14.206  16.350  70.079  1.00  0.00     0.000 HD 
HETATM   49  H   UNL     1     -10.145  14.825  70.874  1.00  0.00     0.000 HD 
HETATM   50  O   UNL     1     -11.370  13.043  69.659  1.00  0.00    -0.437 OA 
HETATM   51  H   UNL     1     -11.162  13.563  68.892  1.00  0.00     0.000 HD 
ENDBRANCH  38  39
ENDBRANCH  37  38
ENDBRANCH  27  37
ENDBRANCH  24  25
ENDBRANCH  19  24
ENDBRANCH   7  11
ENDBRANCH   2   3
TORSDOF 7
ENDMDL
MODEL        2
REMARK 921   NORMALIZED FREE ENERGY PREDICTED BY IDOCK:   -9.79 KCAL/MOL
REMARK 922        TOTAL FREE ENERGY PREDICTED BY IDOCK:  -15.73 KCAL/MOL
REMARK 923 INTER-LIGAND FREE ENERGY PREDICTED BY IDOCK:  -13.99 KCAL/MOL
REMARK 924 INTRA-LIGAND FREE ENERGY PREDICTED BY IDOCK:   -1.75 KCAL/MOL
REMARK 927      BINDING AFFINITY PREDICTED BY RF-SCORE:    0.00 PKD
ROOT
HETATM    1  C   UNL     1     -11.419   2.028  73.755  1.00  0.00    -0.178 C  
HETATM    2  O   UNL     1     -10.529   3.139  73.806  1.00  0.00    -0.133 OA 
ENDROOT
BRANCH   2   3
HETATM    3  C   UNL     1     -10.321   3.778  72.611  1.00  0.00    -0.151 A  
HETATM    4  C   UNL     1     -10.774   5.094  72.547  1.00  0.00    -0.229 A  
HETATM    5  C   UNL     1     -10.646   5.851  71.384  1.00  0.00    -0.309 A  
HETATM    6  O   UNL     1     -11.380   5.671  73.631  1.00  0.00    -0.427 OA 
HETATM    7  C   UNL     1     -10.030   5.314  70.236  1.00  0.00    -0.310 A  
HETATM    8  H   UNL     1     -11.689   6.568  73.588  1.00  0.00     0.000 HD 
HETATM    9  C   UNL     1      -9.553   3.996  70.316  1.00  0.00    -0.271 A  
HETATM   10  C   UNL     1      -9.692   3.236  71.493  1.00  0.00    -0.233 A  
BRANCH   7  11
HETATM   11  C   UNL     1      -9.910   6.108  68.983  1.00  0.00    -0.141 C  
HETATM   12  C   UNL     1      -9.283   5.591  67.915  1.00  0.00    -0.112 C  
HETATM   13  C   UNL     1      -9.087   6.416  66.722  1.00  0.00    -0.140 C  
HETATM   14  O   UNL     1      -8.513   5.978  65.737  1.00  0.00    -0.135 OA 
HETATM   15  C   UNL     1      -9.589   7.788  66.768  1.00  0.00    -0.274 A  
HETATM   16  C   UNL     1      -9.373   8.661  65.706  1.00  0.00    -0.158 A  
HETATM   17  C   UNL     1      -9.895   9.949  65.728  1.00  0.00    -0.356 A  
HETATM   18  O   UNL     1      -8.671   8.316  64.584  1.00  0.00    -0.395 OA 
HETATM   19  C   UNL     1     -10.658  10.377  66.811  1.00  0.00    -0.205 A  
HETATM   20  H   UNL     1      -8.524   8.913  63.859  1.00  0.00     0.000 HD 
HETATM   21  C   UNL     1     -10.855   9.497  67.900  1.00  0.00    -0.240 A  
HETATM   22  C   UNL     1     -10.296   8.205  67.892  1.00  0.00    -0.220 A  
HETATM   23  O   UNL     1     -10.479   7.389  68.999  1.00  0.00    -0.207 OA 
BRANCH  19  24
HETATM   24  O   UNL     1     -11.333  11.567  66.860  1.00  0.00    -0.347 OA 
BRANCH  24  25
HETATM   25  C   UNL     1     -10.991  12.666  65.970  1.00  0.00    -0.282 C  
HETATM   26  O   UNL     1     -10.096  13.644  66.523  1.00  0.00    -0.272 OA 
HETATM   27  C   UNL     1      -9.753  14.731  65.658  1.00  0.00    -0.278 C  
HETATM   28  H   UNL     1     -13.728  14.539  63.641  1.00  0.00     0.000 HD 
HETATM   29  C   UNL     1     -11.029  15.434  65.150  1.00  0.00    -0.418 C  
HETATM   30  O   UNL     1     -13.023  12.268  64.640  1.00  0.00    -0.741 OA 
HETATM   31  C   UNL     1     -11.956  14.451  64.460  1.00  0.00    -0.472 C  
HETATM   32  O   UNL     1     -10.820  16.507  64.218  1.00  0.00    -1.050 OA 
HETATM   33  H   UNL     1     -11.606  16.940  63.906  1.00  0.00     0.000 HD 
HETATM   34  H   UNL     1     -13.817  12.638  64.274  1.00  0.00     0.000 HD 
HETATM   35  O   UNL     1     -13.147  15.154  64.074  1.00  0.00    -0.336 OA 
HETATM   36  C   UNL     1     -12.289  13.270  65.372  1.00  0.00    -0.479 C  
BRANCH  27  37
HETATM   37  C   UNL     1      -8.976  15.833  66.410  1.00  0.00    -0.331 C  
BRANCH  37  38
HETATM   38  O   UNL     1      -8.583  16.990  65.683  1.00  0.00    -0.456 OA 
BRANCH  38  39
HETATM   39  C   UNL     1      -8.683  18.175  66.521  1.00  0.00    -0.268 C  
HETATM   40  C   UNL     1      -8.174  18.962  68.768  1.00  0.00    -0.312 C  
HETATM   41  O   UNL     1      -8.117  17.904  67.807  1.00  0.00    -0.224 OA 
HETATM   42  C   UNL     1      -9.594  19.535  68.936  1.00  0.00    -0.395 C  
HETATM   43  C   UNL     1      -7.114  20.021  68.485  1.00  0.00    -0.309 C  
HETATM   44  O   UNL     1     -10.443  18.547  69.544  1.00  0.00    -0.310 OA 
HETATM   45  C   UNL     1     -10.216  19.915  67.592  1.00  0.00    -0.425 C  
HETATM   46  O   UNL     1      -9.621  21.095  67.045  1.00  0.00    -0.664 OA 
HETATM   47  C   UNL     1     -10.138  18.728  66.624  1.00  0.00    -0.378 C  
HETATM   48  H   UNL     1     -11.319  18.900  69.648  1.00  0.00     0.000 HD 
HETATM   49  H   UNL     1     -10.007  21.331  66.210  1.00  0.00     0.000 HD 
HETATM   50  O   UNL     1     -10.635  19.099  65.329  1.00  0.00    -0.414 OA 
HETATM   51  H   UNL     1     -11.522  19.435  65.392  1.00  0.00     0.000 HD 
ENDBRANCH  38  39
ENDBRANCH  37  38
ENDBRANCH  27  37
ENDBRANCH  24  25
ENDBRANCH  19  24
ENDBRANCH   7  11
ENDBRANCH   2   3
TORSDOF 7
ENDMDL
MODEL        3
REMARK 921   NORMALIZED FREE ENERGY PREDICTED BY IDOCK:   -9.72 KCAL/MOL
REMARK 922        TOTAL FREE ENERGY PREDICTED BY IDOCK:  -15.63 KCAL/MOL
REMARK 923 INTER-LIGAND FREE ENERGY PREDICTED BY IDOCK:  -13.55 KCAL/MOL
REMARK 924 INTRA-LIGAND FREE ENERGY PREDICTED BY IDOCK:   -2.09 KCAL/MOL
REMARK 927      BINDING AFFINITY PREDICTED BY RF-SCORE:    0.00 PKD
ROOT
HETATM    1  C   UNL     1      -5.882  20.137  70.086  1.00  0.00    -0.333 C  
HETATM    2  O   UNL     1      -7.287  20.197  69.857  1.00  0.00    -0.009 OA 
ENDROOT
BRANCH   2   3
HETATM    3  C   UNL     1      -7.776  19.266  68.977  1.00  0.00    -0.302 A  
HETATM    4  C   UNL     1      -9.162  19.133  68.954  1.00  0.00    -0.318 A  
HETATM    5  C   UNL     1      -9.790  18.208  68.122  1.00  0.00    -0.350 A  
HETATM    6  O   UNL     1      -9.946  19.900  69.774  1.00  0.00    -0.377 OA 
HETATM    7  C   UNL     1      -9.038  17.390  67.253  1.00  0.00    -0.239 A  
HETATM    8  H   UNL     1     -10.891  19.809  69.759  1.00  0.00     0.000 HD 
HETATM    9  C   UNL     1      -7.644  17.549  67.262  1.00  0.00    -0.217 A  
HETATM   10  C   UNL     1      -7.017  18.481  68.111  1.00  0.00    -0.246 A  
BRANCH   7  11
HETATM   11  C   UNL     1      -9.700  16.384  66.377  1.00  0.00    -0.287 C  
HETATM   12  C   UNL     1     -10.500  16.785  65.377  1.00  0.00    -0.212 C  
HETATM   13  C   UNL     1     -11.221  15.788  64.584  1.00  0.00    -0.363 C  
HETATM   14  O   UNL     1     -11.964  16.120  63.673  1.00  0.00    -0.826 OA 
HETATM   15  C   UNL     1     -11.028  14.384  64.941  1.00  0.00    -0.416 A  
HETATM   16  C   UNL     1     -11.737  13.380  64.288  1.00  0.00    -0.412 A  
HETATM   17  C   UNL     1     -11.515  12.041  64.592  1.00  0.00    -0.371 A  
HETATM   18  O   UNL     1     -12.660  13.629  63.310  1.00  0.00    -0.939 OA 
HETATM   19  C   UNL     1     -10.565  11.687  65.546  1.00  0.00    -0.279 A  
HETATM   20  H   UNL     1     -13.143  12.943  62.864  1.00  0.00     0.000 HD 
HETATM   21  C   UNL     1      -9.865  12.711  66.226  1.00  0.00    -0.266 A  
HETATM   22  C   UNL     1     -10.115  14.067  65.943  1.00  0.00    -0.321 A  
HETATM   23  O   UNL     1      -9.435  15.038  66.662  1.00  0.00    -0.236 OA 
BRANCH  19  24
HETATM   24  O   UNL     1     -10.174  10.403  65.808  1.00  0.00    -0.260 OA 
BRANCH  24  25
HETATM   25  C   UNL     1     -10.681   9.679  66.963  1.00  0.00    -0.155 C  
HETATM   26  O   UNL     1     -10.920  10.483  68.130  1.00  0.00    -0.235 OA 
HETATM   27  C   UNL     1     -11.419   9.782  69.274  1.00  0.00     0.072 C  
HETATM   28  H   UNL     1      -9.232   6.073  68.108  1.00  0.00     0.000 HD 
HETATM   29  C   UNL     1     -10.478   8.615  69.639  1.00  0.00    -0.220 C  
HETATM   30  O   UNL     1      -9.784   7.566  66.079  1.00  0.00    -0.427 OA 
HETATM   31  C   UNL     1     -10.286   7.680  68.460  1.00  0.00    -0.199 C  
HETATM   32  O   UNL     1     -10.904   7.792  70.737  1.00  0.00    -0.230 OA 
HETATM   33  H   UNL     1     -10.325   7.074  70.961  1.00  0.00     0.000 HD 
HETATM   34  H   UNL     1      -9.240   6.805  66.241  1.00  0.00     0.000 HD 
HETATM   35  O   UNL     1      -9.352   6.659  68.846  1.00  0.00    -0.130 OA 
HETATM   36  C   UNL     1      -9.792   8.437  67.227  1.00  0.00    -0.203 C  
BRANCH  27  37
HETATM   37  C   UNL     1     -11.429  10.680  70.531  1.00  0.00    -0.317 C  
BRANCH  37  38
HETATM   38  O   UNL     1     -12.679  11.180  70.986  1.00  0.00    -0.368 OA 
BRANCH  38  39
HETATM   39  C   UNL     1     -12.784  12.606  70.717  1.00  0.00    -0.130 C  
HETATM   40  C   UNL     1     -11.536  14.453  69.737  1.00  0.00    -0.298 C  
HETATM   41  O   UNL     1     -11.607  13.056  70.039  1.00  0.00    -0.235 OA 
HETATM   42  C   UNL     1     -11.795  15.340  70.970  1.00  0.00    -0.345 C  
HETATM   43  C   UNL     1     -12.407  14.802  68.535  1.00  0.00     0.023 C  
HETATM   44  O   UNL     1     -10.714  15.191  71.905  1.00  0.00    -0.360 OA 
HETATM   45  C   UNL     1     -13.086  14.949  71.689  1.00  0.00    -0.341 C  
HETATM   46  O   UNL     1     -14.246  15.343  70.951  1.00  0.00    -0.833 OA 
HETATM   47  C   UNL     1     -13.081  13.446  71.997  1.00  0.00    -0.377 C  
HETATM   48  H   UNL     1     -10.873  15.738  72.666  1.00  0.00     0.000 HD 
HETATM   49  H   UNL     1     -15.049  15.100  71.398  1.00  0.00     0.000 HD 
HETATM   50  O   UNL     1     -14.326  13.049  72.591  1.00  0.00    -0.657 OA 
HETATM   51  H   UNL     1     -14.507  13.560  73.371  1.00  0.00     0.000 HD 
ENDBRANCH  38  39
ENDBRANCH  37  38
ENDBRANCH  27  37
ENDBRANCH  24  25
ENDBRANCH  19  24
ENDBRANCH   7  11
ENDBRANCH   2   3
TORSDOF 7
ENDMDL
MODEL        4
REMARK 921   NORMALIZED FREE ENERGY PREDICTED BY IDOCK:   -9.65 KCAL/MOL
REMARK 922        TOTAL FREE ENERGY PREDICTED BY IDOCK:  -15.53 KCAL/MOL
REMARK 923 INTER-LIGAND FREE ENERGY PREDICTED BY IDOCK:  -13.63 KCAL/MOL
REMARK 924 INTRA-LIGAND FREE ENERGY PREDICTED BY IDOCK:   -1.91 KCAL/MOL
REMARK 927      BINDING AFFINITY PREDICTED BY RF-SCORE:    0.00 PKD
ROOT
HETATM    1  C   UNL     1     -10.080  20.264  69.340  1.00  0.00     0.138 C  
HETATM    2  O   UNL     1     -10.477  19.948  68.008  1.00  0.00    -0.418 OA 
ENDROOT
BRANCH   2   3
HETATM    3  C   UNL     1     -10.347  18.629  67.657  1.00  0.00    -0.412 A  
HETATM    4  C   UNL     1     -10.417  18.363  66.292  1.00  0.00    -0.393 A  
HETATM    5  C   UNL     1     -10.322  17.063  65.799  1.00  0.00    -0.275 A  
HETATM    6  O   UNL     1     -10.606  19.381  65.395  1.00  0.00    -0.475 OA 
HETATM    7  C   UNL     1     -10.125  15.972  66.670  1.00  0.00    -0.287 A  
HETATM    8  H   UNL     1     -10.654  19.200  64.465  1.00  0.00     0.000 HD 
HETATM    9  C   UNL     1     -10.029  16.251  68.043  1.00  0.00    -0.240 A  
HETATM   10  C   UNL     1     -10.133  17.567  68.533  1.00  0.00    -0.363 A  
BRANCH   7  11
HETATM   11  C   UNL     1     -10.045  14.578  66.154  1.00  0.00    -0.305 C  
HETATM   12  C   UNL     1     -10.184  14.337  64.841  1.00  0.00    -0.361 C  
HETATM   13  C   UNL     1     -10.200  12.956  64.357  1.00  0.00    -0.318 C  
HETATM   14  O   UNL     1     -10.334  12.703  63.170  1.00  0.00    -0.205 OA 
HETATM   15  C   UNL     1     -10.069  11.897  65.355  1.00  0.00    -0.285 A  
HETATM   16  C   UNL     1     -10.153  10.557  64.987  1.00  0.00    -0.321 A  
HETATM   17  C   UNL     1      -9.976   9.549  65.928  1.00  0.00    -0.342 A  
HETATM   18  O   UNL     1     -10.386  10.146  63.703  1.00  0.00    -0.413 OA 
HETATM   19  C   UNL     1      -9.694   9.869  67.253  1.00  0.00    -0.171 A  
HETATM   20  H   UNL     1     -10.443   9.232  63.452  1.00  0.00     0.000 HD 
HETATM   21  C   UNL     1      -9.634  11.231  67.629  1.00  0.00    -0.180 A  
HETATM   22  C   UNL     1      -9.849  12.251  66.683  1.00  0.00    -0.220 A  
HETATM   23  O   UNL     1      -9.822  13.572  67.104  1.00  0.00    -0.235 OA 
BRANCH  19  24
HETATM   24  O   UNL     1      -9.362   8.955  68.216  1.00  0.00    -0.142 OA 
BRANCH  24  25
HETATM   25  C   UNL     1     -10.337   8.499  69.193  1.00  0.00    -0.217 C  
HETATM   26  O   UNL     1     -10.923   9.534  69.999  1.00  0.00    -0.234 OA 
HETATM   27  C   UNL     1     -11.885   9.098  70.965  1.00  0.00    -0.292 C  
HETATM   28  H   UNL     1      -9.785   5.195  71.472  1.00  0.00     0.000 HD 
HETATM   29  C   UNL     1     -11.270   8.020  71.883  1.00  0.00    -0.280 C  
HETATM   30  O   UNL     1      -9.379   6.234  69.147  1.00  0.00    -0.131 OA 
HETATM   31  C   UNL     1     -10.734   6.855  71.073  1.00  0.00    -0.231 C  
HETATM   32  O   UNL     1     -12.158   7.453  72.860  1.00  0.00    -0.542 OA 
HETATM   33  H   UNL     1     -11.780   6.790  73.424  1.00  0.00     0.000 HD 
HETATM   34  H   UNL     1      -9.012   5.517  69.649  1.00  0.00     0.000 HD 
HETATM   35  O   UNL     1     -10.120   5.925  71.979  1.00  0.00    -0.184 OA 
HETATM   36  C   UNL     1      -9.739   7.327  70.014  1.00  0.00    -0.175 C  
BRANCH  27  37
HETATM   37  C   UNL     1     -12.286  10.240  71.924  1.00  0.00    -0.148 C  
BRANCH  37  38
HETATM   38  O   UNL     1     -13.259  11.176  71.480  1.00  0.00    -0.388 OA 
BRANCH  38  39
HETATM   39  C   UNL     1     -12.797  12.536  71.707  1.00  0.00    -0.242 C  
HETATM   40  C   UNL     1     -13.446  14.604  72.817  1.00  0.00    -0.473 C  
HETATM   41  O   UNL     1     -13.736  13.232  72.533  1.00  0.00    -0.621 OA 
HETATM   42  C   UNL     1     -13.164  15.427  71.545  1.00  0.00    -0.490 C  
HETATM   43  C   UNL     1     -12.361  14.729  73.882  1.00  0.00    -0.424 C  
HETATM   44  O   UNL     1     -14.370  15.541  70.770  1.00  0.00    -0.844 OA 
HETATM   45  C   UNL     1     -12.108  14.763  70.662  1.00  0.00    -0.310 C  
HETATM   46  O   UNL     1     -10.798  14.872  71.227  1.00  0.00    -0.552 OA 
HETATM   47  C   UNL     1     -12.496  13.305  70.384  1.00  0.00    -0.225 C  
HETATM   48  H   UNL     1     -14.196  16.048  69.985  1.00  0.00     0.000 HD 
HETATM   49  H   UNL     1     -10.141  14.460  70.678  1.00  0.00     0.000 HD 
HETATM   50  O   UNL     1     -11.468  12.644  69.632  1.00  0.00    -0.403 OA 
HETATM   51  H   UNL     1     -11.285  13.112  68.826  1.00  0.00     0.000 HD 
ENDBRANCH  38  39
ENDBRANCH  37  38
ENDBRANCH  27  37
ENDBRANCH  24  25
ENDBRANCH  19  24
ENDBRANCH   7  11
ENDBRANCH   2   3
TORSDOF 7
ENDMDL
MODEL        5
REMARK 921   NORMALIZED FREE ENERGY PREDICTED BY IDOCK:   -9.42 KCAL/MOL
REMARK 922        TOTAL FREE ENERGY PREDICTED BY IDOCK:  -15.20 KCAL/MOL
REMARK 923 INTER-LIGAND FREE ENERGY PREDICTED BY IDOCK:  -13.11 KCAL/MOL
REMARK 924 INTRA-LIGAND FREE ENERGY PREDICTED BY IDOCK:   -2.09 KCAL/MOL
REMARK 927      BINDING AFFINITY PREDICTED BY RF-SCORE:    0.00 PKD
ROOT
HETATM    1  C   UNL     1     -12.502  15.427  74.193  1.00  0.00    -0.642 C  
HETATM    2  O   UNL     1     -13.476  14.837  73.336  1.00  0.00    -0.513 OA 
ENDROOT
BRANCH   2   3
HETATM    3  C   UNL     1     -13.047  14.571  72.061  1.00  0.00    -0.344 A  
HETATM    4  C   UNL     1     -13.120  13.236  71.670  1.00  0.00    -0.363 A  
HETATM    5  C   UNL     1     -12.695  12.824  70.409  1.00  0.00     0.003 A  
HETATM    6  O   UNL     1     -13.595  12.286  72.535  1.00  0.00    -0.598 OA 
HETATM    7  C   UNL     1     -12.198  13.754  69.473  1.00  0.00    -0.344 A  
HETATM    8  H   UNL     1     -13.645  11.376  72.269  1.00  0.00     0.000 HD 
HETATM    9  C   UNL     1     -12.152  15.101  69.865  1.00  0.00    -0.373 A  
HETATM   10  C   UNL     1     -12.577  15.508  71.144  1.00  0.00    -0.509 A  
BRANCH   7  11
HETATM   11  C   UNL     1     -11.722  13.318  68.132  1.00  0.00    -0.362 C  
HETATM   12  C   UNL     1     -12.004  14.054  67.045  1.00  0.00    -0.472 C  
HETATM   13  C   UNL     1     -11.615  13.567  65.721  1.00  0.00    -0.330 C  
HETATM   14  O   UNL     1     -11.864  14.208  64.712  1.00  0.00    -0.373 OA 
HETATM   15  C   UNL     1     -10.934  12.275  65.658  1.00  0.00    -0.338 A  
HETATM   16  C   UNL     1     -10.601  11.705  64.432  1.00  0.00    -0.323 A  
HETATM   17  C   UNL     1      -9.908  10.501  64.374  1.00  0.00    -0.405 A  
HETATM   18  O   UNL     1     -10.903  12.284  63.230  1.00  0.00    -0.592 OA 
HETATM   19  C   UNL     1      -9.521   9.858  65.546  1.00  0.00    -0.252 A  
HETATM   20  H   UNL     1     -10.675  11.895  62.394  1.00  0.00     0.000 HD 
HETATM   21  C   UNL     1      -9.883  10.426  66.790  1.00  0.00    -0.242 A  
HETATM   22  C   UNL     1     -10.616  11.627  66.848  1.00  0.00    -0.241 A  
HETATM   23  O   UNL     1     -10.985  12.127  68.087  1.00  0.00    -0.207 OA 
BRANCH  19  24
HETATM   24  O   UNL     1      -8.715   8.753  65.592  1.00  0.00    -0.163 OA 
BRANCH  24  25
HETATM   25  C   UNL     1      -9.269   7.420  65.769  1.00  0.00     0.119 C  
HETATM   26  O   UNL     1      -9.628   7.083  67.119  1.00  0.00    -0.136 OA 
HETATM   27  C   UNL     1     -10.174   5.773  67.307  1.00  0.00    -0.205 C  
HETATM   28  H   UNL     1      -7.736   4.143  63.945  1.00  0.00     0.000 HD 
HETATM   29  C   UNL     1      -9.208   4.706  66.751  1.00  0.00    -0.126 C  
HETATM   30  O   UNL     1      -8.212   6.664  63.680  1.00  0.00    -0.287 OA 
HETATM   31  C   UNL     1      -8.887   4.966  65.292  1.00  0.00    -0.152 C  
HETATM   32  O   UNL     1      -9.671   3.348  66.823  1.00  0.00    -0.391 OA 
HETATM   33  H   UNL     1      -9.076   2.692  66.482  1.00  0.00     0.000 HD 
HETATM   34  H   UNL     1      -7.645   6.027  63.263  1.00  0.00     0.000 HD 
HETATM   35  O   UNL     1      -7.936   3.981  64.859  1.00  0.00    -0.091 OA 
HETATM   36  C   UNL     1      -8.343   6.380  65.087  1.00  0.00    -0.109 C  
BRANCH  27  37
HETATM   37  C   UNL     1     -10.316   5.426  68.805  1.00  0.00    -0.170 C  
BRANCH  37  38
HETATM   38  O   UNL     1     -11.510   5.812  69.471  1.00  0.00    -0.141 OA 
BRANCH  38  39
HETATM   39  C   UNL     1     -11.269   6.970  70.317  1.00  0.00    -0.298 C  
HETATM   40  C   UNL     1      -9.603   7.909  71.825  1.00  0.00    -0.165 C  
HETATM   41  O   UNL     1      -9.978   6.861  70.925  1.00  0.00    -0.189 OA 
HETATM   42  C   UNL     1     -10.667   8.168  72.909  1.00  0.00    -0.247 C  
HETATM   43  C   UNL     1      -9.180   9.162  71.067  1.00  0.00    -0.321 C  
HETATM   44  O   UNL     1     -10.737   7.037  73.794  1.00  0.00    -0.488 OA 
HETATM   45  C   UNL     1     -12.056   8.369  72.305  1.00  0.00    -0.392 C  
HETATM   46  O   UNL     1     -12.172   9.635  71.647  1.00  0.00    -0.360 OA 
HETATM   47  C   UNL     1     -12.396   7.201  71.370  1.00  0.00    -0.377 C  
HETATM   48  H   UNL     1     -11.393   7.197  74.463  1.00  0.00     0.000 HD 
HETATM   49  H   UNL     1     -13.036   9.760  71.272  1.00  0.00     0.000 HD 
HETATM   50  O   UNL     1     -13.660   7.422  70.725  1.00  0.00    -0.603 OA 
HETATM   51  H   UNL     1     -14.346   7.562  71.367  1.00  0.00     0.000 HD 
ENDBRANCH  38  39
ENDBRANCH  37  38
ENDBRANCH  27  37
ENDBRANCH  24  25
ENDBRANCH  19  24
ENDBRANCH   7  11
ENDBRANCH   2   3
TORSDOF 7
ENDMDL
MODEL        6
REMARK 921   NORMALIZED FREE ENERGY PREDICTED BY IDOCK:   -9.24 KCAL/MOL
REMARK 922        TOTAL FREE ENERGY PREDICTED BY IDOCK:  -14.96 KCAL/MOL
REMARK 923 INTER-LIGAND FREE ENERGY PREDICTED BY IDOCK:  -12.91 KCAL/MOL
REMARK 924 INTRA-LIGAND FREE ENERGY PREDICTED BY IDOCK:   -2.05 KCAL/MOL
REMARK 927      BINDING AFFINITY PREDICTED BY RF-SCORE:    0.00 PKD
ROOT
HETATM    1  C   UNL     1     -12.454  15.987  73.885  1.00  0.00    -0.612 C  
HETATM    2  O   UNL     1     -13.073  14.850  73.291  1.00  0.00    -0.502 OA 
ENDROOT
BRANCH   2   3
HETATM    3  C   UNL     1     -12.738  14.619  71.981  1.00  0.00    -0.334 A  
HETATM    4  C   UNL     1     -12.971  13.325  71.521  1.00  0.00    -0.337 A  
HETATM    5  C   UNL     1     -12.654  12.950  70.217  1.00  0.00    -0.084 A  
HETATM    6  O   UNL     1     -13.499  12.378  72.356  1.00  0.00    -0.603 OA 
HETATM    7  C   UNL     1     -12.109  13.880  69.309  1.00  0.00    -0.383 A  
HETATM    8  H   UNL     1     -13.658  11.495  72.043  1.00  0.00     0.000 HD 
HETATM    9  C   UNL     1     -11.903  15.189  69.772  1.00  0.00    -0.364 A  
HETATM   10  C   UNL     1     -12.218  15.559  71.093  1.00  0.00    -0.451 A  
BRANCH   7  11
HETATM   11  C   UNL     1     -11.748  13.481  67.921  1.00  0.00    -0.357 C  
HETATM   12  C   UNL     1     -12.252  14.154  66.874  1.00  0.00    -0.400 C  
HETATM   13  C   UNL     1     -11.968  13.694  65.515  1.00  0.00    -0.384 C  
HETATM   14  O   UNL     1     -12.418  14.278  64.541  1.00  0.00    -0.607 OA 
HETATM   15  C   UNL     1     -11.141  12.497  65.373  1.00  0.00    -0.337 A  
HETATM   16  C   UNL     1     -10.890  11.949  64.118  1.00  0.00    -0.356 A  
HETATM   17  C   UNL     1     -10.061  10.841  63.980  1.00  0.00    -0.410 A  
HETATM   18  O   UNL     1     -11.407  12.461  62.960  1.00  0.00    -0.674 OA 
HETATM   19  C   UNL     1      -9.456  10.275  65.098  1.00  0.00    -0.252 A  
HETATM   20  H   UNL     1     -11.235  12.087  62.104  1.00  0.00     0.000 HD 
HETATM   21  C   UNL     1      -9.733  10.818  66.374  1.00  0.00    -0.241 A  
HETATM   22  C   UNL     1     -10.600  11.917  66.517  1.00  0.00    -0.243 A  
HETATM   23  O   UNL     1     -10.876  12.392  67.791  1.00  0.00    -0.213 OA 
BRANCH  19  24
HETATM   24  O   UNL     1      -8.516   9.282  65.049  1.00  0.00    -0.144 OA 
BRANCH  24  25
HETATM   25  C   UNL     1      -8.549   8.164  65.979  1.00  0.00    -0.147 C  
HETATM   26  O   UNL     1      -8.033   8.446  67.290  1.00  0.00    -0.103 OA 
HETATM   27  C   UNL     1      -8.059   7.353  68.215  1.00  0.00    -0.125 C  
HETATM   28  H   UNL     1      -7.502   4.395  64.922  1.00  0.00     0.000 HD 
HETATM   29  C   UNL     1      -7.319   6.135  67.624  1.00  0.00    -0.080 C  
HETATM   30  O   UNL     1      -8.635   6.565  64.111  1.00  0.00    -0.335 OA 
HETATM   31  C   UNL     1      -7.907   5.737  66.283  1.00  0.00    -0.101 C  
HETATM   32  O   UNL     1      -7.330   4.948  68.433  1.00  0.00    -0.064 OA 
HETATM   33  H   UNL     1      -6.874   4.198  68.069  1.00  0.00     0.000 HD 
HETATM   34  H   UNL     1      -8.247   5.801  63.701  1.00  0.00     0.000 HD 
HETATM   35  O   UNL     1      -7.133   4.645  65.762  1.00  0.00    -0.065 OA 
HETATM   36  C   UNL     1      -7.916   6.916  65.310  1.00  0.00    -0.127 C  
BRANCH  27  37
HETATM   37  C   UNL     1      -7.286   7.686  69.509  1.00  0.00    -0.080 C  
BRANCH  37  38
HETATM   38  O   UNL     1      -7.805   7.204  70.741  1.00  0.00    -0.093 OA 
BRANCH  38  39
HETATM   39  C   UNL     1      -9.231   7.473  70.832  1.00  0.00    -0.153 C  
HETATM   40  C   UNL     1     -10.831   8.862  72.034  1.00  0.00    -0.334 C  
HETATM   41  O   UNL     1      -9.465   8.506  71.795  1.00  0.00    -0.206 OA 
HETATM   42  C   UNL     1     -11.714   7.642  72.356  1.00  0.00    -0.317 C  
HETATM   43  C   UNL     1     -11.376   9.736  70.910  1.00  0.00    -0.439 C  
HETATM   44  O   UNL     1     -11.332   7.094  73.629  1.00  0.00    -0.507 OA 
HETATM   45  C   UNL     1     -11.559   6.537  71.312  1.00  0.00    -0.327 C  
HETATM   46  O   UNL     1     -12.191   6.881  70.075  1.00  0.00    -0.640 OA 
HETATM   47  C   UNL     1     -10.075   6.195  71.126  1.00  0.00    -0.190 C  
HETATM   48  H   UNL     1     -11.877   6.341  73.828  1.00  0.00     0.000 HD 
HETATM   49  H   UNL     1     -12.095   6.194  69.426  1.00  0.00     0.000 HD 
HETATM   50  O   UNL     1      -9.908   5.223  70.082  1.00  0.00    -0.184 OA 
HETATM   51  H   UNL     1     -10.422   4.444  70.261  1.00  0.00     0.000 HD 
ENDBRANCH  38  39
ENDBRANCH  37  38
ENDBRANCH  27  37
ENDBRANCH  24  25
ENDBRANCH  19  24
ENDBRANCH   7  11
ENDBRANCH   2   3
TORSDOF 7
ENDMDL
MODEL        7
REMARK 921   NORMALIZED FREE ENERGY PREDICTED BY IDOCK:   -9.22 KCAL/MOL
REMARK 922        TOTAL FREE ENERGY PREDICTED BY IDOCK:  -14.92 KCAL/MOL
REMARK 923 INTER-LIGAND FREE ENERGY PREDICTED BY IDOCK:  -12.61 KCAL/MOL
REMARK 924 INTRA-LIGAND FREE ENERGY PREDICTED BY IDOCK:   -2.31 KCAL/MOL
REMARK 927      BINDING AFFINITY PREDICTED BY RF-SCORE:    0.00 PKD
ROOT
HETATM    1  C   UNL     1     -12.471  15.624  74.055  1.00  0.00    -0.651 C  
HETATM    2  O   UNL     1     -13.273  14.687  73.342  1.00  0.00    -0.585 OA 
ENDROOT
BRANCH   2   3
HETATM    3  C   UNL     1     -12.915  14.488  72.033  1.00  0.00    -0.341 A  
HETATM    4  C   UNL     1     -12.992  13.172  71.583  1.00  0.00    -0.335 A  
HETATM    5  C   UNL     1     -12.636  12.828  70.281  1.00  0.00    -0.061 A  
HETATM    6  O   UNL     1     -13.402  12.174  72.427  1.00  0.00    -0.582 OA 
HETATM    7  C   UNL     1     -12.207  13.809  69.364  1.00  0.00    -0.325 A  
HETATM    8  H   UNL     1     -13.454  11.277  72.121  1.00  0.00     0.000 HD 
HETATM    9  C   UNL     1     -12.158  15.137  69.817  1.00  0.00    -0.354 A  
HETATM   10  C   UNL     1     -12.513  15.476  71.137  1.00  0.00    -0.491 A  
BRANCH   7  11
HETATM   11  C   UNL     1     -11.804  13.446  67.978  1.00  0.00    -0.357 C  
HETATM   12  C   UNL     1     -12.224  14.184  66.939  1.00  0.00    -0.400 C  
HETATM   13  C   UNL     1     -11.902  13.762  65.576  1.00  0.00    -0.363 C  
HETATM   14  O   UNL     1     -12.277  14.407  64.608  1.00  0.00    -0.444 OA 
HETATM   15  C   UNL     1     -11.131  12.531  65.421  1.00  0.00    -0.337 A  
HETATM   16  C   UNL     1     -10.851  12.019  64.158  1.00  0.00    -0.352 A  
HETATM   17  C   UNL     1     -10.074  10.875  64.010  1.00  0.00    -0.419 A  
HETATM   18  O   UNL     1     -11.288  12.602  63.000  1.00  0.00    -0.753 OA 
HETATM   19  C   UNL     1      -9.550  10.235  65.130  1.00  0.00    -0.277 A  
HETATM   20  H   UNL     1     -11.096  12.253  62.137  1.00  0.00     0.000 HD 
HETATM   21  C   UNL     1      -9.858  10.742  66.414  1.00  0.00    -0.254 A  
HETATM   22  C   UNL     1     -10.674  11.879  66.564  1.00  0.00    -0.258 A  
HETATM   23  O   UNL     1     -10.984  12.318  67.842  1.00  0.00    -0.206 OA 
BRANCH  19  24
HETATM   24  O   UNL     1      -8.661   9.196  65.081  1.00  0.00    -0.155 OA 
BRANCH  24  25
HETATM   25  C   UNL     1      -9.080   7.829  65.347  1.00  0.00     0.239 C  
HETATM   26  O   UNL     1      -9.932   7.664  66.492  1.00  0.00    -0.219 OA 
HETATM   27  C   UNL     1     -10.352   6.323  66.764  1.00  0.00    -0.221 C  
HETATM   28  H   UNL     1      -6.556   4.670  65.104  1.00  0.00     0.000 HD 
HETATM   29  C   UNL     1      -9.126   5.396  66.900  1.00  0.00    -0.114 C  
HETATM   30  O   UNL     1      -7.163   6.955  64.077  1.00  0.00    -0.058 OA 
HETATM   31  C   UNL     1      -8.253   5.460  65.661  1.00  0.00    -0.124 C  
HETATM   32  O   UNL     1      -9.417   4.005  67.112  1.00  0.00    -0.171 OA 
HETATM   33  H   UNL     1      -8.662   3.435  67.196  1.00  0.00     0.000 HD 
HETATM   34  H   UNL     1      -6.404   6.386  64.077  1.00  0.00     0.000 HD 
HETATM   35  O   UNL     1      -7.102   4.630  65.880  1.00  0.00    -0.071 OA 
HETATM   36  C   UNL     1      -7.840   6.898  65.347  1.00  0.00    -0.115 C  
BRANCH  27  37
HETATM   37  C   UNL     1     -11.070   6.218  68.127  1.00  0.00    -0.266 C  
BRANCH  37  38
HETATM   38  O   UNL     1     -10.321   5.757  69.244  1.00  0.00    -0.206 OA 
BRANCH  38  39
HETATM   39  C   UNL     1     -10.329   6.751  70.306  1.00  0.00    -0.198 C  
HETATM   40  C   UNL     1     -11.753   7.636  72.072  1.00  0.00    -0.298 C  
HETATM   41  O   UNL     1     -11.570   6.688  71.016  1.00  0.00    -0.309 OA 
HETATM   42  C   UNL     1     -11.486   9.085  71.622  1.00  0.00    -0.361 C  
HETATM   43  C   UNL     1     -10.977   7.227  73.319  1.00  0.00    -0.355 C  
HETATM   44  O   UNL     1     -12.501   9.493  70.688  1.00  0.00    -0.478 OA 
HETATM   45  C   UNL     1     -10.134   9.222  70.924  1.00  0.00    -0.302 C  
HETATM   46  O   UNL     1      -9.046   9.130  71.849  1.00  0.00    -0.354 OA 
HETATM   47  C   UNL     1     -10.018   8.191  69.794  1.00  0.00    -0.191 C  
HETATM   48  H   UNL     1     -12.336  10.387  70.411  1.00  0.00     0.000 HD 
HETATM   49  H   UNL     1      -8.205   9.215  71.416  1.00  0.00     0.000 HD 
HETATM   50  O   UNL     1      -8.718   8.248  69.189  1.00  0.00    -0.140 OA 
HETATM   51  H   UNL     1      -8.528   9.126  68.877  1.00  0.00     0.000 HD 
ENDBRANCH  38  39
ENDBRANCH  37  38
ENDBRANCH  27  37
ENDBRANCH  24  25
ENDBRANCH  19  24
ENDBRANCH   7  11
ENDBRANCH   2   3
TORSDOF 7
ENDMDL
MODEL        8
REMARK 921   NORMALIZED FREE ENERGY PREDICTED BY IDOCK:   -9.16 KCAL/MOL
REMARK 922        TOTAL FREE ENERGY PREDICTED BY IDOCK:  -14.83 KCAL/MOL
REMARK 923 INTER-LIGAND FREE ENERGY PREDICTED BY IDOCK:  -12.63 KCAL/MOL
REMARK 924 INTRA-LIGAND FREE ENERGY PREDICTED BY IDOCK:   -2.20 KCAL/MOL
REMARK 927      BINDING AFFINITY PREDICTED BY RF-SCORE:    0.00 PKD
ROOT
HETATM    1  C   UNL     1      -8.349   3.027  68.424  1.00  0.00    -0.069 C  
HETATM    2  O   UNL     1      -9.520   3.626  67.875  1.00  0.00    -0.183 OA 
ENDROOT
BRANCH   2   3
HETATM    3  C   UNL     1      -9.964   4.748  68.527  1.00  0.00    -0.089 A  
HETATM    4  C   UNL     1     -10.489   5.747  67.712  1.00  0.00    -0.226 A  
HETATM    5  C   UNL     1     -10.955   6.948  68.243  1.00  0.00    -0.208 A  
HETATM    6  O   UNL     1     -10.538   5.579  66.354  1.00  0.00    -0.354 OA 
HETATM    7  C   UNL     1     -10.932   7.181  69.634  1.00  0.00    -0.236 A  
HETATM    8  H   UNL     1     -10.896   6.260  65.797  1.00  0.00     0.000 HD 
HETATM    9  C   UNL     1     -10.426   6.158  70.451  1.00  0.00    -0.288 A  
HETATM   10  C   UNL     1      -9.951   4.950  69.905  1.00  0.00    -0.317 A  
BRANCH   7  11
HETATM   11  C   UNL     1     -11.407   8.470  70.207  1.00  0.00    -0.130 C  
HETATM   12  C   UNL     1     -12.270   8.472  71.235  1.00  0.00    -0.310 C  
HETATM   13  C   UNL     1     -12.805   9.742  71.727  1.00  0.00    -0.434 C  
HETATM   14  O   UNL     1     -13.598   9.778  72.656  1.00  0.00    -0.272 OA 
HETATM   15  C   UNL     1     -12.365  10.960  71.050  1.00  0.00    -0.498 A  
HETATM   16  C   UNL     1     -12.887  12.200  71.405  1.00  0.00    -0.276 A  
HETATM   17  C   UNL     1     -12.430  13.364  70.796  1.00  0.00    -0.418 A  
HETATM   18  O   UNL     1     -13.843  12.362  72.370  1.00  0.00    -0.507 OA 
HETATM   19  C   UNL     1     -11.429  13.303  69.831  1.00  0.00    -0.100 A  
HETATM   20  H   UNL     1     -14.198  13.209  72.613  1.00  0.00     0.000 HD 
HETATM   21  C   UNL     1     -10.919  12.039  69.453  1.00  0.00    -0.128 A  
HETATM   22  C   UNL     1     -11.406  10.858  70.045  1.00  0.00    -0.307 A  
HETATM   23  O   UNL     1     -10.908   9.638  69.616  1.00  0.00    -0.230 OA 
BRANCH  19  24
HETATM   24  O   UNL     1     -10.815  14.396  69.283  1.00  0.00    -0.254 OA 
BRANCH  24  25
HETATM   25  C   UNL     1     -11.224  14.924  67.991  1.00  0.00    -0.308 C  
HETATM   26  O   UNL     1     -11.202  13.978  66.911  1.00  0.00    -0.297 OA 
HETATM   27  C   UNL     1     -11.602  14.485  65.633  1.00  0.00    -0.344 C  
HETATM   28  H   UNL     1     -10.021  18.540  66.614  1.00  0.00     0.000 HD 
HETATM   29  C   UNL     1     -10.749  15.715  65.256  1.00  0.00    -0.425 C  
HETATM   30  O   UNL     1     -10.699  17.215  68.720  1.00  0.00    -0.337 OA 
HETATM   31  C   UNL     1     -10.833  16.787  66.325  1.00  0.00     0.005 C  
HETATM   32  O   UNL     1     -11.097  16.357  64.018  1.00  0.00    -1.236 OA 
HETATM   33  H   UNL     1     -10.572  17.113  63.786  1.00  0.00     0.000 HD 
HETATM   34  H   UNL     1     -10.221  18.015  68.540  1.00  0.00     0.000 HD 
HETATM   35  O   UNL     1      -9.968  17.868  65.944  1.00  0.00    -0.533 OA 
HETATM   36  C   UNL     1     -10.445  16.232  67.696  1.00  0.00    -0.295 C  
BRANCH  27  37
HETATM   37  C   UNL     1     -11.332  13.465  64.506  1.00  0.00    -0.366 C  
BRANCH  37  38
HETATM   38  O   UNL     1     -11.383  12.082  64.829  1.00  0.00    -0.317 OA 
BRANCH  38  39
HETATM   39  C   UNL     1     -10.088  11.459  64.605  1.00  0.00    -0.280 C  
HETATM   40  C   UNL     1      -9.025   9.697  63.302  1.00  0.00    -0.227 C  
HETATM   41  O   UNL     1     -10.211  10.438  63.610  1.00  0.00    -0.179 OA 
HETATM   42  C   UNL     1      -8.345   9.119  64.558  1.00  0.00    -0.168 C  
HETATM   43  C   UNL     1      -8.087  10.504  62.411  1.00  0.00    -0.216 C  
HETATM   44  O   UNL     1      -9.181   8.100  65.132  1.00  0.00    -0.375 OA 
HETATM   45  C   UNL     1      -8.120  10.189  65.626  1.00  0.00    -0.149 C  
HETATM   46  O   UNL     1      -7.069  11.089  65.264  1.00  0.00    -0.357 OA 
HETATM   47  C   UNL     1      -9.435  10.924  65.917  1.00  0.00    -0.207 C  
HETATM   48  H   UNL     1      -8.762   7.744  65.907  1.00  0.00     0.000 HD 
HETATM   49  H   UNL     1      -6.929  11.755  65.927  1.00  0.00     0.000 HD 
HETATM   50  O   UNL     1      -9.219  11.993  66.851  1.00  0.00    -0.185 OA 
HETATM   51  H   UNL     1      -8.821  11.667  67.650  1.00  0.00     0.000 HD 
ENDBRANCH  38  39
ENDBRANCH  37  38
ENDBRANCH  27  37
ENDBRANCH  24  25
ENDBRANCH  19  24
ENDBRANCH   7  11
ENDBRANCH   2   3
TORSDOF 7
ENDMDL
MODEL        9
REMARK 921   NORMALIZED FREE ENERGY PREDICTED BY IDOCK:   -9.03 KCAL/MOL
REMARK 922        TOTAL FREE ENERGY PREDICTED BY IDOCK:  -14.66 KCAL/MOL
REMARK 923 INTER-LIGAND FREE ENERGY PREDICTED BY IDOCK:  -13.23 KCAL/MOL
REMARK 924 INTRA-LIGAND FREE ENERGY PREDICTED BY IDOCK:   -1.43 KCAL/MOL
REMARK 927      BINDING AFFINITY PREDICTED BY RF-SCORE:    0.00 PKD
ROOT
HETATM    1  C   UNL     1     -11.428   1.923  73.667  1.00  0.00    -0.214 C  
HETATM    2  O   UNL     1     -10.648   3.113  73.748  1.00  0.00    -0.150 OA 
ENDROOT
BRANCH   2   3
HETATM    3  C   UNL     1     -10.413   3.741  72.552  1.00  0.00    -0.088 A  
HETATM    4  C   UNL     1     -10.916   5.035  72.446  1.00  0.00    -0.132 A  
HETATM    5  C   UNL     1     -10.767   5.778  71.276  1.00  0.00    -0.323 A  
HETATM    6  O   UNL     1     -11.595   5.603  73.490  1.00  0.00    -0.403 OA 
HETATM    7  C   UNL     1     -10.077   5.250  70.166  1.00  0.00    -0.333 A  
HETATM    8  H   UNL     1     -11.938   6.486  73.418  1.00  0.00     0.000 HD 
HETATM    9  C   UNL     1      -9.550   3.955  70.291  1.00  0.00    -0.271 A  
HETATM   10  C   UNL     1      -9.711   3.208  71.474  1.00  0.00    -0.226 A  
BRANCH   7  11
HETATM   11  C   UNL     1      -9.933   6.029  68.906  1.00  0.00    -0.154 C  
HETATM   12  C   UNL     1      -9.237   5.522  67.877  1.00  0.00    -0.112 C  
HETATM   13  C   UNL     1      -9.020   6.336  66.680  1.00  0.00    -0.135 C  
HETATM   14  O   UNL     1      -8.384   5.908  65.729  1.00  0.00    -0.127 OA 
HETATM   15  C   UNL     1      -9.581   7.685  66.678  1.00  0.00    -0.271 A  
HETATM   16  C   UNL     1      -9.353   8.550  65.612  1.00  0.00    -0.052 A  
HETATM   17  C   UNL     1      -9.930   9.815  65.588  1.00  0.00    -0.352 A  
HETATM   18  O   UNL     1      -8.587   8.218  64.529  1.00  0.00    -0.369 OA 
HETATM   19  C   UNL     1     -10.759  10.227  66.627  1.00  0.00    -0.113 A  
HETATM   20  H   UNL     1      -8.431   8.809  63.801  1.00  0.00     0.000 HD 
HETATM   21  C   UNL     1     -10.968   9.356  67.722  1.00  0.00    -0.122 A  
HETATM   22  C   UNL     1     -10.356   8.089  67.762  1.00  0.00    -0.231 A  
HETATM   23  O   UNL     1     -10.555   7.284  68.873  1.00  0.00    -0.208 OA 
BRANCH  19  24
HETATM   24  O   UNL     1     -11.484  11.388  66.625  1.00  0.00    -0.408 OA 
BRANCH  24  25
HETATM   25  C   UNL     1     -11.099  12.517  65.793  1.00  0.00    -0.308 C  
HETATM   26  O   UNL     1     -10.201  13.452  66.411  1.00  0.00    -0.280 OA 
HETATM   27  C   UNL     1      -9.814  14.569  65.603  1.00  0.00    -0.305 C  
HETATM   28  H   UNL     1     -13.738  14.543  63.480  1.00  0.00     0.000 HD 
HETATM   29  C   UNL     1     -11.064  15.318  65.094  1.00  0.00    -0.404 C  
HETATM   30  O   UNL     1     -13.102  12.218  64.396  1.00  0.00    -0.780 OA 
HETATM   31  C   UNL     1     -11.990  14.385  64.338  1.00  0.00    -0.452 C  
HETATM   32  O   UNL     1     -10.810  16.427  64.215  1.00  0.00    -1.042 OA 
HETATM   33  H   UNL     1     -11.579  16.887  63.903  1.00  0.00     0.000 HD 
HETATM   34  H   UNL     1     -13.880  12.618  64.026  1.00  0.00     0.000 HD 
HETATM   35  O   UNL     1     -13.158  15.127  63.953  1.00  0.00    -0.327 OA 
HETATM   36  C   UNL     1     -12.369  13.172  65.189  1.00  0.00    -0.473 C  
BRANCH  27  37
HETATM   37  C   UNL     1      -9.037  15.622  66.422  1.00  0.00    -0.320 C  
BRANCH  37  38
HETATM   38  O   UNL     1      -8.431  16.700  65.722  1.00  0.00    -0.433 OA 
BRANCH  38  39
HETATM   39  C   UNL     1      -8.400  17.893  66.554  1.00  0.00    -0.262 C  
HETATM   40  C   UNL     1      -9.165  20.205  66.591  1.00  0.00    -0.351 C  
HETATM   41  O   UNL     1      -9.134  18.944  65.916  1.00  0.00    -0.454 OA 
HETATM   42  C   UNL     1      -7.760  20.709  66.970  1.00  0.00    -0.265 C  
HETATM   43  C   UNL     1     -10.145  20.180  67.759  1.00  0.00    -0.540 C  
HETATM   44  O   UNL     1      -7.028  21.039  65.777  1.00  0.00    -0.497 OA 
HETATM   45  C   UNL     1      -6.960  19.648  67.725  1.00  0.00    -0.249 C  
HETATM   46  O   UNL     1      -7.441  19.468  69.060  1.00  0.00    -0.363 OA 
HETATM   47  C   UNL     1      -6.953  18.334  66.932  1.00  0.00    -0.190 C  
HETATM   48  H   UNL     1      -6.162  21.350  66.011  1.00  0.00     0.000 HD 
HETATM   49  H   UNL     1      -6.943  18.808  69.529  1.00  0.00     0.000 HD 
HETATM   50  O   UNL     1      -6.282  17.302  67.672  1.00  0.00    -0.141 OA 
HETATM   51  H   UNL     1      -5.401  17.571  67.903  1.00  0.00     0.000 HD 
ENDBRANCH  38  39
ENDBRANCH  37  38
ENDBRANCH  27  37
ENDBRANCH  24  25
ENDBRANCH  19  24
ENDBRANCH   7  11
ENDBRANCH   2   3
TORSDOF 7
ENDMDL
MODEL       10
REMARK 921   NORMALIZED FREE ENERGY PREDICTED BY IDOCK:   -8.90 KCAL/MOL
REMARK 922        TOTAL FREE ENERGY PREDICTED BY IDOCK:  -14.47 KCAL/MOL
REMARK 923 INTER-LIGAND FREE ENERGY PREDICTED BY IDOCK:  -12.06 KCAL/MOL
REMARK 924 INTRA-LIGAND FREE ENERGY PREDICTED BY IDOCK:   -2.42 KCAL/MOL
REMARK 927      BINDING AFFINITY PREDICTED BY RF-SCORE:    0.00 PKD
ROOT
HETATM    1  C   UNL     1     -10.610   5.255  66.217  1.00  0.00    -0.248 C  
HETATM    2  O   UNL     1      -9.631   6.228  66.570  1.00  0.00    -0.157 OA 
ENDROOT
BRANCH   2   3
HETATM    3  C   UNL     1     -10.076   7.238  67.385  1.00  0.00    -0.204 A  
HETATM    4  C   UNL     1     -10.197   8.486  66.781  1.00  0.00    -0.300 A  
HETATM    5  C   UNL     1     -10.618   9.603  67.500  1.00  0.00    -0.339 A  
HETATM    6  O   UNL     1      -9.881   8.651  65.458  1.00  0.00    -0.412 OA 
HETATM    7  C   UNL     1     -10.960   9.499  68.864  1.00  0.00    -0.116 A  
HETATM    8  H   UNL     1      -9.963   9.502  65.046  1.00  0.00     0.000 HD 
HETATM    9  C   UNL     1     -10.861   8.231  69.458  1.00  0.00    -0.124 A  
HETATM   10  C   UNL     1     -10.428   7.109  68.726  1.00  0.00    -0.217 A  
BRANCH   7  11
HETATM   11  C   UNL     1     -11.389  10.692  69.644  1.00  0.00    -0.294 C  
HETATM   12  C   UNL     1     -12.300  10.565  70.621  1.00  0.00    -0.449 C  
HETATM   13  C   UNL     1     -12.785  11.758  71.316  1.00  0.00    -0.316 C  
HETATM   14  O   UNL     1     -13.620  11.679  72.204  1.00  0.00    -0.332 OA 
HETATM   15  C   UNL     1     -12.243  13.047  70.890  1.00  0.00    -0.310 A  
HETATM   16  C   UNL     1     -12.710  14.235  71.446  1.00  0.00    -0.352 A  
HETATM   17  C   UNL     1     -12.157  15.456  71.077  1.00  0.00    -0.417 A  
HETATM   18  O   UNL     1     -13.702  14.283  72.386  1.00  0.00    -0.438 OA 
HETATM   19  C   UNL     1     -11.114  15.505  70.157  1.00  0.00    -0.323 A  
HETATM   20  H   UNL     1     -14.020  15.094  72.765  1.00  0.00     0.000 HD 
HETATM   21  C   UNL     1     -10.659  14.299  69.575  1.00  0.00    -0.037 A  
HETATM   22  C   UNL     1     -11.243  13.065  69.922  1.00  0.00     0.151 A  
HETATM   23  O   UNL     1     -10.794  11.912  69.297  1.00  0.00    -0.200 OA 
BRANCH  19  24
HETATM   24  O   UNL     1     -10.412  16.637  69.843  1.00  0.00    -0.230 OA 
BRANCH  24  25
HETATM   25  C   UNL     1     -10.766  17.450  68.690  1.00  0.00    -0.249 C  
HETATM   26  O   UNL     1     -10.628  16.797  67.418  1.00  0.00    -0.321 OA 
HETATM   27  C   UNL     1     -10.973  17.587  66.275  1.00  0.00     0.257 C  
HETATM   28  H   UNL     1      -9.666  21.331  68.318  1.00  0.00     0.000 HD 
HETATM   29  C   UNL     1     -10.162  18.900  66.268  1.00  0.00    -0.438 C  
HETATM   30  O   UNL     1     -10.406  19.509  69.986  1.00  0.00    -0.359 OA 
HETATM   31  C   UNL     1     -10.367  19.675  67.556  1.00  0.00    -0.448 C  
HETATM   32  O   UNL     1     -10.464  19.813  65.200  1.00  0.00    -0.209 OA 
HETATM   33  H   UNL     1      -9.966  20.620  65.196  1.00  0.00     0.000 HD 
HETATM   34  H   UNL     1      -9.960  20.346  70.040  1.00  0.00     0.000 HD 
HETATM   35  O   UNL     1      -9.537  20.846  67.511  1.00  0.00    -0.402 OA 
HETATM   36  C   UNL     1     -10.038  18.816  68.777  1.00  0.00    -0.354 C  
BRANCH  27  37
HETATM   37  C   UNL     1     -10.580  16.883  64.958  1.00  0.00     0.024 C  
BRANCH  37  38
HETATM   38  O   UNL     1     -11.516  15.987  64.373  1.00  0.00    -0.440 OA 
BRANCH  38  39
HETATM   39  C   UNL     1     -11.362  14.653  64.932  1.00  0.00    -0.403 C  
HETATM   40  C   UNL     1      -9.924  12.693  64.803  1.00  0.00    -0.140 C  
HETATM   41  O   UNL     1     -10.195  14.033  64.382  1.00  0.00    -0.310 OA 
HETATM   42  C   UNL     1     -11.138  11.760  64.631  1.00  0.00    -0.303 C  
HETATM   43  C   UNL     1      -9.323  12.666  66.204  1.00  0.00    -0.117 C  
HETATM   44  O   UNL     1     -11.407  11.574  63.230  1.00  0.00    -0.750 OA 
HETATM   45  C   UNL     1     -12.398  12.342  65.270  1.00  0.00    -0.287 C  
HETATM   46  O   UNL     1     -12.343  12.287  66.699  1.00  0.00    -0.471 OA 
HETATM   47  C   UNL     1     -12.635  13.769  64.757  1.00  0.00    -0.290 C  
HETATM   48  H   UNL     1     -12.156  10.999  63.124  1.00  0.00     0.000 HD 
HETATM   49  H   UNL     1     -13.127  12.649  67.097  1.00  0.00     0.000 HD 
HETATM   50  O   UNL     1     -13.763  14.362  65.418  1.00  0.00    -0.381 OA 
HETATM   51  H   UNL     1     -14.538  13.823  65.312  1.00  0.00     0.000 HD 
ENDBRANCH  38  39
ENDBRANCH  37  38
ENDBRANCH  27  37
ENDBRANCH  24  25
ENDBRANCH  19  24
ENDBRANCH   7  11
ENDBRANCH   2   3
TORSDOF 7
ENDMDL
MODEL       11
REMARK 921   NORMALIZED FREE ENERGY PREDICTED BY IDOCK:   -8.87 KCAL/MOL
REMARK 922        TOTAL FREE ENERGY PREDICTED BY IDOCK:  -14.43 KCAL/MOL
REMARK 923 INTER-LIGAND FREE ENERGY PREDICTED BY IDOCK:  -12.24 KCAL/MOL
REMARK 924 INTRA-LIGAND FREE ENERGY PREDICTED BY IDOCK:   -2.19 KCAL/MOL
REMARK 927      BINDING AFFINITY PREDICTED BY RF-SCORE:    0.00 PKD
ROOT
HETATM    1  C   UNL     1      -6.462  18.281  65.862  1.00  0.00    -0.259 C  
HETATM    2  O   UNL     1      -7.858  18.308  65.581  1.00  0.00    -0.515 OA 
ENDROOT
BRANCH   2   3
HETATM    3  C   UNL     1      -8.632  17.507  66.383  1.00  0.00    -0.240 A  
HETATM    4  C   UNL     1      -9.679  18.149  67.039  1.00  0.00    -0.307 A  
HETATM    5  C   UNL     1     -10.528  17.458  67.901  1.00  0.00    -0.383 A  
HETATM    6  O   UNL     1      -9.886  19.492  66.868  1.00  0.00    -0.326 OA 
HETATM    7  C   UNL     1     -10.368  16.074  68.118  1.00  0.00    -0.260 A  
HETATM    8  H   UNL     1     -10.599  19.930  67.316  1.00  0.00     0.000 HD 
HETATM    9  C   UNL     1      -9.327  15.429  67.432  1.00  0.00    -0.205 A  
HETATM   10  C   UNL     1      -8.469  16.137  66.568  1.00  0.00    -0.346 A  
BRANCH   7  11
HETATM   11  C   UNL     1     -11.257  15.333  69.055  1.00  0.00    -0.280 C  
HETATM   12  C   UNL     1     -12.072  16.004  69.882  1.00  0.00    -0.131 C  
HETATM   13  C   UNL     1     -12.870  15.270  70.865  1.00  0.00    -0.449 C  
HETATM   14  O   UNL     1     -13.615  15.851  71.639  1.00  0.00    -0.420 OA 
HETATM   15  C   UNL     1     -12.723  13.816  70.893  1.00  0.00    -0.394 A  
HETATM   16  C   UNL     1     -13.385  13.051  71.849  1.00  0.00    -0.446 A  
HETATM   17  C   UNL     1     -13.285  11.664  71.842  1.00  0.00    -0.475 A  
HETATM   18  O   UNL     1     -14.180  13.592  72.821  1.00  0.00    -0.676 OA 
HETATM   19  C   UNL     1     -12.531  11.020  70.865  1.00  0.00    -0.410 A  
HETATM   20  H   UNL     1     -14.633  13.070  73.473  1.00  0.00     0.000 HD 
HETATM   21  C   UNL     1     -11.838  11.801  69.912  1.00  0.00    -0.423 A  
HETATM   22  C   UNL     1     -11.911  13.207  69.940  1.00  0.00    -0.317 A  
HETATM   23  O   UNL     1     -11.183  13.934  69.011  1.00  0.00    -0.253 OA 
BRANCH  19  24
HETATM   24  O   UNL     1     -12.491   9.664  70.689  1.00  0.00    -0.212 OA 
BRANCH  24  25
HETATM   25  C   UNL     1     -11.384   8.869  71.198  1.00  0.00    -0.291 C  
HETATM   26  O   UNL     1     -10.380   8.530  70.228  1.00  0.00    -0.196 OA 
HETATM   27  C   UNL     1      -9.285   7.747  70.717  1.00  0.00    -0.157 C  
HETATM   28  H   UNL     1     -11.905   5.740  73.719  1.00  0.00     0.000 HD 
HETATM   29  C   UNL     1      -9.807   6.458  71.386  1.00  0.00    -0.176 C  
HETATM   30  O   UNL     1     -12.765   8.085  73.077  1.00  0.00    -0.491 OA 
HETATM   31  C   UNL     1     -10.793   6.778  72.493  1.00  0.00    -0.239 C  
HETATM   32  O   UNL     1      -8.806   5.613  71.976  1.00  0.00    -0.137 OA 
HETATM   33  H   UNL     1      -9.127   4.820  72.387  1.00  0.00     0.000 HD 
HETATM   34  H   UNL     1     -13.105   7.338  73.555  1.00  0.00     0.000 HD 
HETATM   35  O   UNL     1     -11.287   5.539  73.025  1.00  0.00    -0.294 OA 
HETATM   36  C   UNL     1     -11.940   7.649  71.979  1.00  0.00    -0.302 C  
BRANCH  27  37
HETATM   37  C   UNL     1      -8.384   7.249  69.566  1.00  0.00    -0.133 C  
BRANCH  37  38
HETATM   38  O   UNL     1      -7.325   8.091  69.133  1.00  0.00    -0.082 OA 
BRANCH  38  39
HETATM   39  C   UNL     1      -7.852   9.341  68.608  1.00  0.00    -0.089 C  
HETATM   40  C   UNL     1      -8.565  10.377  66.523  1.00  0.00    -0.130 C  
HETATM   41  O   UNL     1      -8.083   9.213  67.201  1.00  0.00    -0.108 OA 
HETATM   42  C   UNL     1      -7.703  11.624  66.795  1.00  0.00    -0.116 C  
HETATM   43  C   UNL     1     -10.053  10.590  66.784  1.00  0.00    -0.270 C  
HETATM   44  O   UNL     1      -6.408  11.454  66.193  1.00  0.00    -0.344 OA 
HETATM   45  C   UNL     1      -7.490  11.851  68.292  1.00  0.00    -0.104 C  
HETATM   46  O   UNL     1      -8.678  12.324  68.932  1.00  0.00    -0.369 OA 
HETATM   47  C   UNL     1      -6.953  10.571  68.946  1.00  0.00    -0.070 C  
HETATM   48  H   UNL     1      -5.876  12.223  66.361  1.00  0.00     0.000 HD 
HETATM   49  H   UNL     1      -8.546  12.465  69.863  1.00  0.00     0.000 HD 
HETATM   50  O   UNL     1      -6.835  10.741  70.366  1.00  0.00    -0.414 OA 
HETATM   51  H   UNL     1      -6.287  11.490  70.572  1.00  0.00     0.000 HD 
ENDBRANCH  38  39
ENDBRANCH  37  38
ENDBRANCH  27  37
ENDBRANCH  24  25
ENDBRANCH  19  24
ENDBRANCH   7  11
ENDBRANCH   2   3
TORSDOF 7
ENDMDL
MODEL       12
REMARK 921   NORMALIZED FREE ENERGY PREDICTED BY IDOCK:   -8.82 KCAL/MOL
REMARK 922        TOTAL FREE ENERGY PREDICTED BY IDOCK:  -14.36 KCAL/MOL
REMARK 923 INTER-LIGAND FREE ENERGY PREDICTED BY IDOCK:  -12.67 KCAL/MOL
REMARK 924 INTRA-LIGAND FREE ENERGY PREDICTED BY IDOCK:   -1.69 KCAL/MOL
REMARK 927      BINDING AFFINITY PREDICTED BY RF-SCORE:    0.00 PKD
ROOT
HETATM    1  C   UNL     1      -9.882   1.549  62.839  1.00  0.00    -0.095 C  
HETATM    2  O   UNL     1      -9.439   1.523  64.193  1.00  0.00    -0.120 OA 
ENDROOT
BRANCH   2   3
HETATM    3  C   UNL     1      -9.336   2.750  64.798  1.00  0.00    -0.143 A  
HETATM    4  C   UNL     1      -9.430   2.744  66.187  1.00  0.00     0.080 A  
HETATM    5  C   UNL     1      -9.364   3.924  66.925  1.00  0.00    -0.208 A  
HETATM    6  O   UNL     1      -9.614   1.567  66.864  1.00  0.00    -0.355 OA 
HETATM    7  C   UNL     1      -9.174   5.166  66.287  1.00  0.00    -0.147 A  
HETATM    8  H   UNL     1      -9.679   1.563  67.811  1.00  0.00     0.000 HD 
HETATM    9  C   UNL     1      -9.053   5.162  64.889  1.00  0.00    -0.042 A  
HETATM   10  C   UNL     1      -9.128   3.965  64.149  1.00  0.00    -0.137 A  
BRANCH   7  11
HETATM   11  C   UNL     1      -9.125   6.434  67.067  1.00  0.00    -0.127 C  
HETATM   12  C   UNL     1      -8.279   6.555  68.101  1.00  0.00    -0.117 C  
HETATM   13  C   UNL     1      -8.307   7.768  68.920  1.00  0.00    -0.128 C  
HETATM   14  O   UNL     1      -7.556   7.906  69.873  1.00  0.00    -0.085 OA 
HETATM   15  C   UNL     1      -9.282   8.795  68.560  1.00  0.00    -0.141 A  
HETATM   16  C   UNL     1      -9.428   9.942  69.334  1.00  0.00    -0.213 A  
HETATM   17  C   UNL     1     -10.319  10.942  68.962  1.00  0.00    -0.230 A  
HETATM   18  O   UNL     1      -8.706  10.174  70.472  1.00  0.00    -0.325 OA 
HETATM   19  C   UNL     1     -11.068  10.815  67.796  1.00  0.00    -0.318 A  
HETATM   20  H   UNL     1      -8.805  10.957  71.001  1.00  0.00     0.000 HD 
HETATM   21  C   UNL     1     -10.938   9.636  67.025  1.00  0.00    -0.020 A  
HETATM   22  C   UNL     1     -10.061   8.608  67.421  1.00  0.00    -0.229 A  
HETATM   23  O   UNL     1      -9.995   7.453  66.657  1.00  0.00    -0.221 OA 
BRANCH  19  24
HETATM   24  O   UNL     1     -11.859  11.802  67.272  1.00  0.00    -0.596 OA 
BRANCH  24  25
HETATM   25  C   UNL     1     -11.341  12.744  66.293  1.00  0.00    -0.320 C  
HETATM   26  O   UNL     1     -10.420  13.718  66.811  1.00  0.00    -0.267 OA 
HETATM   27  C   UNL     1      -9.904  14.652  65.857  1.00  0.00    -0.330 C  
HETATM   28  H   UNL     1     -13.672  14.487  63.474  1.00  0.00     0.000 HD 
HETATM   29  C   UNL     1     -11.061  15.373  65.135  1.00  0.00    -0.394 C  
HETATM   30  O   UNL     1     -13.264  12.324  64.817  1.00  0.00    -0.697 OA 
HETATM   31  C   UNL     1     -12.000  14.379  64.479  1.00  0.00    -0.472 C  
HETATM   32  O   UNL     1     -10.672  16.295  64.103  1.00  0.00    -0.828 OA 
HETATM   33  H   UNL     1     -11.384  16.739  63.659  1.00  0.00     0.000 HD 
HETATM   34  H   UNL     1     -13.985  12.699  64.327  1.00  0.00     0.000 HD 
HETATM   35  O   UNL     1     -13.084  15.110  63.885  1.00  0.00    -0.327 OA 
HETATM   36  C   UNL     1     -12.518  13.357  65.491  1.00  0.00    -0.483 C  
BRANCH  27  37
HETATM   37  C   UNL     1      -9.109  15.785  66.543  1.00  0.00    -0.293 C  
BRANCH  37  38
HETATM   38  O   UNL     1      -8.621  16.846  65.733  1.00  0.00    -0.505 OA 
BRANCH  38  39
HETATM   39  C   UNL     1      -8.722  18.113  66.440  1.00  0.00    -0.231 C  
HETATM   40  C   UNL     1      -8.109  19.170  68.546  1.00  0.00    -0.359 C  
HETATM   41  O   UNL     1      -8.063  18.012  67.706  1.00  0.00    -0.230 OA 
HETATM   42  C   UNL     1      -9.541  19.701  68.747  1.00  0.00    -0.368 C  
HETATM   43  C   UNL     1      -7.120  20.231  68.075  1.00  0.00    -0.316 C  
HETATM   44  O   UNL     1     -10.301  18.755  69.518  1.00  0.00    -0.374 OA 
HETATM   45  C   UNL     1     -10.265  19.901  67.416  1.00  0.00    -0.425 C  
HETATM   46  O   UNL     1      -9.763  21.034  66.702  1.00  0.00    -0.557 OA 
HETATM   47  C   UNL     1     -10.192  18.615  66.581  1.00  0.00    -0.404 C  
HETATM   48  H   UNL     1     -11.185  19.082  69.642  1.00  0.00     0.000 HD 
HETATM   49  H   UNL     1     -10.213  21.158  65.874  1.00  0.00     0.000 HD 
HETATM   50  O   UNL     1     -10.789  18.817  65.291  1.00  0.00    -0.576 OA 
HETATM   51  H   UNL     1     -11.684  19.123  65.377  1.00  0.00     0.000 HD 
ENDBRANCH  38  39
ENDBRANCH  37  38
ENDBRANCH  27  37
ENDBRANCH  24  25
ENDBRANCH  19  24
ENDBRANCH   7  11
ENDBRANCH   2   3
TORSDOF 7
ENDMDL
MODEL       13
REMARK 921   NORMALIZED FREE ENERGY PREDICTED BY IDOCK:   -8.77 KCAL/MOL
REMARK 922        TOTAL FREE ENERGY PREDICTED BY IDOCK:  -14.29 KCAL/MOL
REMARK 923 INTER-LIGAND FREE ENERGY PREDICTED BY IDOCK:  -12.30 KCAL/MOL
REMARK 924 INTRA-LIGAND FREE ENERGY PREDICTED BY IDOCK:   -1.99 KCAL/MOL
REMARK 927      BINDING AFFINITY PREDICTED BY RF-SCORE:    0.00 PKD
ROOT
HETATM    1  C   UNL     1      -7.353  19.576  66.200  1.00  0.00    -0.281 C  
HETATM    2  O   UNL     1      -8.441  18.822  65.672  1.00  0.00    -0.347 OA 
ENDROOT
BRANCH   2   3
HETATM    3  C   UNL     1      -9.072  17.999  66.570  1.00  0.00    -0.269 A  
HETATM    4  C   UNL     1     -10.329  17.541  66.182  1.00  0.00    -0.329 A  
HETATM    5  C   UNL     1     -11.088  16.716  67.010  1.00  0.00     0.145 A  
HETATM    6  O   UNL     1     -10.861  17.913  64.977  1.00  0.00    -0.767 OA 
HETATM    7  C   UNL     1     -10.596  16.297  68.263  1.00  0.00    -0.300 A  
HETATM    8  H   UNL     1     -11.718  17.600  64.712  1.00  0.00     0.000 HD 
HETATM    9  C   UNL     1      -9.317  16.742  68.635  1.00  0.00    -0.252 A  
HETATM   10  C   UNL     1      -8.559  17.581  67.795  1.00  0.00    -0.230 A  
BRANCH   7  11
HETATM   11  C   UNL     1     -11.410  15.435  69.162  1.00  0.00    -0.315 C  
HETATM   12  C   UNL     1     -12.326  15.984  69.974  1.00  0.00     0.025 C  
HETATM   13  C   UNL     1     -13.052  15.138  70.923  1.00  0.00    -0.441 C  
HETATM   14  O   UNL     1     -13.885  15.609  71.682  1.00  0.00    -0.475 OA 
HETATM   15  C   UNL     1     -12.724  13.714  70.935  1.00  0.00    -0.382 A  
HETATM   16  C   UNL     1     -13.311  12.856  71.860  1.00  0.00    -0.435 A  
HETATM   17  C   UNL     1     -13.038  11.493  71.837  1.00  0.00    -0.492 A  
HETATM   18  O   UNL     1     -14.195  13.276  72.816  1.00  0.00    -0.692 OA 
HETATM   19  C   UNL     1     -12.182  10.966  70.874  1.00  0.00    -0.381 A  
HETATM   20  H   UNL     1     -14.596  12.690  73.447  1.00  0.00     0.000 HD 
HETATM   21  C   UNL     1     -11.567  11.844  69.952  1.00  0.00    -0.333 A  
HETATM   22  C   UNL     1     -11.816  13.228  69.998  1.00  0.00    -0.295 A  
HETATM   23  O   UNL     1     -11.160  14.057  69.101  1.00  0.00    -0.253 OA 
BRANCH  19  24
HETATM   24  O   UNL     1     -11.967   9.628  70.681  1.00  0.00    -0.272 OA 
BRANCH  24  25
HETATM   25  C   UNL     1     -10.927   8.917  71.408  1.00  0.00    -0.310 C  
HETATM   26  O   UNL     1      -9.746   8.618  70.647  1.00  0.00    -0.169 OA 
HETATM   27  C   UNL     1      -8.715   7.918  71.352  1.00  0.00    -0.127 C  
HETATM   28  H   UNL     1     -11.716   5.828  73.909  1.00  0.00     0.000 HD 
HETATM   29  C   UNL     1      -9.275   6.616  71.964  1.00  0.00    -0.142 C  
HETATM   30  O   UNL     1     -12.578   8.097  73.038  1.00  0.00    -0.656 OA 
HETATM   31  C   UNL     1     -10.462   6.903  72.864  1.00  0.00    -0.244 C  
HETATM   32  O   UNL     1      -8.350   5.851  72.754  1.00  0.00    -0.118 OA 
HETATM   33  H   UNL     1      -8.695   5.051  73.130  1.00  0.00     0.000 HD 
HETATM   34  H   UNL     1     -12.956   7.344  73.474  1.00  0.00     0.000 HD 
HETATM   35  O   UNL     1     -10.973   5.649  73.344  1.00  0.00    -0.273 OA 
HETATM   36  C   UNL     1     -11.544   7.686  72.121  1.00  0.00    -0.308 C  
BRANCH  27  37
HETATM   37  C   UNL     1      -7.594   7.447  70.400  1.00  0.00    -0.091 C  
BRANCH  37  38
HETATM   38  O   UNL     1      -7.829   6.288  69.611  1.00  0.00    -0.102 OA 
BRANCH  38  39
HETATM   39  C   UNL     1      -8.495   6.646  68.368  1.00  0.00    -0.125 C  
HETATM   40  C   UNL     1      -8.845   8.537  66.875  1.00  0.00    -0.137 C  
HETATM   41  O   UNL     1      -8.224   8.016  68.054  1.00  0.00    -0.126 OA 
HETATM   42  C   UNL     1     -10.365   8.288  66.846  1.00  0.00    -0.320 C  
HETATM   43  C   UNL     1      -8.121   8.068  65.618  1.00  0.00    -0.121 C  
HETATM   44  O   UNL     1     -11.000   9.066  67.875  1.00  0.00    -0.488 OA 
HETATM   45  C   UNL     1     -10.706   6.820  67.100  1.00  0.00    -0.371 C  
HETATM   46  O   UNL     1     -10.378   5.996  65.978  1.00  0.00    -0.417 OA 
HETATM   47  C   UNL     1     -10.024   6.339  68.388  1.00  0.00    -0.140 C  
HETATM   48  H   UNL     1     -11.938   8.913  67.857  1.00  0.00     0.000 HD 
HETATM   49  H   UNL     1     -10.589   5.083  66.135  1.00  0.00     0.000 HD 
HETATM   50  O   UNL     1     -10.261   4.937  68.590  1.00  0.00    -0.135 OA 
HETATM   51  H   UNL     1     -11.192   4.750  68.602  1.00  0.00     0.000 HD 
ENDBRANCH  38  39
ENDBRANCH  37  38
ENDBRANCH  27  37
ENDBRANCH  24  25
ENDBRANCH  19  24
ENDBRANCH   7  11
ENDBRANCH   2   3
TORSDOF 7
ENDMDL
MODEL       14
REMARK 921   NORMALIZED FREE ENERGY PREDICTED BY IDOCK:   -8.74 KCAL/MOL
REMARK 922        TOTAL FREE ENERGY PREDICTED BY IDOCK:  -14.24 KCAL/MOL
REMARK 923 INTER-LIGAND FREE ENERGY PREDICTED BY IDOCK:  -12.33 KCAL/MOL
REMARK 924 INTRA-LIGAND FREE ENERGY PREDICTED BY IDOCK:   -1.91 KCAL/MOL
REMARK 927      BINDING AFFINITY PREDICTED BY RF-SCORE:    0.00 PKD
ROOT
HETATM    1  C   UNL     1      -7.021   4.543  69.557  1.00  0.00    -0.050 C  
HETATM    2  O   UNL     1      -6.654   5.022  68.266  1.00  0.00    -0.046 OA 
ENDROOT
BRANCH   2   3
HETATM    3  C   UNL     1      -7.294   6.165  67.862  1.00  0.00    -0.084 A  
HETATM    4  C   UNL     1      -8.148   6.021  66.772  1.00  0.00    -0.105 A  
HETATM    5  C   UNL     1      -8.843   7.108  66.245  1.00  0.00    -0.166 A  
HETATM    6  O   UNL     1      -8.307   4.800  66.172  1.00  0.00    -0.110 OA 
HETATM    7  C   UNL     1      -8.723   8.390  66.818  1.00  0.00    -0.138 A  
HETATM    8  H   UNL     1      -8.889   4.701  65.429  1.00  0.00     0.000 HD 
HETATM    9  C   UNL     1      -7.881   8.522  67.934  1.00  0.00    -0.103 A  
HETATM   10  C   UNL     1      -7.177   7.420  68.456  1.00  0.00    -0.087 A  
BRANCH   7  11
HETATM   11  C   UNL     1      -9.446   9.560  66.248  1.00  0.00    -0.210 C  
HETATM   12  C   UNL     1      -9.651   9.644  64.924  1.00  0.00    -0.244 C  
HETATM   13  C   UNL     1     -10.276  10.844  64.365  1.00  0.00    -0.358 C  
HETATM   14  O   UNL     1     -10.469  10.956  63.164  1.00  0.00    -0.253 OA 
HETATM   15  C   UNL     1     -10.641  11.906  65.300  1.00  0.00    -0.320 A  
HETATM   16  C   UNL     1     -11.167  13.110  64.841  1.00  0.00    -0.310 A  
HETATM   17  C   UNL     1     -11.561  14.099  65.734  1.00  0.00    -0.343 A  
HETATM   18  O   UNL     1     -11.351  13.389  63.514  1.00  0.00    -0.588 OA 
HETATM   19  C   UNL     1     -11.450  13.890  67.106  1.00  0.00    -0.347 A  
HETATM   20  H   UNL     1     -11.710  14.211  63.201  1.00  0.00     0.000 HD 
HETATM   21  C   UNL     1     -10.892  12.676  67.569  1.00  0.00    -0.267 A  
HETATM   22  C   UNL     1     -10.459  11.689  66.663  1.00  0.00    -0.233 A  
HETATM   23  O   UNL     1      -9.880  10.531  67.160  1.00  0.00    -0.167 OA 
BRANCH  19  24
HETATM   24  O   UNL     1     -11.943  14.738  68.060  1.00  0.00    -0.316 OA 
BRANCH  24  25
HETATM   25  C   UNL     1     -11.739  14.481  69.477  1.00  0.00    -0.314 C  
HETATM   26  O   UNL     1     -12.487  13.378  70.011  1.00  0.00    -0.248 OA 
HETATM   27  C   UNL     1     -12.294  13.115  71.405  1.00  0.00    -0.043 C  
HETATM   28  H   UNL     1     -11.573  17.437  72.243  1.00  0.00     0.000 HD 
HETATM   29  C   UNL     1     -12.589  14.383  72.234  1.00  0.00    -0.280 C  
HETATM   30  O   UNL     1     -10.967  16.792  69.821  1.00  0.00    -0.384 OA 
HETATM   31  C   UNL     1     -11.736  15.549  71.769  1.00  0.00    -0.432 C  
HETATM   32  O   UNL     1     -12.370  14.267  73.649  1.00  0.00    -0.250 OA 
HETATM   33  H   UNL     1     -12.551  15.047  74.159  1.00  0.00     0.000 HD 
HETATM   34  H   UNL     1     -11.074  17.600  70.307  1.00  0.00     0.000 HD 
HETATM   35  O   UNL     1     -12.107  16.707  72.533  1.00  0.00    -0.409 OA 
HETATM   36  C   UNL     1     -11.912  15.801  70.272  1.00  0.00    -0.361 C  
BRANCH  27  37
HETATM   37  C   UNL     1     -13.300  12.067  71.931  1.00  0.00    -0.304 C  
BRANCH  37  38
HETATM   38  O   UNL     1     -13.527  10.905  71.144  1.00  0.00    -0.086 OA 
BRANCH  38  39
HETATM   39  C   UNL     1     -12.534   9.885  71.445  1.00  0.00    -0.398 C  
HETATM   40  C   UNL     1     -10.742   8.611  70.400  1.00  0.00    -0.224 C  
HETATM   41  O   UNL     1     -11.743   9.626  70.280  1.00  0.00    -0.240 OA 
HETATM   42  C   UNL     1     -11.301   7.287  70.953  1.00  0.00    -0.280 C  
HETATM   43  C   UNL     1      -9.522   9.127  71.157  1.00  0.00    -0.331 C  
HETATM   44  O   UNL     1     -12.192   6.701  69.988  1.00  0.00    -0.605 OA 
HETATM   45  C   UNL     1     -12.092   7.499  72.243  1.00  0.00    -0.230 C  
HETATM   46  O   UNL     1     -11.235   7.796  73.350  1.00  0.00    -0.532 OA 
HETATM   47  C   UNL     1     -13.158   8.583  72.033  1.00  0.00    -0.371 C  
HETATM   48  H   UNL     1     -12.538   5.884  70.329  1.00  0.00     0.000 HD 
HETATM   49  H   UNL     1     -11.726   7.928  74.152  1.00  0.00     0.000 HD 
HETATM   50  O   UNL     1     -13.847   8.857  73.262  1.00  0.00    -1.163 OA 
HETATM   51  H   UNL     1     -14.227   8.064  73.621  1.00  0.00     0.000 HD 
ENDBRANCH  38  39
ENDBRANCH  37  38
ENDBRANCH  27  37
ENDBRANCH  24  25
ENDBRANCH  19  24
ENDBRANCH   7  11
ENDBRANCH   2   3
TORSDOF 7
ENDMDL
MODEL       15
REMARK 921   NORMALIZED FREE ENERGY PREDICTED BY IDOCK:   -8.63 KCAL/MOL
REMARK 922        TOTAL FREE ENERGY PREDICTED BY IDOCK:  -14.10 KCAL/MOL
REMARK 923 INTER-LIGAND FREE ENERGY PREDICTED BY IDOCK:  -13.03 KCAL/MOL
REMARK 924 INTRA-LIGAND FREE ENERGY PREDICTED BY IDOCK:   -1.07 KCAL/MOL
REMARK 927      BINDING AFFINITY PREDICTED BY RF-SCORE:    0.00 PKD
ROOT
HETATM    1  C   UNL     1      -6.108  20.059  69.807  1.00  0.00    -0.349 C  
HETATM    2  O   UNL     1      -7.526  19.965  69.698  1.00  0.00    -0.165 OA 
ENDROOT
BRANCH   2   3
HETATM    3  C   UNL     1      -7.983  19.042  68.792  1.00  0.00    -0.333 A  
HETATM    4  C   UNL     1      -9.368  18.938  68.689  1.00  0.00    -0.369 A  
HETATM    5  C   UNL     1      -9.965  18.024  67.823  1.00  0.00    -0.329 A  
HETATM    6  O   UNL     1     -10.181  19.725  69.459  1.00  0.00    -0.633 OA 
HETATM    7  C   UNL     1      -9.182  17.186  67.003  1.00  0.00    -0.251 A  
HETATM    8  H   UNL     1     -11.126  19.655  69.388  1.00  0.00     0.000 HD 
HETATM    9  C   UNL     1      -7.787  17.315  67.094  1.00  0.00    -0.223 A  
HETATM   10  C   UNL     1      -7.191  18.237  67.976  1.00  0.00    -0.240 A  
BRANCH   7  11
HETATM   11  C   UNL     1      -9.812  16.191  66.092  1.00  0.00    -0.333 C  
HETATM   12  C   UNL     1     -10.810  16.563  65.276  1.00  0.00    -0.233 C  
HETATM   13  C   UNL     1     -11.486  15.557  64.457  1.00  0.00    -0.308 C  
HETATM   14  O   UNL     1     -12.404  15.861  63.710  1.00  0.00    -0.791 OA 
HETATM   15  C   UNL     1     -11.030  14.175  64.583  1.00  0.00    -0.393 A  
HETATM   16  C   UNL     1     -11.672  13.147  63.899  1.00  0.00    -0.456 A  
HETATM   17  C   UNL     1     -11.205  11.840  63.980  1.00  0.00    -0.461 A  
HETATM   18  O   UNL     1     -12.764  13.347  63.099  1.00  0.00    -0.663 OA 
HETATM   19  C   UNL     1     -10.075  11.544  64.736  1.00  0.00    -0.269 A  
HETATM   20  H   UNL     1     -13.202  12.645  62.632  1.00  0.00     0.000 HD 
HETATM   21  C   UNL     1      -9.440  12.586  65.452  1.00  0.00     0.091 A  
HETATM   22  C   UNL     1      -9.934  13.903  65.398  1.00  0.00    -0.247 A  
HETATM   23  O   UNL     1      -9.305  14.886  66.148  1.00  0.00    -0.292 OA 
BRANCH  19  24
HETATM   24  O   UNL     1      -9.458  10.323  64.761  1.00  0.00    -0.233 OA 
BRANCH  24  25
HETATM   25  C   UNL     1      -9.584   9.435  65.906  1.00  0.00    -0.270 C  
HETATM   26  O   UNL     1      -9.558  10.085  67.187  1.00  0.00    -0.158 OA 
HETATM   27  C   UNL     1      -9.681   9.221  68.322  1.00  0.00    -0.150 C  
HETATM   28  H   UNL     1      -7.627   5.898  66.169  1.00  0.00     0.000 HD 
HETATM   29  C   UNL     1      -8.596   8.125  68.280  1.00  0.00    -0.130 C  
HETATM   30  O   UNL     1      -8.808   7.529  64.559  1.00  0.00    -0.265 OA 
HETATM   31  C   UNL     1      -8.660   7.342  66.983  1.00  0.00    -0.119 C  
HETATM   32  O   UNL     1      -8.651   7.153  69.337  1.00  0.00    -0.132 OA 
HETATM   33  H   UNL     1      -7.984   6.479  69.311  1.00  0.00     0.000 HD 
HETATM   34  H   UNL     1      -8.187   6.815  64.476  1.00  0.00     0.000 HD 
HETATM   35  O   UNL     1      -7.586   6.389  66.981  1.00  0.00    -0.092 OA 
HETATM   36  C   UNL     1      -8.570   8.270  65.771  1.00  0.00    -0.161 C  
BRANCH  27  37
HETATM   37  C   UNL     1      -9.417   9.978  69.642  1.00  0.00    -0.223 C  
BRANCH  37  38
HETATM   38  O   UNL     1     -10.521  10.596  70.291  1.00  0.00    -0.075 OA 
BRANCH  38  39
HETATM   39  C   UNL     1     -11.157   9.665  71.210  1.00  0.00    -0.355 C  
HETATM   40  C   UNL     1     -11.123   7.321  71.868  1.00  0.00    -0.238 C  
HETATM   41  O   UNL     1     -10.575   8.366  71.059  1.00  0.00    -0.205 OA 
HETATM   42  C   UNL     1     -12.656   7.220  71.749  1.00  0.00    -0.341 C  
HETATM   43  C   UNL     1     -10.623   7.418  73.306  1.00  0.00    -0.442 C  
HETATM   44  O   UNL     1     -13.008   6.777  70.428  1.00  0.00    -0.362 OA 
HETATM   45  C   UNL     1     -13.333   8.570  71.980  1.00  0.00    -0.369 C  
HETATM   46  O   UNL     1     -13.296   8.956  73.357  1.00  0.00    -0.827 OA 
HETATM   47  C   UNL     1     -12.710   9.633  71.066  1.00  0.00    -0.271 C  
HETATM   48  H   UNL     1     -13.953   6.714  70.354  1.00  0.00     0.000 HD 
HETATM   49  H   UNL     1     -13.717   9.796  73.500  1.00  0.00     0.000 HD 
HETATM   50  O   UNL     1     -13.274  10.925  71.336  1.00  0.00    -0.362 OA 
HETATM   51  H   UNL     1     -14.220  10.906  71.248  1.00  0.00     0.000 HD 
ENDBRANCH  38  39
ENDBRANCH  37  38
ENDBRANCH  27  37
ENDBRANCH  24  25
ENDBRANCH  19  24
ENDBRANCH   7  11
ENDBRANCH   2   3
TORSDOF 7
ENDMDL
MODEL       16
REMARK 921   NORMALIZED FREE ENERGY PREDICTED BY IDOCK:   -8.62 KCAL/MOL
REMARK 922        TOTAL FREE ENERGY PREDICTED BY IDOCK:  -14.08 KCAL/MOL
REMARK 923 INTER-LIGAND FREE ENERGY PREDICTED BY IDOCK:  -12.70 KCAL/MOL
REMARK 924 INTRA-LIGAND FREE ENERGY PREDICTED BY IDOCK:   -1.37 KCAL/MOL
REMARK 927      BINDING AFFINITY PREDICTED BY RF-SCORE:    0.00 PKD
ROOT
HETATM    1  C   UNL     1      -5.945  21.222  67.703  1.00  0.00    -0.357 C  
HETATM    2  O   UNL     1      -7.276  21.242  67.197  1.00  0.00    -0.475 OA 
ENDROOT
BRANCH   2   3
HETATM    3  C   UNL     1      -7.790  20.018  66.854  1.00  0.00    -0.305 A  
HETATM    4  C   UNL     1      -9.174  19.969  66.706  1.00  0.00    -0.382 A  
HETATM    5  C   UNL     1      -9.828  18.782  66.382  1.00  0.00    -0.403 A  
HETATM    6  O   UNL     1      -9.932  21.092  66.901  1.00  0.00    -0.502 OA 
HETATM    7  C   UNL     1      -9.103  17.592  66.167  1.00  0.00    -0.157 A  
HETATM    8  H   UNL     1     -10.876  21.059  66.800  1.00  0.00     0.000 HD 
HETATM    9  C   UNL     1      -7.706  17.656  66.291  1.00  0.00    -0.324 A  
HETATM   10  C   UNL     1      -7.054  18.858  66.627  1.00  0.00    -0.227 A  
BRANCH   7  11
HETATM   11  C   UNL     1      -9.796  16.315  65.842  1.00  0.00    -0.334 C  
HETATM   12  C   UNL     1     -10.882  16.320  65.053  1.00  0.00    -0.337 C  
HETATM   13  C   UNL     1     -11.612  15.074  64.819  1.00  0.00    -0.395 C  
HETATM   14  O   UNL     1     -12.609  15.046  64.114  1.00  0.00    -0.770 OA 
HETATM   15  C   UNL     1     -11.109  13.871  65.478  1.00  0.00    -0.304 A  
HETATM   16  C   UNL     1     -11.789  12.662  65.371  1.00  0.00    -0.427 A  
HETATM   17  C   UNL     1     -11.282  11.506  65.956  1.00  0.00    -0.240 A  
HETATM   18  O   UNL     1     -12.962  12.521  64.681  1.00  0.00    -0.803 OA 
HETATM   19  C   UNL     1     -10.073  11.542  66.644  1.00  0.00    -0.210 A  
HETATM   20  H   UNL     1     -13.427  11.696  64.607  1.00  0.00     0.000 HD 
HETATM   21  C   UNL     1      -9.397  12.777  66.774  1.00  0.00    -0.241 A  
HETATM   22  C   UNL     1      -9.928  13.953  66.212  1.00  0.00    -0.306 A  
HETATM   23  O   UNL     1      -9.252  15.150  66.398  1.00  0.00    -0.266 OA 
BRANCH  19  24
HETATM   24  O   UNL     1      -9.424  10.437  67.126  1.00  0.00    -0.156 OA 
BRANCH  24  25
HETATM   25  C   UNL     1      -9.653   9.119  66.556  1.00  0.00    -0.227 C  
HETATM   26  O   UNL     1     -10.352   8.199  67.410  1.00  0.00    -0.234 OA 
HETATM   27  C   UNL     1     -10.583   6.897  66.862  1.00  0.00    -0.302 C  
HETATM   28  H   UNL     1      -6.825   7.107  64.467  1.00  0.00     0.000 HD 
HETATM   29  C   UNL     1      -9.251   6.264  66.407  1.00  0.00    -0.156 C  
HETATM   30  O   UNL     1      -7.798   9.440  64.973  1.00  0.00    -0.108 OA 
HETATM   31  C   UNL     1      -8.531   7.160  65.416  1.00  0.00    -0.082 C  
HETATM   32  O   UNL     1      -9.356   4.977  65.777  1.00  0.00    -0.155 OA 
HETATM   33  H   UNL     1      -8.536   4.588  65.498  1.00  0.00     0.000 HD 
HETATM   34  H   UNL     1      -6.983   9.100  64.626  1.00  0.00     0.000 HD 
HETATM   35  O   UNL     1      -7.275   6.546  65.088  1.00  0.00    -0.065 OA 
HETATM   36  C   UNL     1      -8.322   8.562  65.988  1.00  0.00    -0.130 C  
BRANCH  27  37
HETATM   37  C   UNL     1     -11.132   5.921  67.925  1.00  0.00     0.011 C  
BRANCH  37  38
HETATM   38  O   UNL     1     -10.304   5.609  69.038  1.00  0.00    -0.202 OA 
BRANCH  38  39
HETATM   39  C   UNL     1     -10.992   5.913  70.283  1.00  0.00    -0.320 C  
HETATM   40  C   UNL     1     -12.101   7.743  71.445  1.00  0.00    -0.311 C  
HETATM   41  O   UNL     1     -11.438   7.272  70.267  1.00  0.00    -0.271 OA 
HETATM   42  C   UNL     1     -11.290   7.478  72.728  1.00  0.00    -0.336 C  
HETATM   43  C   UNL     1     -13.537   7.234  71.509  1.00  0.00    -0.442 C  
HETATM   44  O   UNL     1     -10.102   8.288  72.722  1.00  0.00    -0.294 OA 
HETATM   45  C   UNL     1     -10.853   6.017  72.832  1.00  0.00    -0.258 C  
HETATM   46  O   UNL     1     -11.951   5.155  73.145  1.00  0.00    -0.525 OA 
HETATM   47  C   UNL     1     -10.134   5.591  71.546  1.00  0.00    -0.205 C  
HETATM   48  H   UNL     1      -9.602   8.124  73.513  1.00  0.00     0.000 HD 
HETATM   49  H   UNL     1     -11.680   4.246  73.210  1.00  0.00     0.000 HD 
HETATM   50  O   UNL     1      -9.799   4.196  71.593  1.00  0.00    -0.170 OA 
HETATM   51  H   UNL     1      -9.276   4.000  72.362  1.00  0.00     0.000 HD 
ENDBRANCH  38  39
ENDBRANCH  37  38
ENDBRANCH  27  37
ENDBRANCH  24  25
ENDBRANCH  19  24
ENDBRANCH   7  11
ENDBRANCH   2   3
TORSDOF 7
ENDMDL
MODEL       17
REMARK 921   NORMALIZED FREE ENERGY PREDICTED BY IDOCK:   -8.61 KCAL/MOL
REMARK 922        TOTAL FREE ENERGY PREDICTED BY IDOCK:  -14.06 KCAL/MOL
REMARK 923 INTER-LIGAND FREE ENERGY PREDICTED BY IDOCK:  -12.67 KCAL/MOL
REMARK 924 INTRA-LIGAND FREE ENERGY PREDICTED BY IDOCK:   -1.40 KCAL/MOL
REMARK 927      BINDING AFFINITY PREDICTED BY RF-SCORE:    0.00 PKD
ROOT
HETATM    1  C   UNL     1      -5.733  21.325  67.391  1.00  0.00    -0.339 C  
HETATM    2  O   UNL     1      -7.153  21.274  67.281  1.00  0.00    -0.522 OA 
ENDROOT
BRANCH   2   3
HETATM    3  C   UNL     1      -7.668  20.056  66.920  1.00  0.00    -0.293 A  
HETATM    4  C   UNL     1      -9.058  19.967  66.927  1.00  0.00    -0.361 A  
HETATM    5  C   UNL     1      -9.712  18.780  66.602  1.00  0.00    -0.370 A  
HETATM    6  O   UNL     1      -9.820  21.049  67.278  1.00  0.00    -0.578 OA 
HETATM    7  C   UNL     1      -8.983  17.631  66.231  1.00  0.00    -0.211 A  
HETATM    8  H   UNL     1     -10.768  20.989  67.283  1.00  0.00     0.000 HD 
HETATM    9  C   UNL     1      -7.584  17.737  66.201  1.00  0.00    -0.302 A  
HETATM   10  C   UNL     1      -6.931  18.938  66.537  1.00  0.00    -0.231 A  
BRANCH   7  11
HETATM   11  C   UNL     1      -9.673  16.353  65.904  1.00  0.00    -0.294 C  
HETATM   12  C   UNL     1     -10.743  16.354  65.094  1.00  0.00    -0.309 C  
HETATM   13  C   UNL     1     -11.471  15.107  64.857  1.00  0.00    -0.374 C  
HETATM   14  O   UNL     1     -12.453  15.075  64.132  1.00  0.00    -0.756 OA 
HETATM   15  C   UNL     1     -10.985  13.909  65.539  1.00  0.00    -0.302 A  
HETATM   16  C   UNL     1     -11.667  12.701  65.430  1.00  0.00    -0.387 A  
HETATM   17  C   UNL     1     -11.176  11.550  66.036  1.00  0.00    -0.240 A  
HETATM   18  O   UNL     1     -12.825  12.556  64.717  1.00  0.00    -0.755 OA 
HETATM   19  C   UNL     1      -9.981  11.590  66.750  1.00  0.00    -0.208 A  
HETATM   20  H   UNL     1     -13.291  11.732  64.642  1.00  0.00     0.000 HD 
HETATM   21  C   UNL     1      -9.303  12.824  66.881  1.00  0.00    -0.234 A  
HETATM   22  C   UNL     1      -9.820  13.996  66.296  1.00  0.00    -0.305 A  
HETATM   23  O   UNL     1      -9.144  15.193  66.484  1.00  0.00    -0.259 OA 
BRANCH  19  24
HETATM   24  O   UNL     1      -9.345  10.488  67.255  1.00  0.00    -0.146 OA 
BRANCH  24  25
HETATM   25  C   UNL     1      -9.562   9.165  66.691  1.00  0.00    -0.203 C  
HETATM   26  O   UNL     1     -10.165   8.214  67.583  1.00  0.00    -0.201 OA 
HETATM   27  C   UNL     1     -10.383   6.907  67.039  1.00  0.00    -0.278 C  
HETATM   28  H   UNL     1      -6.807   7.277  64.397  1.00  0.00     0.000 HD 
HETATM   29  C   UNL     1      -9.062   6.330  66.490  1.00  0.00    -0.153 C  
HETATM   30  O   UNL     1      -7.832   9.568  64.989  1.00  0.00    -0.110 OA 
HETATM   31  C   UNL     1      -8.446   7.259  65.461  1.00  0.00    -0.111 C  
HETATM   32  O   UNL     1      -9.160   5.043  65.858  1.00  0.00    -0.140 OA 
HETATM   33  H   UNL     1      -8.348   4.687  65.519  1.00  0.00     0.000 HD 
HETATM   34  H   UNL     1      -7.030   9.261  64.584  1.00  0.00     0.000 HD 
HETATM   35  O   UNL     1      -7.193   6.695  65.042  1.00  0.00    -0.067 OA 
HETATM   36  C   UNL     1      -8.252   8.664  66.030  1.00  0.00    -0.127 C  
BRANCH  27  37
HETATM   37  C   UNL     1     -10.821   5.904  68.129  1.00  0.00    -0.236 C  
BRANCH  37  38
HETATM   38  O   UNL     1     -11.605   6.391  69.210  1.00  0.00    -0.354 OA 
BRANCH  38  39
HETATM   39  C   UNL     1     -10.755   7.004  70.219  1.00  0.00    -0.241 C  
HETATM   40  C   UNL     1      -9.582   6.482  72.288  1.00  0.00    -0.146 C  
HETATM   41  O   UNL     1     -10.389   6.026  71.198  1.00  0.00    -0.200 OA 
HETATM   42  C   UNL     1     -10.174   7.721  72.987  1.00  0.00    -0.330 C  
HETATM   43  C   UNL     1      -8.128   6.653  71.863  1.00  0.00    -0.103 C  
HETATM   44  O   UNL     1     -11.391   7.357  73.661  1.00  0.00    -0.564 OA 
HETATM   45  C   UNL     1     -10.511   8.829  71.990  1.00  0.00    -0.344 C  
HETATM   46  O   UNL     1      -9.335   9.466  71.485  1.00  0.00    -0.271 OA 
HETATM   47  C   UNL     1     -11.393   8.272  70.865  1.00  0.00    -0.268 C  
HETATM   48  H   UNL     1     -11.756   8.121  74.092  1.00  0.00     0.000 HD 
HETATM   49  H   UNL     1      -9.544  10.155  70.865  1.00  0.00     0.000 HD 
HETATM   50  O   UNL     1     -11.643   9.279  69.873  1.00  0.00    -0.444 OA 
HETATM   51  H   UNL     1     -12.032  10.051  70.266  1.00  0.00     0.000 HD 
ENDBRANCH  38  39
ENDBRANCH  37  38
ENDBRANCH  27  37
ENDBRANCH  24  25
ENDBRANCH  19  24
ENDBRANCH   7  11
ENDBRANCH   2   3
TORSDOF 7
ENDMDL
MODEL       18
REMARK 921   NORMALIZED FREE ENERGY PREDICTED BY IDOCK:   -8.58 KCAL/MOL
REMARK 922        TOTAL FREE ENERGY PREDICTED BY IDOCK:  -14.03 KCAL/MOL
REMARK 923 INTER-LIGAND FREE ENERGY PREDICTED BY IDOCK:  -12.19 KCAL/MOL
REMARK 924 INTRA-LIGAND FREE ENERGY PREDICTED BY IDOCK:   -1.84 KCAL/MOL
REMARK 927      BINDING AFFINITY PREDICTED BY RF-SCORE:    0.00 PKD
ROOT
HETATM    1  C   UNL     1     -12.296  15.592  73.980  1.00  0.00    -0.660 C  
HETATM    2  O   UNL     1     -13.125  14.664  73.285  1.00  0.00    -0.519 OA 
ENDROOT
BRANCH   2   3
HETATM    3  C   UNL     1     -12.844  14.514  71.951  1.00  0.00    -0.338 A  
HETATM    4  C   UNL     1     -12.913  13.210  71.466  1.00  0.00    -0.321 A  
HETATM    5  C   UNL     1     -12.629  12.914  70.134  1.00  0.00    -0.016 A  
HETATM    6  O   UNL     1     -13.242  12.177  72.302  1.00  0.00    -0.489 OA 
HETATM    7  C   UNL     1     -12.285  13.935  69.224  1.00  0.00    -0.319 A  
HETATM    8  H   UNL     1     -13.289  11.287  71.971  1.00  0.00     0.000 HD 
HETATM    9  C   UNL     1     -12.244  15.249  69.714  1.00  0.00    -0.326 A  
HETATM   10  C   UNL     1     -12.525  15.539  71.063  1.00  0.00    -0.492 A  
BRANCH   7  11
HETATM   11  C   UNL     1     -11.959  13.624  67.805  1.00  0.00    -0.352 C  
HETATM   12  C   UNL     1     -12.395  14.427  66.823  1.00  0.00    -0.204 C  
HETATM   13  C   UNL     1     -12.151  14.060  65.427  1.00  0.00    -0.401 C  
HETATM   14  O   UNL     1     -12.542  14.765  64.509  1.00  0.00    -0.574 OA 
HETATM   15  C   UNL     1     -11.439  12.809  65.179  1.00  0.00    -0.356 A  
HETATM   16  C   UNL     1     -11.236  12.349  63.882  1.00  0.00    -0.422 A  
HETATM   17  C   UNL     1     -10.514  11.185  63.645  1.00  0.00    -0.438 A  
HETATM   18  O   UNL     1     -11.700  13.004  62.774  1.00  0.00    -0.692 OA 
HETATM   19  C   UNL     1      -9.967  10.471  64.708  1.00  0.00    -0.345 A  
HETATM   20  H   UNL     1     -11.561  12.690  61.888  1.00  0.00     0.000 HD 
HETATM   21  C   UNL     1     -10.196  10.926  66.027  1.00  0.00    -0.311 A  
HETATM   22  C   UNL     1     -10.958  12.086  66.268  1.00  0.00    -0.299 A  
HETATM   23  O   UNL     1     -11.192  12.473  67.578  1.00  0.00    -0.259 OA 
BRANCH  19  24
HETATM   24  O   UNL     1      -9.124   9.402  64.569  1.00  0.00    -0.222 OA 
BRANCH  24  25
HETATM   25  C   UNL     1      -8.074   9.137  65.541  1.00  0.00    -0.115 C  
HETATM   26  O   UNL     1      -8.526   8.613  66.799  1.00  0.00    -0.112 OA 
HETATM   27  C   UNL     1      -7.502   8.349  67.764  1.00  0.00    -0.098 C  
HETATM   28  H   UNL     1      -4.991  11.684  66.192  1.00  0.00     0.000 HD 
HETATM   29  C   UNL     1      -6.659   9.617  68.010  1.00  0.00    -0.061 C  
HETATM   30  O   UNL     1      -6.570  10.714  64.399  1.00  0.00    -0.356 OA 
HETATM   31  C   UNL     1      -6.072  10.143  66.714  1.00  0.00    -0.060 C  
HETATM   32  O   UNL     1      -5.554   9.464  68.916  1.00  0.00    -0.037 OA 
HETATM   33  H   UNL     1      -5.035  10.245  69.068  1.00  0.00     0.000 HD 
HETATM   34  H   UNL     1      -6.012  11.478  64.479  1.00  0.00     0.000 HD 
HETATM   35  O   UNL     1      -5.359  11.355  67.004  1.00  0.00    -0.065 OA 
HETATM   36  C   UNL     1      -7.163  10.385  65.671  1.00  0.00    -0.146 C  
BRANCH  27  37
HETATM   37  C   UNL     1      -8.099   8.006  69.147  1.00  0.00    -0.119 C  
BRANCH  37  38
HETATM   38  O   UNL     1      -9.316   7.273  69.187  1.00  0.00    -0.147 OA 
BRANCH  38  39
HETATM   39  C   UNL     1     -10.151   7.734  70.286  1.00  0.00    -0.195 C  
HETATM   40  C   UNL     1     -11.567   6.893  72.080  1.00  0.00    -0.285 C  
HETATM   41  O   UNL     1     -10.686   6.608  70.989  1.00  0.00    -0.225 OA 
HETATM   42  C   UNL     1     -12.709   7.849  71.686  1.00  0.00    -0.330 C  
HETATM   43  C   UNL     1     -10.790   7.341  73.313  1.00  0.00    -0.404 C  
HETATM   44  O   UNL     1     -13.594   7.188  70.765  1.00  0.00    -0.521 OA 
HETATM   45  C   UNL     1     -12.183   9.109  70.997  1.00  0.00    -0.242 C  
HETATM   46  O   UNL     1     -11.537   9.989  71.921  1.00  0.00    -0.114 OA 
HETATM   47  C   UNL     1     -11.266   8.724  69.829  1.00  0.00     0.007 C  
HETATM   48  H   UNL     1     -14.298   7.777  70.522  1.00  0.00     0.000 HD 
HETATM   49  H   UNL     1     -11.210  10.773  71.494  1.00  0.00     0.000 HD 
HETATM   50  O   UNL     1     -10.693   9.897  69.231  1.00  0.00    -0.207 OA 
HETATM   51  H   UNL     1     -11.372  10.500  68.953  1.00  0.00     0.000 HD 
ENDBRANCH  38  39
ENDBRANCH  37  38
ENDBRANCH  27  37
ENDBRANCH  24  25
ENDBRANCH  19  24
ENDBRANCH   7  11
ENDBRANCH   2   3
TORSDOF 7
ENDMDL
MODEL       19
REMARK 921   NORMALIZED FREE ENERGY PREDICTED BY IDOCK:   -8.53 KCAL/MOL
REMARK 922        TOTAL FREE ENERGY PREDICTED BY IDOCK:  -13.95 KCAL/MOL
REMARK 923 INTER-LIGAND FREE ENERGY PREDICTED BY IDOCK:  -12.61 KCAL/MOL
REMARK 924 INTRA-LIGAND FREE ENERGY PREDICTED BY IDOCK:   -1.33 KCAL/MOL
REMARK 927      BINDING AFFINITY PREDICTED BY RF-SCORE:    0.00 PKD
ROOT
HETATM    1  C   UNL     1     -11.340   2.705  73.826  1.00  0.00    -0.142 C  
HETATM    2  O   UNL     1     -10.077   2.929  73.206  1.00  0.00    -0.108 OA 
ENDROOT
BRANCH   2   3
HETATM    3  C   UNL     1     -10.088   3.814  72.159  1.00  0.00    -0.150 A  
HETATM    4  C   UNL     1      -9.807   3.267  70.909  1.00  0.00    -0.015 A  
HETATM    5  C   UNL     1      -9.763   4.059  69.763  1.00  0.00    -0.254 A  
HETATM    6  O   UNL     1      -9.543   1.930  70.781  1.00  0.00    -0.122 OA 
HETATM    7  C   UNL     1     -10.028   5.442  69.829  1.00  0.00    -0.294 A  
HETATM    8  H   UNL     1      -9.352   1.557  69.929  1.00  0.00     0.000 HD 
HETATM    9  C   UNL     1     -10.336   5.981  71.088  1.00  0.00    -0.267 A  
HETATM   10  C   UNL     1     -10.371   5.175  72.243  1.00  0.00    -0.267 A  
BRANCH   7  11
HETATM   11  C   UNL     1      -9.961   6.298  68.613  1.00  0.00    -0.145 C  
HETATM   12  C   UNL     1      -9.457   5.807  67.470  1.00  0.00    -0.112 C  
HETATM   13  C   UNL     1      -9.307   6.685  66.310  1.00  0.00    -0.105 C  
HETATM   14  O   UNL     1      -8.844   6.272  65.258  1.00  0.00    -0.069 OA 
HETATM   15  C   UNL     1      -9.717   8.079  66.469  1.00  0.00    -0.297 A  
HETATM   16  C   UNL     1      -9.535   8.997  65.439  1.00  0.00    -0.092 A  
HETATM   17  C   UNL     1      -9.972  10.310  65.572  1.00  0.00    -0.364 A  
HETATM   18  O   UNL     1      -8.949   8.677  64.245  1.00  0.00    -0.418 OA 
HETATM   19  C   UNL     1     -10.617  10.720  66.736  1.00  0.00    -0.250 A  
HETATM   20  H   UNL     1      -8.825   9.304  63.542  1.00  0.00     0.000 HD 
HETATM   21  C   UNL     1     -10.778   9.791  67.791  1.00  0.00    -0.329 A  
HETATM   22  C   UNL     1     -10.303   8.472  67.669  1.00  0.00    -0.253 A  
HETATM   23  O   UNL     1     -10.446   7.606  68.743  1.00  0.00    -0.207 OA 
BRANCH  19  24
HETATM   24  O   UNL     1     -11.209  11.942  66.903  1.00  0.00    -0.290 OA 
BRANCH  24  25
HETATM   25  C   UNL     1     -10.988  13.024  65.957  1.00  0.00    -0.275 C  
HETATM   26  O   UNL     1     -10.095  14.055  66.408  1.00  0.00    -0.278 OA 
HETATM   27  C   UNL     1      -9.869  15.127  65.486  1.00  0.00    -0.321 C  
HETATM   28  H   UNL     1     -13.981  14.707  63.805  1.00  0.00     0.000 HD 
HETATM   29  C   UNL     1     -11.212  15.760  65.064  1.00  0.00    -0.308 C  
HETATM   30  O   UNL     1     -13.100  12.501  64.809  1.00  0.00    -0.853 OA 
HETATM   31  C   UNL     1     -12.147  14.718  64.480  1.00  0.00    -0.446 C  
HETATM   32  O   UNL     1     -11.125  16.811  64.087  1.00  0.00    -1.346 OA 
HETATM   33  H   UNL     1     -11.951  17.200  63.827  1.00  0.00     0.000 HD 
HETATM   34  H   UNL     1     -13.936  12.825  64.498  1.00  0.00     0.000 HD 
HETATM   35  O   UNL     1     -13.395  15.359  64.172  1.00  0.00     0.199 OA 
HETATM   36  C   UNL     1     -12.354  13.555  65.449  1.00  0.00    -0.478 C  
BRANCH  27  37
HETATM   37  C   UNL     1      -9.084  16.284  66.141  1.00  0.00    -0.341 C  
BRANCH  37  38
HETATM   38  O   UNL     1      -9.681  17.574  66.155  1.00  0.00    -0.405 OA 
BRANCH  38  39
HETATM   39  C   UNL     1      -8.663  18.604  66.298  1.00  0.00    -0.215 C  
HETATM   40  C   UNL     1      -6.339  19.070  65.742  1.00  0.00    -0.235 C  
HETATM   41  O   UNL     1      -7.457  18.180  65.655  1.00  0.00    -0.535 OA 
HETATM   42  C   UNL     1      -6.032  19.498  67.190  1.00  0.00    -0.178 C  
HETATM   43  C   UNL     1      -6.488  20.238  64.774  1.00  0.00    -0.326 C  
HETATM   44  O   UNL     1      -5.559  18.365  67.937  1.00  0.00    -0.162 OA 
HETATM   45  C   UNL     1      -7.276  20.032  67.899  1.00  0.00    -0.290 C  
HETATM   46  O   UNL     1      -7.650  21.326  67.415  1.00  0.00    -0.627 OA 
HETATM   47  C   UNL     1      -8.423  19.020  67.782  1.00  0.00    -0.293 C  
HETATM   48  H   UNL     1      -5.370  18.629  68.830  1.00  0.00     0.000 HD 
HETATM   49  H   UNL     1      -8.424  21.658  67.856  1.00  0.00     0.000 HD 
HETATM   50  O   UNL     1      -9.624  19.547  68.365  1.00  0.00    -0.350 OA 
HETATM   51  H   UNL     1      -9.478  19.801  69.269  1.00  0.00     0.000 HD 
ENDBRANCH  38  39
ENDBRANCH  37  38
ENDBRANCH  27  37
ENDBRANCH  24  25
ENDBRANCH  19  24
ENDBRANCH   7  11
ENDBRANCH   2   3
TORSDOF 7
ENDMDL
MODEL       20
REMARK 921   NORMALIZED FREE ENERGY PREDICTED BY IDOCK:   -8.47 KCAL/MOL
REMARK 922        TOTAL FREE ENERGY PREDICTED BY IDOCK:  -13.87 KCAL/MOL
REMARK 923 INTER-LIGAND FREE ENERGY PREDICTED BY IDOCK:  -12.20 KCAL/MOL
REMARK 924 INTRA-LIGAND FREE ENERGY PREDICTED BY IDOCK:   -1.67 KCAL/MOL
REMARK 927      BINDING AFFINITY PREDICTED BY RF-SCORE:    0.00 PKD
ROOT
HETATM    1  C   UNL     1      -6.250   4.319  65.957  1.00  0.00    -0.032 C  
HETATM    2  O   UNL     1      -7.531   3.828  66.340  1.00  0.00    -0.080 OA 
ENDROOT
BRANCH   2   3
HETATM    3  C   UNL     1      -8.219   4.617  67.226  1.00  0.00    -0.105 A  
HETATM    4  C   UNL     1      -9.607   4.522  67.161  1.00  0.00    -0.186 A  
HETATM    5  C   UNL     1     -10.427   5.285  67.989  1.00  0.00    -0.143 A  
HETATM    6  O   UNL     1     -10.203   3.683  66.257  1.00  0.00    -0.364 OA 
HETATM    7  C   UNL     1      -9.874   6.166  68.941  1.00  0.00    -0.167 A  
HETATM    8  H   UNL     1     -11.149   3.618  66.212  1.00  0.00     0.000 HD 
HETATM    9  C   UNL     1      -8.474   6.236  69.019  1.00  0.00    -0.120 A  
HETATM   10  C   UNL     1      -7.653   5.466  68.173  1.00  0.00    -0.081 A  
BRANCH   7  11
HETATM   11  C   UNL     1     -10.744   7.001  69.814  1.00  0.00    -0.241 C  
HETATM   12  C   UNL     1     -11.577   6.419  70.690  1.00  0.00    -0.412 C  
HETATM   13  C   UNL     1     -12.496   7.246  71.474  1.00  0.00    -0.373 C  
HETATM   14  O   UNL     1     -13.273   6.746  72.273  1.00  0.00    -0.035 OA 
HETATM   15  C   UNL     1     -12.457   8.688  71.246  1.00  0.00    -0.284 A  
HETATM   16  C   UNL     1     -13.351   9.536  71.892  1.00  0.00    -0.437 A  
HETATM   17  C   UNL     1     -13.280  10.913  71.714  1.00  0.00    -0.513 A  
HETATM   18  O   UNL     1     -14.323   9.090  72.745  1.00  0.00    -0.940 OA 
HETATM   19  C   UNL     1     -12.297  11.464  70.897  1.00  0.00    -0.381 A  
HETATM   20  H   UNL     1     -14.934   9.669  73.186  1.00  0.00     0.000 HD 
HETATM   21  C   UNL     1     -11.406  10.599  70.221  1.00  0.00    -0.401 A  
HETATM   22  C   UNL     1     -11.501   9.203  70.373  1.00  0.00    -0.194 A  
HETATM   23  O   UNL     1     -10.633   8.390  69.660  1.00  0.00    -0.224 OA 
BRANCH  19  24
HETATM   24  O   UNL     1     -12.055  12.806  70.774  1.00  0.00    -0.331 OA 
BRANCH  24  25
HETATM   25  C   UNL     1     -12.117  13.470  69.482  1.00  0.00    -0.297 C  
HETATM   26  O   UNL     1     -11.563  12.724  68.386  1.00  0.00    -0.281 OA 
HETATM   27  C   UNL     1     -11.618  13.367  67.108  1.00  0.00    -0.358 C  
HETATM   28  H   UNL     1     -11.256  17.398  68.986  1.00  0.00     0.000 HD 
HETATM   29  C   UNL     1     -10.944  14.753  67.178  1.00  0.00    -0.320 C  
HETATM   30  O   UNL     1     -12.310  15.664  70.577  1.00  0.00    -0.397 OA 
HETATM   31  C   UNL     1     -11.575  15.614  68.255  1.00  0.00    -0.319 C  
HETATM   32  O   UNL     1     -10.989  15.530  65.969  1.00  0.00    -0.316 OA 
HETATM   33  H   UNL     1     -10.574  16.382  66.012  1.00  0.00     0.000 HD 
HETATM   34  H   UNL     1     -11.965  16.545  70.657  1.00  0.00     0.000 HD 
HETATM   35  O   UNL     1     -10.860  16.858  68.311  1.00  0.00    -0.362 OA 
HETATM   36  C   UNL     1     -11.553  14.908  69.611  1.00  0.00    -0.303 C  
BRANCH  27  37
HETATM   37  C   UNL     1     -10.805  12.594  66.047  1.00  0.00    -0.277 C  
BRANCH  37  38
HETATM   38  O   UNL     1     -11.412  11.467  65.429  1.00  0.00    -0.167 OA 
BRANCH  38  39
HETATM   39  C   UNL     1     -10.398  10.519  64.992  1.00  0.00    -0.240 C  
HETATM   40  C   UNL     1      -8.452   9.307  65.810  1.00  0.00    -0.135 C  
HETATM   41  O   UNL     1      -9.534  10.201  66.088  1.00  0.00    -0.170 OA 
HETATM   42  C   UNL     1      -7.611   9.750  64.597  1.00  0.00    -0.134 C  
HETATM   43  C   UNL     1      -8.937   7.864  65.728  1.00  0.00    -0.125 C  
HETATM   44  O   UNL     1      -6.909  10.963  64.916  1.00  0.00    -0.350 OA 
HETATM   45  C   UNL     1      -8.484  10.028  63.374  1.00  0.00    -0.182 C  
HETATM   46  O   UNL     1      -8.991   8.822  62.796  1.00  0.00    -0.433 OA 
HETATM   47  C   UNL     1      -9.606  11.008  63.741  1.00  0.00    -0.286 C  
HETATM   48  H   UNL     1      -6.391  11.237  64.168  1.00  0.00     0.000 HD 
HETATM   49  H   UNL     1      -9.534   8.995  62.036  1.00  0.00     0.000 HD 
HETATM   50  O   UNL     1     -10.487  11.208  62.625  1.00  0.00    -0.701 OA 
HETATM   51  H   UNL     1     -10.004  11.506  61.863  1.00  0.00     0.000 HD 
ENDBRANCH  38  39
ENDBRANCH  37  38
ENDBRANCH  27  37
ENDBRANCH  24  25
ENDBRANCH  19  24
ENDBRANCH   7  11
ENDBRANCH   2   3
TORSDOF 7
ENDMDL
MODEL       21
REMARK 921   NORMALIZED FREE ENERGY PREDICTED BY IDOCK:   -8.33 KCAL/MOL
REMARK 922        TOTAL FREE ENERGY PREDICTED BY IDOCK:  -13.67 KCAL/MOL
REMARK 923 INTER-LIGAND FREE ENERGY PREDICTED BY IDOCK:  -11.53 KCAL/MOL
REMARK 924 INTRA-LIGAND FREE ENERGY PREDICTED BY IDOCK:   -2.15 KCAL/MOL
REMARK 927      BINDING AFFINITY PREDICTED BY RF-SCORE:    0.00 PKD
ROOT
HETATM    1  C   UNL     1      -6.290  19.185  66.870  1.00  0.00    -0.186 C  
HETATM    2  O   UNL     1      -7.352  18.499  66.212  1.00  0.00    -0.231 OA 
ENDROOT
BRANCH   2   3
HETATM    3  C   UNL     1      -8.244  17.869  67.042  1.00  0.00    -0.226 A  
HETATM    4  C   UNL     1      -8.057  16.497  67.190  1.00  0.00    -0.183 A  
HETATM    5  C   UNL     1      -8.906  15.730  67.987  1.00  0.00    -0.176 A  
HETATM    6  O   UNL     1      -7.039  15.860  66.532  1.00  0.00    -0.166 OA 
HETATM    7  C   UNL     1      -9.971  16.327  68.692  1.00  0.00    -0.233 A  
HETATM    8  H   UNL     1      -6.912  14.924  66.632  1.00  0.00     0.000 HD 
HETATM    9  C   UNL     1     -10.136  17.714  68.559  1.00  0.00    -0.375 A  
HETATM   10  C   UNL     1      -9.278  18.481  67.746  1.00  0.00    -0.295 A  
BRANCH   7  11
HETATM   11  C   UNL     1     -10.895  15.511  69.527  1.00  0.00    -0.267 C  
HETATM   12  C   UNL     1     -11.708  16.109  70.411  1.00  0.00    -0.237 C  
HETATM   13  C   UNL     1     -12.541  15.292  71.294  1.00  0.00    -0.383 C  
HETATM   14  O   UNL     1     -13.285  15.805  72.117  1.00  0.00    -0.452 OA 
HETATM   15  C   UNL     1     -12.431  13.841  71.164  1.00  0.00    -0.450 A  
HETATM   16  C   UNL     1     -13.130  12.993  72.018  1.00  0.00    -0.379 A  
HETATM   17  C   UNL     1     -13.065  11.614  71.860  1.00  0.00    -0.490 A  
HETATM   18  O   UNL     1     -13.929  13.445  73.033  1.00  0.00    -0.477 OA 
HETATM   19  C   UNL     1     -12.310  11.061  70.829  1.00  0.00    -0.398 A  
HETATM   20  H   UNL     1     -14.406  12.867  73.616  1.00  0.00     0.000 HD 
HETATM   21  C   UNL     1     -11.581  11.923  69.978  1.00  0.00    -0.301 A  
HETATM   22  C   UNL     1     -11.619  13.319  70.161  1.00  0.00    -0.084 A  
HETATM   23  O   UNL     1     -10.856  14.124  69.329  1.00  0.00    -0.244 OA 
BRANCH  19  24
HETATM   24  O   UNL     1     -12.301   9.732  70.504  1.00  0.00    -0.214 OA 
BRANCH  24  25
HETATM   25  C   UNL     1     -11.134   9.111  69.898  1.00  0.00    -0.159 C  
HETATM   26  O   UNL     1     -10.987   9.336  68.487  1.00  0.00    -0.122 OA 
HETATM   27  C   UNL     1      -9.842   8.729  67.878  1.00  0.00    -0.169 C  
HETATM   28  H   UNL     1      -9.951   5.335  70.771  1.00  0.00     0.000 HD 
HETATM   29  C   UNL     1      -9.827   7.212  68.160  1.00  0.00    -0.143 C  
HETATM   30  O   UNL     1     -10.998   7.484  71.738  1.00  0.00    -0.229 OA 
HETATM   31  C   UNL     1      -9.872   6.933  69.650  1.00  0.00    -0.166 C  
HETATM   32  O   UNL     1      -8.690   6.495  67.653  1.00  0.00    -0.116 OA 
HETATM   33  H   UNL     1      -8.681   5.562  67.826  1.00  0.00     0.000 HD 
HETATM   34  H   UNL     1     -10.961   6.569  71.988  1.00  0.00     0.000 HD 
HETATM   35  O   UNL     1      -9.924   5.510  69.838  1.00  0.00    -0.179 OA 
HETATM   36  C   UNL     1     -11.073   7.616  70.305  1.00  0.00    -0.244 C  
BRANCH  27  37
HETATM   37  C   UNL     1      -9.893   8.837  66.338  1.00  0.00    -0.282 C  
BRANCH  37  38
HETATM   38  O   UNL     1      -9.265   9.954  65.724  1.00  0.00    -0.156 OA 
BRANCH  38  39
HETATM   39  C   UNL     1     -10.200  11.063  65.608  1.00  0.00    -0.260 C  
HETATM   40  C   UNL     1     -11.328  12.430  63.939  1.00  0.00    -0.433 C  
HETATM   41  O   UNL     1     -10.454  11.334  64.226  1.00  0.00    -0.309 OA 
HETATM   42  C   UNL     1     -10.907  13.728  64.654  1.00  0.00    -0.406 C  
HETATM   43  C   UNL     1     -12.786  12.047  64.169  1.00  0.00    -0.361 C  
HETATM   44  O   UNL     1      -9.664  14.198  64.105  1.00  0.00    -0.256 OA 
HETATM   45  C   UNL     1     -10.697  13.509  66.152  1.00  0.00    -0.289 C  
HETATM   46  O   UNL     1     -11.937  13.330  66.842  1.00  0.00    -0.383 OA 
HETATM   47  C   UNL     1      -9.735  12.335  66.381  1.00  0.00    -0.234 C  
HETATM   48  H   UNL     1      -9.404  14.999  64.546  1.00  0.00     0.000 HD 
HETATM   49  H   UNL     1     -11.807  13.193  67.773  1.00  0.00     0.000 HD 
HETATM   50  O   UNL     1      -9.601  12.059  67.783  1.00  0.00    -0.183 OA 
HETATM   51  H   UNL     1      -9.318  12.834  68.254  1.00  0.00     0.000 HD 
ENDBRANCH  38  39
ENDBRANCH  37  38
ENDBRANCH  27  37
ENDBRANCH  24  25
ENDBRANCH  19  24
ENDBRANCH   7  11
ENDBRANCH   2   3
TORSDOF 7
ENDMDL
MODEL       22
REMARK 921   NORMALIZED FREE ENERGY PREDICTED BY IDOCK:   -8.30 KCAL/MOL
REMARK 922        TOTAL FREE ENERGY PREDICTED BY IDOCK:  -13.63 KCAL/MOL
REMARK 923 INTER-LIGAND FREE ENERGY PREDICTED BY IDOCK:  -11.24 KCAL/MOL
REMARK 924 INTRA-LIGAND FREE ENERGY PREDICTED BY IDOCK:   -2.39 KCAL/MOL
REMARK 927      BINDING AFFINITY PREDICTED BY RF-SCORE:    0.00 PKD
ROOT
HETATM    1  C   UNL     1     -11.368   4.974  73.315  1.00  0.00    -0.317 C  
HETATM    2  O   UNL     1     -12.009   5.441  72.130  1.00  0.00     0.044 OA 
ENDROOT
BRANCH   2   3
HETATM    3  C   UNL     1     -12.006   6.802  71.961  1.00  0.00    -0.317 A  
HETATM    4  C   UNL     1     -13.260   7.408  71.959  1.00  0.00    -0.136 A  
HETATM    5  C   UNL     1     -13.402   8.782  71.773  1.00  0.00    -0.421 A  
HETATM    6  O   UNL     1     -14.393   6.657  72.117  1.00  0.00    -0.565 OA 
HETATM    7  C   UNL     1     -12.273   9.610  71.606  1.00  0.00    -0.484 A  
HETATM    8  H   UNL     1     -15.248   7.070  72.116  1.00  0.00     0.000 HD 
HETATM    9  C   UNL     1     -11.012   8.995  71.636  1.00  0.00    -0.435 A  
HETATM   10  C   UNL     1     -10.877   7.605  71.817  1.00  0.00    -0.266 A  
BRANCH   7  11
HETATM   11  C   UNL     1     -12.418  11.075  71.385  1.00  0.00    -0.331 C  
HETATM   12  C   UNL     1     -13.142  11.816  72.238  1.00  0.00    -0.086 C  
HETATM   13  C   UNL     1     -13.358  13.236  71.959  1.00  0.00    -0.489 C  
HETATM   14  O   UNL     1     -14.019  13.936  72.710  1.00  0.00    -0.697 OA 
HETATM   15  C   UNL     1     -12.765  13.774  70.736  1.00  0.00    -0.361 A  
HETATM   16  C   UNL     1     -12.989  15.095  70.357  1.00  0.00    -0.256 A  
HETATM   17  C   UNL     1     -12.383  15.620  69.222  1.00  0.00    -0.063 A  
HETATM   18  O   UNL     1     -13.780  15.954  71.069  1.00  0.00    -0.569 OA 
HETATM   19  C   UNL     1     -11.528  14.833  68.456  1.00  0.00    -0.308 A  
HETATM   20  H   UNL     1     -13.933  16.855  70.811  1.00  0.00     0.000 HD 
HETATM   21  C   UNL     1     -11.323  13.485  68.828  1.00  0.00    -0.329 A  
HETATM   22  C   UNL     1     -11.964  12.943  69.958  1.00  0.00    -0.309 A  
HETATM   23  O   UNL     1     -11.767  11.604  70.263  1.00  0.00    -0.325 OA 
BRANCH  19  24
HETATM   24  O   UNL     1     -10.776  15.299  67.412  1.00  0.00    -0.280 OA 
BRANCH  24  25
HETATM   25  C   UNL     1      -9.326  15.184  67.414  1.00  0.00    -0.196 C  
HETATM   26  O   UNL     1      -8.821  13.840  67.355  1.00  0.00    -0.188 OA 
HETATM   27  C   UNL     1      -7.395  13.713  67.358  1.00  0.00    -0.111 C  
HETATM   28  H   UNL     1      -6.952  17.390  69.846  1.00  0.00     0.000 HD 
HETATM   29  C   UNL     1      -6.797  14.433  68.585  1.00  0.00    -0.096 C  
HETATM   30  O   UNL     1      -9.115  17.409  68.443  1.00  0.00    -0.259 OA 
HETATM   31  C   UNL     1      -7.220  15.888  68.625  1.00  0.00    -0.139 C  
HETATM   32  O   UNL     1      -5.362  14.432  68.669  1.00  0.00    -0.085 OA 
HETATM   33  H   UNL     1      -4.994  14.874  69.424  1.00  0.00     0.000 HD 
HETATM   34  H   UNL     1      -8.758  17.923  69.157  1.00  0.00     0.000 HD 
HETATM   35  O   UNL     1      -6.687  16.478  69.821  1.00  0.00    -0.191 OA 
HETATM   36  C   UNL     1      -8.743  16.024  68.580  1.00  0.00    -0.206 C  
BRANCH  27  37
HETATM   37  C   UNL     1      -6.955  12.242  67.519  1.00  0.00    -0.142 C  
BRANCH  37  38
HETATM   38  O   UNL     1      -7.359  11.310  66.524  1.00  0.00    -0.143 OA 
BRANCH  38  39
HETATM   39  C   UNL     1      -8.255  10.315  67.093  1.00  0.00    -0.121 C  
HETATM   40  C   UNL     1      -8.338   7.959  67.702  1.00  0.00    -0.124 C  
HETATM   41  O   UNL     1      -7.576   9.060  67.196  1.00  0.00    -0.090 OA 
HETATM   42  C   UNL     1      -9.672   7.768  66.956  1.00  0.00    -0.197 C  
HETATM   43  C   UNL     1      -8.488   8.044  69.217  1.00  0.00    -0.136 C  
HETATM   44  O   UNL     1      -9.413   7.344  65.607  1.00  0.00    -0.377 OA 
HETATM   45  C   UNL     1     -10.474   9.067  66.885  1.00  0.00    -0.223 C  
HETATM   46  O   UNL     1     -11.038   9.414  68.154  1.00  0.00    -0.489 OA 
HETATM   47  C   UNL     1      -9.601  10.193  66.315  1.00  0.00    -0.193 C  
HETATM   48  H   UNL     1     -10.236   7.226  65.147  1.00  0.00     0.000 HD 
HETATM   49  H   UNL     1     -11.537  10.222  68.110  1.00  0.00     0.000 HD 
HETATM   50  O   UNL     1     -10.313  11.440  66.328  1.00  0.00    -0.228 OA 
HETATM   51  H   UNL     1     -11.133  11.365  65.855  1.00  0.00     0.000 HD 
ENDBRANCH  38  39
ENDBRANCH  37  38
ENDBRANCH  27  37
ENDBRANCH  24  25
ENDBRANCH  19  24
ENDBRANCH   7  11
ENDBRANCH   2   3
TORSDOF 7
ENDMDL
MODEL       23
REMARK 921   NORMALIZED FREE ENERGY PREDICTED BY IDOCK:   -8.28 KCAL/MOL
REMARK 922        TOTAL FREE ENERGY PREDICTED BY IDOCK:  -13.60 KCAL/MOL
REMARK 923 INTER-LIGAND FREE ENERGY PREDICTED BY IDOCK:  -11.91 KCAL/MOL
REMARK 924 INTRA-LIGAND FREE ENERGY PREDICTED BY IDOCK:   -1.69 KCAL/MOL
REMARK 927      BINDING AFFINITY PREDICTED BY RF-SCORE:    0.00 PKD
ROOT
HETATM    1  C   UNL     1      -6.262  21.261  66.365  1.00  0.00    -0.262 C  
HETATM    2  O   UNL     1      -7.337  21.337  67.296  1.00  0.00    -0.484 OA 
ENDROOT
BRANCH   2   3
HETATM    3  C   UNL     1      -7.908  20.135  67.630  1.00  0.00    -0.300 A  
HETATM    4  C   UNL     1      -9.218  19.952  67.193  1.00  0.00    -0.357 A  
HETATM    5  C   UNL     1      -9.923  18.786  67.483  1.00  0.00    -0.382 A  
HETATM    6  O   UNL     1      -9.855  20.933  66.481  1.00  0.00    -0.559 OA 
HETATM    7  C   UNL     1      -9.322  17.738  68.210  1.00  0.00    -0.288 A  
HETATM    8  H   UNL     1     -10.748  20.808  66.183  1.00  0.00     0.000 HD 
HETATM    9  C   UNL     1      -7.993  17.920  68.624  1.00  0.00    -0.285 A  
HETATM   10  C   UNL     1      -7.289  19.104  68.333  1.00  0.00    -0.333 A  
BRANCH   7  11
HETATM   11  C   UNL     1     -10.077  16.499  68.543  1.00  0.00    -0.255 C  
HETATM   12  C   UNL     1     -10.708  16.391  69.722  1.00  0.00    -0.324 C  
HETATM   13  C   UNL     1     -11.365  15.132  70.078  1.00  0.00    -0.277 C  
HETATM   14  O   UNL     1     -11.941  14.998  71.147  1.00  0.00    -0.281 OA 
HETATM   15  C   UNL     1     -11.286  14.040  69.110  1.00  0.00    -0.323 A  
HETATM   16  C   UNL     1     -11.816  12.787  69.405  1.00  0.00    -0.300 A  
HETATM   17  C   UNL     1     -11.786  11.764  68.464  1.00  0.00    -0.365 A  
HETATM   18  O   UNL     1     -12.410  12.488  70.600  1.00  0.00    -0.355 OA 
HETATM   19  C   UNL     1     -11.239  11.987  67.203  1.00  0.00    -0.316 A  
HETATM   20  H   UNL     1     -12.772  11.633  70.801  1.00  0.00     0.000 HD 
HETATM   21  C   UNL     1     -10.678  13.253  66.916  1.00  0.00    -0.274 A  
HETATM   22  C   UNL     1     -10.677  14.278  67.881  1.00  0.00    -0.240 A  
HETATM   23  O   UNL     1     -10.080  15.490  67.570  1.00  0.00    -0.237 OA 
BRANCH  19  24
HETATM   24  O   UNL     1     -11.295  11.095  66.167  1.00  0.00    -0.150 OA 
BRANCH  24  25
HETATM   25  C   UNL     1     -10.385   9.962  66.096  1.00  0.00    -0.153 C  
HETATM   26  O   UNL     1     -10.571   8.966  67.114  1.00  0.00    -0.286 OA 
HETATM   27  C   UNL     1      -9.681   7.846  67.055  1.00  0.00    -0.206 C  
HETATM   28  H   UNL     1      -6.425  10.369  65.341  1.00  0.00     0.000 HD 
HETATM   29  C   UNL     1      -8.215   8.327  67.069  1.00  0.00    -0.104 C  
HETATM   30  O   UNL     1      -8.771  11.293  64.802  1.00  0.00    -0.377 OA 
HETATM   31  C   UNL     1      -7.949   9.302  65.938  1.00  0.00    -0.106 C  
HETATM   32  O   UNL     1      -7.220   7.296  66.950  1.00  0.00    -0.083 OA 
HETATM   33  H   UNL     1      -6.318   7.592  66.959  1.00  0.00     0.000 HD 
HETATM   34  H   UNL     1      -7.878  11.609  64.730  1.00  0.00     0.000 HD 
HETATM   35  O   UNL     1      -6.592   9.758  66.050  1.00  0.00    -0.076 OA 
HETATM   36  C   UNL     1      -8.927  10.476  65.979  1.00  0.00    -0.167 C  
BRANCH  27  37
HETATM   37  C   UNL     1      -9.808   6.952  68.308  1.00  0.00    -0.138 C  
BRANCH  37  38
HETATM   38  O   UNL     1     -11.111   6.671  68.801  1.00  0.00    -0.263 OA 
BRANCH  38  39
HETATM   39  C   UNL     1     -11.232   7.092  70.188  1.00  0.00    -0.284 C  
HETATM   40  C   UNL     1     -11.233   9.094  71.574  1.00  0.00    -0.360 C  
HETATM   41  O   UNL     1     -11.170   8.520  70.265  1.00  0.00    -0.248 OA 
HETATM   42  C   UNL     1     -10.207   8.476  72.543  1.00  0.00    -0.253 C  
HETATM   43  C   UNL     1     -12.662   9.091  72.109  1.00  0.00    -0.470 C  
HETATM   44  O   UNL     1      -8.878   8.840  72.132  1.00  0.00    -0.345 OA 
HETATM   45  C   UNL     1     -10.285   6.950  72.556  1.00  0.00    -0.183 C  
HETATM   46  O   UNL     1     -11.456   6.483  73.231  1.00  0.00    -0.458 OA 
HETATM   47  C   UNL     1     -10.189   6.407  71.125  1.00  0.00    -0.191 C  
HETATM   48  H   UNL     1      -8.245   8.460  72.730  1.00  0.00     0.000 HD 
HETATM   49  H   UNL     1     -11.505   5.534  73.240  1.00  0.00     0.000 HD 
HETATM   50  O   UNL     1     -10.353   4.981  71.114  1.00  0.00    -0.220 OA 
HETATM   51  H   UNL     1      -9.717   4.564  71.684  1.00  0.00     0.000 HD 
ENDBRANCH  38  39
ENDBRANCH  37  38
ENDBRANCH  27  37
ENDBRANCH  24  25
ENDBRANCH  19  24
ENDBRANCH   7  11
ENDBRANCH   2   3
TORSDOF 7
ENDMDL
MODEL       24
REMARK 921   NORMALIZED FREE ENERGY PREDICTED BY IDOCK:   -8.20 KCAL/MOL
REMARK 922        TOTAL FREE ENERGY PREDICTED BY IDOCK:  -13.49 KCAL/MOL
REMARK 923 INTER-LIGAND FREE ENERGY PREDICTED BY IDOCK:  -10.85 KCAL/MOL
REMARK 924 INTRA-LIGAND FREE ENERGY PREDICTED BY IDOCK:   -2.64 KCAL/MOL
REMARK 927      BINDING AFFINITY PREDICTED BY RF-SCORE:    0.00 PKD
ROOT
HETATM    1  C   UNL     1     -11.031   4.785  73.694  1.00  0.00    -0.318 C  
HETATM    2  O   UNL     1     -11.819   5.517  72.760  1.00  0.00    -0.271 OA 
ENDROOT
BRANCH   2   3
HETATM    3  C   UNL     1     -11.109   6.242  71.837  1.00  0.00    -0.268 A  
HETATM    4  C   UNL     1     -11.172   7.625  71.984  1.00  0.00    -0.272 A  
HETATM    5  C   UNL     1     -10.515   8.480  71.101  1.00  0.00    -0.278 A  
HETATM    6  O   UNL     1     -11.907   8.182  72.996  1.00  0.00    -0.560 OA 
HETATM    7  C   UNL     1      -9.741   7.968  70.039  1.00  0.00    -0.173 A  
HETATM    8  H   UNL     1     -11.951   9.125  73.096  1.00  0.00     0.000 HD 
HETATM    9  C   UNL     1      -9.661   6.572  69.914  1.00  0.00    -0.163 A  
HETATM   10  C   UNL     1     -10.333   5.715  70.807  1.00  0.00    -0.310 A  
BRANCH   7  11
HETATM   11  C   UNL     1      -9.055   8.875  69.079  1.00  0.00    -0.137 C  
HETATM   12  C   UNL     1      -8.849   8.483  67.812  1.00  0.00    -0.137 C  
HETATM   13  C   UNL     1      -8.088   9.342  66.904  1.00  0.00    -0.108 C  
HETATM   14  O   UNL     1      -7.875   9.010  65.748  1.00  0.00    -0.096 OA 
HETATM   15  C   UNL     1      -7.581  10.601  67.443  1.00  0.00    -0.095 A  
HETATM   16  C   UNL     1      -6.782  11.438  66.669  1.00  0.00    -0.112 A  
HETATM   17  C   UNL     1      -6.342  12.660  67.166  1.00  0.00     0.005 A  
HETATM   18  O   UNL     1      -6.403  11.137  65.389  1.00  0.00    -0.368 OA 
HETATM   19  C   UNL     1      -6.711  13.071  68.443  1.00  0.00    -0.093 A  
HETATM   20  H   UNL     1      -5.859  11.709  64.861  1.00  0.00     0.000 HD 
HETATM   21  C   UNL     1      -7.501  12.207  69.238  1.00  0.00     0.219 A  
HETATM   22  C   UNL     1      -7.916  10.955  68.748  1.00  0.00    -0.139 A  
HETATM   23  O   UNL     1      -8.655  10.123  69.575  1.00  0.00    -0.161 OA 
BRANCH  19  24
HETATM   24  O   UNL     1      -6.452  14.310  68.962  1.00  0.00    -0.090 OA 
BRANCH  24  25
HETATM   25  C   UNL     1      -7.206  15.479  68.539  1.00  0.00    -0.119 C  
HETATM   26  O   UNL     1      -8.618  15.268  68.377  1.00  0.00    -0.151 OA 
HETATM   27  C   UNL     1      -9.372  16.411  67.960  1.00  0.00    -0.216 C  
HETATM   28  H   UNL     1      -5.901  18.012  65.659  1.00  0.00     0.000 HD 
HETATM   29  C   UNL     1      -8.786  16.991  66.656  1.00  0.00    -0.254 C  
HETATM   30  O   UNL     1      -5.169  16.507  67.620  1.00  0.00    -0.114 OA 
HETATM   31  C   UNL     1      -7.317  17.330  66.820  1.00  0.00    -0.213 C  
HETATM   32  O   UNL     1      -9.419  18.185  66.166  1.00  0.00    -0.466 OA 
HETATM   33  H   UNL     1      -9.059  18.542  65.363  1.00  0.00     0.000 HD 
HETATM   34  H   UNL     1      -4.748  16.898  66.864  1.00  0.00     0.000 HD 
HETATM   35  O   UNL     1      -6.822  17.800  65.556  1.00  0.00    -0.375 OA 
HETATM   36  C   UNL     1      -6.520  16.119  67.305  1.00  0.00    -0.181 C  
BRANCH  27  37
HETATM   37  C   UNL     1     -10.825  16.033  67.598  1.00  0.00    -0.311 C  
BRANCH  37  38
HETATM   38  O   UNL     1     -11.141  15.829  66.228  1.00  0.00    -0.223 OA 
BRANCH  38  39
HETATM   39  C   UNL     1     -11.452  14.429  65.981  1.00  0.00    -0.349 C  
HETATM   40  C   UNL     1     -10.682  12.186  66.530  1.00  0.00    -0.255 C  
HETATM   41  O   UNL     1     -10.536  13.599  66.701  1.00  0.00    -0.268 OA 
HETATM   42  C   UNL     1     -10.707  11.767  65.048  1.00  0.00    -0.292 C  
HETATM   43  C   UNL     1     -11.859  11.652  67.340  1.00  0.00    -0.170 C  
HETATM   44  O   UNL     1      -9.415  11.996  64.461  1.00  0.00    -0.447 OA 
HETATM   45  C   UNL     1     -11.729  12.574  64.247  1.00  0.00    -0.382 C  
HETATM   46  O   UNL     1     -13.071  12.187  64.555  1.00  0.00    -0.720 OA 
HETATM   47  C   UNL     1     -11.497  14.075  64.462  1.00  0.00    -0.370 C  
HETATM   48  H   UNL     1      -9.430  11.738  63.547  1.00  0.00     0.000 HD 
HETATM   49  H   UNL     1     -13.707  12.689  64.057  1.00  0.00     0.000 HD 
HETATM   50  O   UNL     1     -12.506  14.843  63.789  1.00  0.00    -1.048 OA 
HETATM   51  H   UNL     1     -12.533  14.627  62.864  1.00  0.00     0.000 HD 
ENDBRANCH  38  39
ENDBRANCH  37  38
ENDBRANCH  27  37
ENDBRANCH  24  25
ENDBRANCH  19  24
ENDBRANCH   7  11
ENDBRANCH   2   3
TORSDOF 7
ENDMDL
MODEL       25
REMARK 921   NORMALIZED FREE ENERGY PREDICTED BY IDOCK:   -8.14 KCAL/MOL
REMARK 922        TOTAL FREE ENERGY PREDICTED BY IDOCK:  -13.41 KCAL/MOL
REMARK 923 INTER-LIGAND FREE ENERGY PREDICTED BY IDOCK:  -11.91 KCAL/MOL
REMARK 924 INTRA-LIGAND FREE ENERGY PREDICTED BY IDOCK:   -1.50 KCAL/MOL
REMARK 927      BINDING AFFINITY PREDICTED BY RF-SCORE:    0.00 PKD
ROOT
HETATM    1  C   UNL     1     -10.099   3.521  74.256  1.00  0.00    -0.152 C  
HETATM    2  O   UNL     1     -10.854   4.674  73.895  1.00  0.00    -0.274 OA 
ENDROOT
BRANCH   2   3
HETATM    3  C   UNL     1     -10.618   5.156  72.633  1.00  0.00    -0.228 A  
HETATM    4  C   UNL     1     -10.876   6.512  72.451  1.00  0.00    -0.233 A  
HETATM    5  C   UNL     1     -10.701   7.125  71.212  1.00  0.00    -0.245 A  
HETATM    6  O   UNL     1     -11.334   7.276  73.491  1.00  0.00    -0.564 OA 
HETATM    7  C   UNL     1     -10.231   6.392  70.102  1.00  0.00    -0.229 A  
HETATM    8  H   UNL     1     -11.509   8.201  73.367  1.00  0.00     0.000 HD 
HETATM    9  C   UNL     1      -9.948   5.032  70.301  1.00  0.00    -0.325 A  
HETATM   10  C   UNL     1     -10.134   4.418  71.554  1.00  0.00    -0.221 A  
BRANCH   7  11
HETATM   11  C   UNL     1     -10.062   7.035  68.770  1.00  0.00    -0.170 C  
HETATM   12  C   UNL     1      -9.431   6.381  67.782  1.00  0.00    -0.115 C  
HETATM   13  C   UNL     1      -9.186   7.058  66.509  1.00  0.00    -0.164 C  
HETATM   14  O   UNL     1      -8.607   6.494  65.593  1.00  0.00    -0.150 OA 
HETATM   15  C   UNL     1      -9.646   8.440  66.387  1.00  0.00    -0.307 A  
HETATM   16  C   UNL     1      -9.382   9.180  65.238  1.00  0.00    -0.156 A  
HETATM   17  C   UNL     1      -9.864  10.477  65.102  1.00  0.00    -0.359 A  
HETATM   18  O   UNL     1      -8.669   8.689  64.178  1.00  0.00    -0.399 OA 
HETATM   19  C   UNL     1     -10.635  11.047  66.111  1.00  0.00    -0.228 A  
HETATM   20  H   UNL     1      -8.490   9.194  63.394  1.00  0.00     0.000 HD 
HETATM   21  C   UNL     1     -10.879  10.303  67.288  1.00  0.00    -0.312 A  
HETATM   22  C   UNL     1     -10.361   9.003  67.440  1.00  0.00    -0.268 A  
HETATM   23  O   UNL     1     -10.591   8.324  68.627  1.00  0.00    -0.192 OA 
BRANCH  19  24
HETATM   24  O   UNL     1     -11.272  12.254  66.008  1.00  0.00    -0.302 OA 
BRANCH  24  25
HETATM   25  C   UNL     1     -10.525  13.500  65.948  1.00  0.00    -0.292 C  
HETATM   26  O   UNL     1     -10.147  14.047  67.221  1.00  0.00    -0.244 OA 
HETATM   27  C   UNL     1      -9.411  15.274  67.175  1.00  0.00    -0.214 C  
HETATM   28  H   UNL     1     -11.504  16.528  63.440  1.00  0.00     0.000 HD 
HETATM   29  C   UNL     1     -10.192  16.336  66.373  1.00  0.00    -0.313 C  
HETATM   30  O   UNL     1     -11.411  13.964  63.700  1.00  0.00    -0.557 OA 
HETATM   31  C   UNL     1     -10.519  15.836  64.978  1.00  0.00    -0.301 C  
HETATM   32  O   UNL     1      -9.529  17.599  66.199  1.00  0.00    -0.441 OA 
HETATM   33  H   UNL     1     -10.010  18.252  65.706  1.00  0.00     0.000 HD 
HETATM   34  H   UNL     1     -11.866  14.579  63.137  1.00  0.00     0.000 HD 
HETATM   35  O   UNL     1     -11.300  16.841  64.313  1.00  0.00    -1.170 OA 
HETATM   36  C   UNL     1     -11.268  14.504  65.029  1.00  0.00    -0.382 C  
BRANCH  27  37
HETATM   37  C   UNL     1      -9.248  15.893  68.580  1.00  0.00    -0.209 C  
BRANCH  37  38
HETATM   38  O   UNL     1     -10.188  16.878  68.991  1.00  0.00    -0.277 OA 
BRANCH  38  39
HETATM   39  C   UNL     1     -11.188  16.291  69.870  1.00  0.00    -0.317 C  
HETATM   40  C   UNL     1     -11.390  14.957  71.897  1.00  0.00    -0.051 C  
HETATM   41  O   UNL     1     -10.541  15.625  70.959  1.00  0.00    -0.138 OA 
HETATM   42  C   UNL     1     -12.383  13.995  71.217  1.00  0.00    -0.355 C  
HETATM   43  C   UNL     1     -12.049  15.950  72.848  1.00  0.00    -0.612 C  
HETATM   44  O   UNL     1     -11.666  12.891  70.640  1.00  0.00    -0.503 OA 
HETATM   45  C   UNL     1     -13.159  14.681  70.093  1.00  0.00     0.105 C  
HETATM   46  O   UNL     1     -14.132  15.599  70.601  1.00  0.00    -0.804 OA 
HETATM   47  C   UNL     1     -12.185  15.356  69.118  1.00  0.00    -0.160 C  
HETATM   48  H   UNL     1     -12.278  12.298  70.220  1.00  0.00     0.000 HD 
HETATM   49  H   UNL     1     -14.615  16.025  69.902  1.00  0.00     0.000 HD 
HETATM   50  O   UNL     1     -12.902  16.081  68.108  1.00  0.00     0.922 OA 
HETATM   51  H   UNL     1     -13.509  15.511  67.650  1.00  0.00     0.000 HD 
ENDBRANCH  38  39
ENDBRANCH  37  38
ENDBRANCH  27  37
ENDBRANCH  24  25
ENDBRANCH  19  24
ENDBRANCH   7  11
ENDBRANCH   2   3
TORSDOF 7
ENDMDL
MODEL       26
REMARK 921   NORMALIZED FREE ENERGY PREDICTED BY IDOCK:   -8.02 KCAL/MOL
REMARK 922        TOTAL FREE ENERGY PREDICTED BY IDOCK:  -13.23 KCAL/MOL
REMARK 923 INTER-LIGAND FREE ENERGY PREDICTED BY IDOCK:  -12.25 KCAL/MOL
REMARK 924 INTRA-LIGAND FREE ENERGY PREDICTED BY IDOCK:   -0.98 KCAL/MOL
REMARK 927      BINDING AFFINITY PREDICTED BY RF-SCORE:    0.00 PKD
ROOT
HETATM    1  C   UNL     1      -7.300   3.363  63.922  1.00  0.00    -0.055 C  
HETATM    2  O   UNL     1      -8.343   2.857  64.750  1.00  0.00    -0.086 OA 
ENDROOT
BRANCH   2   3
HETATM    3  C   UNL     1      -8.731   3.684  65.773  1.00  0.00    -0.118 A  
HETATM    4  C   UNL     1      -9.982   4.276  65.624  1.00  0.00    -0.224 A  
HETATM    5  C   UNL     1     -10.488   5.156  66.579  1.00  0.00    -0.346 A  
HETATM    6  O   UNL     1     -10.741   4.023  64.513  1.00  0.00    -0.450 OA 
HETATM    7  C   UNL     1      -9.756   5.457  67.745  1.00  0.00    -0.160 A  
HETATM    8  H   UNL     1     -11.595   4.426  64.410  1.00  0.00     0.000 HD 
HETATM    9  C   UNL     1      -8.507   4.835  67.901  1.00  0.00    -0.103 A  
HETATM   10  C   UNL     1      -8.000   3.953  66.928  1.00  0.00    -0.096 A  
BRANCH   7  11
HETATM   11  C   UNL     1     -10.280   6.413  68.759  1.00  0.00    -0.177 C  
HETATM   12  C   UNL     1     -10.905   5.956  69.855  1.00  0.00    -0.439 C  
HETATM   13  C   UNL     1     -11.501   6.905  70.796  1.00  0.00    -0.335 C  
HETATM   14  O   UNL     1     -12.084   6.522  71.799  1.00  0.00    -0.338 OA 
HETATM   15  C   UNL     1     -11.385   8.326  70.476  1.00  0.00    -0.225 A  
HETATM   16  C   UNL     1     -11.991   9.289  71.277  1.00  0.00    -0.340 A  
HETATM   17  C   UNL     1     -11.837  10.643  71.001  1.00  0.00    -0.396 A  
HETATM   18  O   UNL     1     -12.742   8.982  72.378  1.00  0.00    -0.392 OA 
HETATM   19  C   UNL     1     -11.057  11.054  69.924  1.00  0.00    -0.205 A  
HETATM   20  H   UNL     1     -13.156   9.639  72.925  1.00  0.00     0.000 HD 
HETATM   21  C   UNL     1     -10.462  10.073  69.096  1.00  0.00    -0.238 A  
HETATM   22  C   UNL     1     -10.648   8.702  69.356  1.00  0.00    -0.199 A  
HETATM   23  O   UNL     1     -10.081   7.774  68.495  1.00  0.00    -0.187 OA 
BRANCH  19  24
HETATM   24  O   UNL     1     -10.728  12.356  69.660  1.00  0.00     0.155 OA 
BRANCH  24  25
HETATM   25  C   UNL     1     -10.432  12.801  68.307  1.00  0.00    -0.241 C  
HETATM   26  O   UNL     1      -9.510  13.898  68.213  1.00  0.00    -0.208 OA 
HETATM   27  C   UNL     1      -9.211  14.345  66.887  1.00  0.00    -0.254 C  
HETATM   28  H   UNL     1     -13.283  13.215  65.458  1.00  0.00     0.000 HD 
HETATM   29  C   UNL     1     -10.511  14.703  66.138  1.00  0.00    -0.302 C  
HETATM   30  O   UNL     1     -12.528  11.810  67.484  1.00  0.00     0.038 OA 
HETATM   31  C   UNL     1     -11.472  13.530  66.120  1.00  0.00    -0.325 C  
HETATM   32  O   UNL     1     -10.350  15.108  64.768  1.00  0.00    -0.461 OA 
HETATM   33  H   UNL     1     -11.151  15.328  64.307  1.00  0.00     0.000 HD 
HETATM   34  H   UNL     1     -13.341  11.949  67.012  1.00  0.00     0.000 HD 
HETATM   35  O   UNL     1     -12.682  13.951  65.470  1.00  0.00    -0.520 OA 
HETATM   36  C   UNL     1     -11.758  13.027  67.535  1.00  0.00    -0.370 C  
BRANCH  27  37
HETATM   37  C   UNL     1      -8.397  15.658  66.899  1.00  0.00    -0.252 C  
BRANCH  37  38
HETATM   38  O   UNL     1      -8.528  16.537  65.790  1.00  0.00    -0.394 OA 
BRANCH  38  39
HETATM   39  C   UNL     1      -8.744  17.902  66.246  1.00  0.00    -0.169 C  
HETATM   40  C   UNL     1      -8.179  19.406  68.076  1.00  0.00    -0.318 C  
HETATM   41  O   UNL     1      -8.036  18.117  67.472  1.00  0.00    -0.234 OA 
HETATM   42  C   UNL     1      -9.653  19.820  68.249  1.00  0.00    -0.368 C  
HETATM   43  C   UNL     1      -7.328  20.448  67.360  1.00  0.00    -0.359 C  
HETATM   44  O   UNL     1     -10.280  18.971  69.225  1.00  0.00    -0.530 OA 
HETATM   45  C   UNL     1     -10.438  19.682  66.945  1.00  0.00    -0.488 C  
HETATM   46  O   UNL     1     -10.086  20.698  66.002  1.00  0.00    -0.502 OA 
HETATM   47  C   UNL     1     -10.254  18.272  66.368  1.00  0.00    -0.403 C  
HETATM   48  H   UNL     1     -11.190  19.226  69.332  1.00  0.00     0.000 HD 
HETATM   49  H   UNL     1     -10.574  20.613  65.191  1.00  0.00     0.000 HD 
HETATM   50  O   UNL     1     -10.911  18.157  65.097  1.00  0.00    -0.637 OA 
HETATM   51  H   UNL     1     -11.831  18.382  65.170  1.00  0.00     0.000 HD 
ENDBRANCH  38  39
ENDBRANCH  37  38
ENDBRANCH  27  37
ENDBRANCH  24  25
ENDBRANCH  19  24
ENDBRANCH   7  11
ENDBRANCH   2   3
TORSDOF 7
ENDMDL
MODEL       27
REMARK 921   NORMALIZED FREE ENERGY PREDICTED BY IDOCK:   -8.02 KCAL/MOL
REMARK 922        TOTAL FREE ENERGY PREDICTED BY IDOCK:  -13.23 KCAL/MOL
REMARK 923 INTER-LIGAND FREE ENERGY PREDICTED BY IDOCK:  -12.01 KCAL/MOL
REMARK 924 INTRA-LIGAND FREE ENERGY PREDICTED BY IDOCK:   -1.22 KCAL/MOL
REMARK 927      BINDING AFFINITY PREDICTED BY RF-SCORE:    0.00 PKD
ROOT
HETATM    1  C   UNL     1     -12.381  15.842  74.479  1.00  0.00    -0.621 C  
HETATM    2  O   UNL     1     -13.302  15.782  73.393  1.00  0.00    -0.544 OA 
ENDROOT
BRANCH   2   3
HETATM    3  C   UNL     1     -12.770  15.373  72.197  1.00  0.00    -0.373 A  
HETATM    4  C   UNL     1     -13.106  14.080  71.803  1.00  0.00    -0.370 A  
HETATM    5  C   UNL     1     -12.616  13.531  70.620  1.00  0.00    -0.345 A  
HETATM    6  O   UNL     1     -13.916  13.304  72.588  1.00  0.00    -0.741 OA 
HETATM    7  C   UNL     1     -11.779  14.279  69.767  1.00  0.00    -0.367 A  
HETATM    8  H   UNL     1     -14.146  12.423  72.320  1.00  0.00     0.000 HD 
HETATM    9  C   UNL     1     -11.466  15.591  70.158  1.00  0.00    -0.342 A  
HETATM   10  C   UNL     1     -11.960  16.136  71.359  1.00  0.00    -0.451 A  
BRANCH   7  11
HETATM   11  C   UNL     1     -11.233  13.692  68.513  1.00  0.00    -0.280 C  
HETATM   12  C   UNL     1     -10.925  14.486  67.476  1.00  0.00    -0.297 C  
HETATM   13  C   UNL     1     -10.482  13.890  66.215  1.00  0.00    -0.287 C  
HETATM   14  O   UNL     1     -10.202  14.584  65.250  1.00  0.00    -0.367 OA 
HETATM   15  C   UNL     1     -10.406  12.431  66.156  1.00  0.00    -0.271 A  
HETATM   16  C   UNL     1     -10.069  11.783  64.971  1.00  0.00    -0.263 A  
HETATM   17  C   UNL     1      -9.946  10.399  64.929  1.00  0.00    -0.409 A  
HETATM   18  O   UNL     1      -9.817  12.445  63.801  1.00  0.00    -0.587 OA 
HETATM   19  C   UNL     1     -10.144   9.642  66.080  1.00  0.00    -0.258 A  
HETATM   20  H   UNL     1      -9.586  12.003  62.992  1.00  0.00     0.000 HD 
HETATM   21  C   UNL     1     -10.511  10.301  67.277  1.00  0.00    -0.307 A  
HETATM   22  C   UNL     1     -10.670  11.700  67.311  1.00  0.00    -0.238 A  
HETATM   23  O   UNL     1     -11.071  12.300  68.494  1.00  0.00    -0.218 OA 
BRANCH  19  24
HETATM   24  O   UNL     1      -9.905   8.298  66.173  1.00  0.00    -0.196 OA 
BRANCH  24  25
HETATM   25  C   UNL     1      -8.949   7.765  67.131  1.00  0.00    -0.126 C  
HETATM   26  O   UNL     1      -8.742   8.573  68.300  1.00  0.00    -0.140 OA 
HETATM   27  C   UNL     1      -7.803   8.060  69.251  1.00  0.00    -0.114 C  
HETATM   28  H   UNL     1      -5.425   6.100  66.024  1.00  0.00     0.000 HD 
HETATM   29  C   UNL     1      -6.446   7.787  68.568  1.00  0.00    -0.052 C  
HETATM   30  O   UNL     1      -7.905   6.390  65.379  1.00  0.00    -0.093 OA 
HETATM   31  C   UNL     1      -6.607   6.847  67.389  1.00  0.00    -0.051 C  
HETATM   32  O   UNL     1      -5.433   7.207  69.406  1.00  0.00    -0.015 OA 
HETATM   33  H   UNL     1      -4.598   7.039  68.986  1.00  0.00     0.000 HD 
HETATM   34  H   UNL     1      -7.103   6.153  64.928  1.00  0.00     0.000 HD 
HETATM   35  O   UNL     1      -5.324   6.690  66.763  1.00  0.00    -0.012 OA 
HETATM   36  C   UNL     1      -7.641   7.377  66.395  1.00  0.00    -0.088 C  
BRANCH  27  37
HETATM   37  C   UNL     1      -7.482   9.095  70.350  1.00  0.00    -0.106 C  
BRANCH  37  38
HETATM   38  O   UNL     1      -8.465   9.338  71.348  1.00  0.00    -0.325 OA 
BRANCH  38  39
HETATM   39  C   UNL     1      -9.422   8.243  71.396  1.00  0.00    -0.175 C  
HETATM   40  C   UNL     1     -11.697   7.676  70.739  1.00  0.00    -0.239 C  
HETATM   41  O   UNL     1     -10.633   8.634  70.742  1.00  0.00    -0.197 OA 
HETATM   42  C   UNL     1     -12.017   7.141  72.147  1.00  0.00    -0.266 C  
HETATM   43  C   UNL     1     -11.449   6.582  69.707  1.00  0.00    -0.443 C  
HETATM   44  O   UNL     1     -12.580   8.195  72.947  1.00  0.00    -0.614 OA 
HETATM   45  C   UNL     1     -10.763   6.638  72.862  1.00  0.00    -0.255 C  
HETATM   46  O   UNL     1     -10.298   5.402  72.313  1.00  0.00    -0.195 OA 
HETATM   47  C   UNL     1      -9.678   7.722  72.844  1.00  0.00    -0.249 C  
HETATM   48  H   UNL     1     -12.777   7.865  73.815  1.00  0.00     0.000 HD 
HETATM   49  H   UNL     1      -9.518   5.089  72.757  1.00  0.00     0.000 HD 
HETATM   50  O   UNL     1      -8.464   7.231  73.431  1.00  0.00    -0.123 OA 
HETATM   51  H   UNL     1      -8.620   6.913  74.313  1.00  0.00     0.000 HD 
ENDBRANCH  38  39
ENDBRANCH  37  38
ENDBRANCH  27  37
ENDBRANCH  24  25
ENDBRANCH  19  24
ENDBRANCH   7  11
ENDBRANCH   2   3
TORSDOF 7
ENDMDL
MODEL       28
REMARK 921   NORMALIZED FREE ENERGY PREDICTED BY IDOCK:   -8.00 KCAL/MOL
REMARK 922        TOTAL FREE ENERGY PREDICTED BY IDOCK:  -13.21 KCAL/MOL
REMARK 923 INTER-LIGAND FREE ENERGY PREDICTED BY IDOCK:  -11.47 KCAL/MOL
REMARK 924 INTRA-LIGAND FREE ENERGY PREDICTED BY IDOCK:   -1.74 KCAL/MOL
REMARK 927      BINDING AFFINITY PREDICTED BY RF-SCORE:    0.00 PKD
ROOT
HETATM    1  C   UNL     1      -5.527   5.288  65.925  1.00  0.00    -0.013 C  
HETATM    2  O   UNL     1      -5.474   6.296  64.919  1.00  0.00    -0.017 OA 
ENDROOT
BRANCH   2   3
HETATM    3  C   UNL     1      -6.363   7.329  65.079  1.00  0.00    -0.037 A  
HETATM    4  C   UNL     1      -7.427   7.349  64.181  1.00  0.00    -0.099 A  
HETATM    5  C   UNL     1      -8.389   8.355  64.217  1.00  0.00    -0.091 A  
HETATM    6  O   UNL     1      -7.539   6.382  63.218  1.00  0.00    -0.070 OA 
HETATM    7  C   UNL     1      -8.330   9.378  65.186  1.00  0.00    -0.151 A  
HETATM    8  H   UNL     1      -8.264   6.395  62.605  1.00  0.00     0.000 HD 
HETATM    9  C   UNL     1      -7.269   9.336  66.104  1.00  0.00    -0.091 A  
HETATM   10  C   UNL     1      -6.297   8.320  66.056  1.00  0.00    -0.049 A  
BRANCH   7  11
HETATM   11  C   UNL     1      -9.342  10.469  65.217  1.00  0.00    -0.213 C  
HETATM   12  C   UNL     1     -10.201  10.621  64.197  1.00  0.00    -0.365 C  
HETATM   13  C   UNL     1     -11.126  11.754  64.193  1.00  0.00    -0.374 C  
HETATM   14  O   UNL     1     -11.914  11.926  63.275  1.00  0.00    -0.445 OA 
HETATM   15  C   UNL     1     -11.055  12.680  65.322  1.00  0.00    -0.330 A  
HETATM   16  C   UNL     1     -11.845  13.825  65.356  1.00  0.00    -0.358 A  
HETATM   17  C   UNL     1     -11.814  14.677  66.454  1.00  0.00    -0.304 A  
HETATM   18  O   UNL     1     -12.704  14.172  64.349  1.00  0.00    -0.667 OA 
HETATM   19  C   UNL     1     -11.001  14.385  67.545  1.00  0.00    -0.293 A  
HETATM   20  H   UNL     1     -13.244  14.953  64.373  1.00  0.00     0.000 HD 
HETATM   21  C   UNL     1     -10.180  13.235  67.497  1.00  0.00    -0.222 A  
HETATM   22  C   UNL     1     -10.185  12.391  66.370  1.00  0.00    -0.234 A  
HETATM   23  O   UNL     1      -9.334  11.296  66.348  1.00  0.00    -0.181 OA 
BRANCH  19  24
HETATM   24  O   UNL     1     -11.010  15.079  68.725  1.00  0.00    -0.237 OA 
BRANCH  24  25
HETATM   25  C   UNL     1     -11.420  14.448  69.969  1.00  0.00    -0.238 C  
HETATM   26  O   UNL     1     -11.810  13.070  69.854  1.00  0.00    -0.322 OA 
HETATM   27  C   UNL     1     -12.216  12.437  71.073  1.00  0.00    -0.100 C  
HETATM   28  H   UNL     1     -13.805  16.282  72.682  1.00  0.00     0.000 HD 
HETATM   29  C   UNL     1     -13.355  13.239  71.738  1.00  0.00    -0.393 C  
HETATM   30  O   UNL     1     -11.919  16.643  70.961  1.00  0.00    -0.398 OA 
HETATM   31  C   UNL     1     -12.942  14.679  71.976  1.00  0.00    -0.334 C  
HETATM   32  O   UNL     1     -13.810  12.739  73.006  1.00  0.00    -0.533 OA 
HETATM   33  H   UNL     1     -14.510  13.232  73.415  1.00  0.00     0.000 HD 
HETATM   34  H   UNL     1     -12.562  17.190  71.397  1.00  0.00     0.000 HD 
HETATM   35  O   UNL     1     -14.064  15.381  72.532  1.00  0.00    -0.527 OA 
HETATM   36  C   UNL     1     -12.469  15.340  70.681  1.00  0.00    -0.406 C  
BRANCH  27  37
HETATM   37  C   UNL     1     -12.826  11.042  70.813  1.00  0.00    -0.266 C  
BRANCH  37  38
HETATM   38  O   UNL     1     -12.660  10.043  71.811  1.00  0.00    -0.384 OA 
BRANCH  38  39
HETATM   39  C   UNL     1     -11.510   9.206  71.507  1.00  0.00    -0.367 C  
HETATM   40  C   UNL     1     -10.223   8.355  69.623  1.00  0.00    -0.209 C  
HETATM   41  O   UNL     1     -11.299   9.173  70.092  1.00  0.00    -0.231 OA 
HETATM   42  C   UNL     1     -10.289   6.917  70.172  1.00  0.00    -0.199 C  
HETATM   43  C   UNL     1      -8.877   9.036  69.844  1.00  0.00    -0.164 C  
HETATM   44  O   UNL     1     -11.429   6.241  69.615  1.00  0.00    -0.432 OA 
HETATM   45  C   UNL     1     -10.436   6.896  71.693  1.00  0.00    -0.204 C  
HETATM   46  O   UNL     1      -9.223   7.272  72.350  1.00  0.00    -0.133 OA 
HETATM   47  C   UNL     1     -11.619   7.775  72.118  1.00  0.00    -0.317 C  
HETATM   48  H   UNL     1     -11.470   5.354  69.953  1.00  0.00     0.000 HD 
HETATM   49  H   UNL     1      -9.314   7.259  73.296  1.00  0.00     0.000 HD 
HETATM   50  O   UNL     1     -11.713   7.838  73.549  1.00  0.00    -0.469 OA 
HETATM   51  H   UNL     1     -11.780   6.966  73.921  1.00  0.00     0.000 HD 
ENDBRANCH  38  39
ENDBRANCH  37  38
ENDBRANCH  27  37
ENDBRANCH  24  25
ENDBRANCH  19  24
ENDBRANCH   7  11
ENDBRANCH   2   3
TORSDOF 7
ENDMDL
MODEL       29
REMARK 921   NORMALIZED FREE ENERGY PREDICTED BY IDOCK:   -7.98 KCAL/MOL
REMARK 922        TOTAL FREE ENERGY PREDICTED BY IDOCK:  -13.18 KCAL/MOL
REMARK 923 INTER-LIGAND FREE ENERGY PREDICTED BY IDOCK:  -11.85 KCAL/MOL
REMARK 924 INTRA-LIGAND FREE ENERGY PREDICTED BY IDOCK:   -1.33 KCAL/MOL
REMARK 927      BINDING AFFINITY PREDICTED BY RF-SCORE:    0.00 PKD
ROOT
HETATM    1  C   UNL     1      -9.890   4.952  70.186  1.00  0.00    -0.239 C  
HETATM    2  O   UNL     1     -11.167   5.445  70.581  1.00  0.00    -0.051 OA 
ENDROOT
BRANCH   2   3
HETATM    3  C   UNL     1     -11.299   6.810  70.562  1.00  0.00    -0.343 A  
HETATM    4  C   UNL     1     -12.196   7.339  71.487  1.00  0.00    -0.352 A  
HETATM    5  C   UNL     1     -12.441   8.709  71.559  1.00  0.00    -0.364 A  
HETATM    6  O   UNL     1     -12.880   6.514  72.339  1.00  0.00    -0.536 OA 
HETATM    7  C   UNL     1     -11.767   9.610  70.710  1.00  0.00    -0.390 A  
HETATM    8  H   UNL     1     -13.491   6.875  72.970  1.00  0.00     0.000 HD 
HETATM    9  C   UNL     1     -10.845   9.072  69.799  1.00  0.00    -0.215 A  
HETATM   10  C   UNL     1     -10.608   7.686  69.727  1.00  0.00    -0.245 A  
BRANCH   7  11
HETATM   11  C   UNL     1     -12.041  11.073  70.765  1.00  0.00    -0.366 C  
HETATM   12  C   UNL     1     -12.788  11.580  71.758  1.00  0.00    -0.441 C  
HETATM   13  C   UNL     1     -13.131  13.003  71.749  1.00  0.00    -0.373 C  
HETATM   14  O   UNL     1     -13.817  13.495  72.632  1.00  0.00    -0.724 OA 
HETATM   15  C   UNL     1     -12.635  13.804  70.632  1.00  0.00    -0.386 A  
HETATM   16  C   UNL     1     -12.981  15.146  70.507  1.00  0.00    -0.321 A  
HETATM   17  C   UNL     1     -12.467  15.920  69.473  1.00  0.00     0.156 A  
HETATM   18  O   UNL     1     -13.811  15.789  71.385  1.00  0.00    -0.522 OA 
HETATM   19  C   UNL     1     -11.582  15.363  68.555  1.00  0.00    -0.359 A  
HETATM   20  H   UNL     1     -14.047  16.706  71.300  1.00  0.00     0.000 HD 
HETATM   21  C   UNL     1     -11.251  13.992  68.668  1.00  0.00    -0.294 A  
HETATM   22  C   UNL     1     -11.800  13.200  69.695  1.00  0.00    -0.324 A  
HETATM   23  O   UNL     1     -11.481  11.852  69.744  1.00  0.00    -0.278 OA 
BRANCH  19  24
HETATM   24  O   UNL     1     -10.913  16.074  67.595  1.00  0.00    -0.325 OA 
BRANCH  24  25
HETATM   25  C   UNL     1      -9.460  16.075  67.531  1.00  0.00    -0.223 C  
HETATM   26  O   UNL     1      -8.850  14.774  67.493  1.00  0.00    -0.175 OA 
HETATM   27  C   UNL     1      -7.420  14.761  67.430  1.00  0.00    -0.194 C  
HETATM   28  H   UNL     1      -7.163  18.554  69.765  1.00  0.00     0.000 HD 
HETATM   29  C   UNL     1      -6.826  15.572  68.601  1.00  0.00    -0.115 C  
HETATM   30  O   UNL     1      -9.383  18.347  68.470  1.00  0.00    -0.318 OA 
HETATM   31  C   UNL     1      -7.365  16.990  68.612  1.00  0.00    -0.229 C  
HETATM   32  O   UNL     1      -5.394  15.689  68.614  1.00  0.00    -0.089 OA 
HETATM   33  H   UNL     1      -5.029  16.188  69.334  1.00  0.00     0.000 HD 
HETATM   34  H   UNL     1      -9.037  18.915  69.148  1.00  0.00     0.000 HD 
HETATM   35  O   UNL     1      -6.826  17.665  69.759  1.00  0.00    -0.045 OA 
HETATM   36  C   UNL     1      -8.893  17.002  68.637  1.00  0.00    -0.267 C  
BRANCH  27  37
HETATM   37  C   UNL     1      -6.856  13.337  67.620  1.00  0.00    -0.163 C  
BRANCH  37  38
HETATM   38  O   UNL     1      -7.775  12.277  67.846  1.00  0.00    -0.112 OA 
BRANCH  38  39
HETATM   39  C   UNL     1      -8.393  11.863  66.596  1.00  0.00    -0.117 C  
HETATM   40  C   UNL     1     -10.531  11.147  65.677  1.00  0.00    -0.248 C  
HETATM   41  O   UNL     1      -9.784  11.605  66.809  1.00  0.00    -0.196 OA 
HETATM   42  C   UNL     1      -9.877   9.934  64.988  1.00  0.00    -0.252 C  
HETATM   43  C   UNL     1     -10.852  12.295  64.727  1.00  0.00    -0.345 C  
HETATM   44  O   UNL     1      -9.942   8.792  65.859  1.00  0.00    -0.466 OA 
HETATM   45  C   UNL     1      -8.405  10.188  64.668  1.00  0.00    -0.166 C  
HETATM   46  O   UNL     1      -8.247  11.105  63.581  1.00  0.00    -0.349 OA 
HETATM   47  C   UNL     1      -7.667  10.655  65.929  1.00  0.00    -0.146 C  
HETATM   48  H   UNL     1      -9.539   8.044  65.434  1.00  0.00     0.000 HD 
HETATM   49  H   UNL     1      -7.331  11.263  63.382  1.00  0.00     0.000 HD 
HETATM   50  O   UNL     1      -6.303  10.984  65.623  1.00  0.00    -0.343 OA 
HETATM   51  H   UNL     1      -5.861  10.248  65.217  1.00  0.00     0.000 HD 
ENDBRANCH  38  39
ENDBRANCH  37  38
ENDBRANCH  27  37
ENDBRANCH  24  25
ENDBRANCH  19  24
ENDBRANCH   7  11
ENDBRANCH   2   3
TORSDOF 7
ENDMDL
MODEL       30
REMARK 921   NORMALIZED FREE ENERGY PREDICTED BY IDOCK:   -7.98 KCAL/MOL
REMARK 922        TOTAL FREE ENERGY PREDICTED BY IDOCK:  -13.18 KCAL/MOL
REMARK 923 INTER-LIGAND FREE ENERGY PREDICTED BY IDOCK:  -11.07 KCAL/MOL
REMARK 924 INTRA-LIGAND FREE ENERGY PREDICTED BY IDOCK:   -2.11 KCAL/MOL
REMARK 927      BINDING AFFINITY PREDICTED BY RF-SCORE:    0.00 PKD
ROOT
HETATM    1  C   UNL     1      -5.532  21.287  67.435  1.00  0.00    -0.305 C  
HETATM    2  O   UNL     1      -6.737  21.068  66.707  1.00  0.00    -0.297 OA 
ENDROOT
BRANCH   2   3
HETATM    3  C   UNL     1      -7.463  19.971  67.095  1.00  0.00    -0.271 A  
HETATM    4  C   UNL     1      -7.457  18.902  66.202  1.00  0.00    -0.266 A  
HETATM    5  C   UNL     1      -8.172  17.735  66.463  1.00  0.00    -0.300 A  
HETATM    6  O   UNL     1      -6.759  18.984  65.027  1.00  0.00    -0.486 OA 
HETATM    7  C   UNL     1      -8.909  17.588  67.656  1.00  0.00    -0.228 A  
HETATM    8  H   UNL     1      -6.754  18.255  64.419  1.00  0.00     0.000 HD 
HETATM    9  C   UNL     1      -8.889  18.660  68.562  1.00  0.00    -0.361 A  
HETATM   10  C   UNL     1      -8.169  19.839  68.288  1.00  0.00    -0.312 A  
BRANCH   7  11
HETATM   11  C   UNL     1      -9.694  16.353  67.930  1.00  0.00    -0.235 C  
HETATM   12  C   UNL     1     -10.364  16.225  69.086  1.00  0.00    -0.272 C  
HETATM   13  C   UNL     1     -11.052  14.969  69.387  1.00  0.00    -0.278 C  
HETATM   14  O   UNL     1     -11.664  14.816  70.433  1.00  0.00    -0.267 OA 
HETATM   15  C   UNL     1     -10.959  13.901  68.393  1.00  0.00    -0.272 A  
HETATM   16  C   UNL     1     -11.518  12.650  68.637  1.00  0.00    -0.308 A  
HETATM   17  C   UNL     1     -11.474  11.652  67.670  1.00  0.00    -0.373 A  
HETATM   18  O   UNL     1     -12.154  12.329  69.805  1.00  0.00    -0.287 OA 
HETATM   19  C   UNL     1     -10.883  11.898  66.434  1.00  0.00    -0.279 A  
HETATM   20  H   UNL     1     -12.536  11.475  69.971  1.00  0.00     0.000 HD 
HETATM   21  C   UNL     1     -10.294  13.162  66.199  1.00  0.00    -0.287 A  
HETATM   22  C   UNL     1     -10.307  14.161  67.190  1.00  0.00    -0.265 A  
HETATM   23  O   UNL     1      -9.681  15.371  66.932  1.00  0.00    -0.222 OA 
BRANCH  19  24
HETATM   24  O   UNL     1     -10.920  11.034  65.373  1.00  0.00    -0.155 OA 
BRANCH  24  25
HETATM   25  C   UNL     1     -10.013   9.900  65.291  1.00  0.00    -0.249 C  
HETATM   26  O   UNL     1     -10.069   8.992  66.403  1.00  0.00    -0.294 OA 
HETATM   27  C   UNL     1      -9.181   7.872  66.334  1.00  0.00    -0.191 C  
HETATM   28  H   UNL     1      -6.171  10.245  64.051  1.00  0.00     0.000 HD 
HETATM   29  C   UNL     1      -7.728   8.353  66.138  1.00  0.00    -0.097 C  
HETATM   30  O   UNL     1      -8.573  11.120  63.712  1.00  0.00    -0.380 OA 
HETATM   31  C   UNL     1      -7.605   9.230  64.907  1.00  0.00    -0.108 C  
HETATM   32  O   UNL     1      -6.743   7.317  65.990  1.00  0.00    -0.051 OA 
HETATM   33  H   UNL     1      -5.850   7.613  65.869  1.00  0.00     0.000 HD 
HETATM   34  H   UNL     1      -7.698  11.428  63.512  1.00  0.00     0.000 HD 
HETATM   35  O   UNL     1      -6.249   9.695  64.822  1.00  0.00    -0.077 OA 
HETATM   36  C   UNL     1      -8.583  10.404  64.963  1.00  0.00    -0.181 C  
BRANCH  27  37
HETATM   37  C   UNL     1      -9.153   7.086  67.663  1.00  0.00    -0.122 C  
BRANCH  37  38
HETATM   38  O   UNL     1      -8.434   7.644  68.755  1.00  0.00    -0.128 OA 
BRANCH  38  39
HETATM   39  C   UNL     1      -9.271   7.689  69.944  1.00  0.00    -0.147 C  
HETATM   40  C   UNL     1     -11.533   7.195  70.697  1.00  0.00    -0.308 C  
HETATM   41  O   UNL     1     -10.572   7.180  69.637  1.00  0.00    -0.222 OA 
HETATM   42  C   UNL     1     -11.661   8.579  71.362  1.00  0.00    -0.294 C  
HETATM   43  C   UNL     1     -11.282   6.060  71.684  1.00  0.00    -0.328 C  
HETATM   44  O   UNL     1     -12.243   9.508  70.431  1.00  0.00    -0.464 OA 
HETATM   45  C   UNL     1     -10.301   9.136  71.781  1.00  0.00    -0.260 C  
HETATM   46  O   UNL     1      -9.773   8.450  72.920  1.00  0.00    -0.263 OA 
HETATM   47  C   UNL     1      -9.333   9.107  70.591  1.00  0.00    -0.258 C  
HETATM   48  H   UNL     1     -12.322  10.362  70.841  1.00  0.00     0.000 HD 
HETATM   49  H   UNL     1      -8.927   8.796  73.181  1.00  0.00     0.000 HD 
HETATM   50  O   UNL     1      -8.025   9.542  70.994  1.00  0.00    -0.321 OA 
HETATM   51  H   UNL     1      -8.063  10.406  71.387  1.00  0.00     0.000 HD 
ENDBRANCH  38  39
ENDBRANCH  37  38
ENDBRANCH  27  37
ENDBRANCH  24  25
ENDBRANCH  19  24
ENDBRANCH   7  11
ENDBRANCH   2   3
TORSDOF 7
ENDMDL
MODEL       31
REMARK 921   NORMALIZED FREE ENERGY PREDICTED BY IDOCK:   -7.96 KCAL/MOL
REMARK 922        TOTAL FREE ENERGY PREDICTED BY IDOCK:  -13.16 KCAL/MOL
REMARK 923 INTER-LIGAND FREE ENERGY PREDICTED BY IDOCK:  -11.62 KCAL/MOL
REMARK 924 INTRA-LIGAND FREE ENERGY PREDICTED BY IDOCK:   -1.54 KCAL/MOL
REMARK 927      BINDING AFFINITY PREDICTED BY RF-SCORE:    0.00 PKD
ROOT
HETATM    1  C   UNL     1     -11.187   2.462  73.636  1.00  0.00    -0.217 C  
HETATM    2  O   UNL     1     -10.414   3.652  73.766  1.00  0.00    -0.150 OA 
ENDROOT
BRANCH   2   3
HETATM    3  C   UNL     1     -10.297   4.401  72.623  1.00  0.00    -0.186 A  
HETATM    4  C   UNL     1     -10.586   5.756  72.762  1.00  0.00    -0.226 A  
HETATM    5  C   UNL     1     -10.528   6.626  71.675  1.00  0.00    -0.232 A  
HETATM    6  O   UNL     1     -10.959   6.264  73.978  1.00  0.00    -0.376 OA 
HETATM    7  C   UNL     1     -10.149   6.165  70.398  1.00  0.00    -0.237 A  
HETATM    8  H   UNL     1     -11.156   7.189  74.073  1.00  0.00     0.000 HD 
HETATM    9  C   UNL     1      -9.834   4.803  70.272  1.00  0.00    -0.313 A  
HETATM   10  C   UNL     1      -9.901   3.928  71.374  1.00  0.00    -0.243 A  
BRANCH   7  11
HETATM   11  C   UNL     1     -10.106   7.083  69.228  1.00  0.00    -0.173 C  
HETATM   12  C   UNL     1      -9.373   6.766  68.149  1.00  0.00    -0.122 C  
HETATM   13  C   UNL     1      -9.261   7.721  67.045  1.00  0.00    -0.145 C  
HETATM   14  O   UNL     1      -8.595   7.467  66.054  1.00  0.00    -0.141 OA 
HETATM   15  C   UNL     1      -9.963   8.994  67.189  1.00  0.00    -0.286 A  
HETATM   16  C   UNL     1      -9.844   9.987  66.220  1.00  0.00    -0.236 A  
HETATM   17  C   UNL     1     -10.553  11.178  66.332  1.00  0.00    -0.315 A  
HETATM   18  O   UNL     1      -9.060   9.856  65.107  1.00  0.00    -0.178 OA 
HETATM   19  C   UNL     1     -11.408  11.385  67.411  1.00  0.00    -0.288 A  
HETATM   20  H   UNL     1      -8.979  10.533  64.445  1.00  0.00     0.000 HD 
HETATM   21  C   UNL     1     -11.508  10.386  68.406  1.00  0.00    -0.227 A  
HETATM   22  C   UNL     1     -10.763   9.195  68.311  1.00  0.00    -0.122 A  
HETATM   23  O   UNL     1     -10.860   8.261  69.330  1.00  0.00    -0.193 OA 
BRANCH  19  24
HETATM   24  O   UNL     1     -12.253  12.455  67.533  1.00  0.00    -0.442 OA 
BRANCH  24  25
HETATM   25  C   UNL     1     -11.759  13.768  67.916  1.00  0.00    -0.360 C  
HETATM   26  O   UNL     1     -10.550  14.181  67.260  1.00  0.00    -0.273 OA 
HETATM   27  C   UNL     1     -10.053  15.472  67.629  1.00  0.00    -0.243 C  
HETATM   28  H   UNL     1     -11.689  15.052  71.758  1.00  0.00     0.000 HD 
HETATM   29  C   UNL     1      -9.860  15.553  69.158  1.00  0.00    -0.246 C  
HETATM   30  O   UNL     1     -13.005  13.658  70.035  1.00  0.00    -0.059 OA 
HETATM   31  C   UNL     1     -11.148  15.228  69.889  1.00  0.00    -0.289 C  
HETATM   32  O   UNL     1      -9.423  16.825  69.664  1.00  0.00     0.050 OA 
HETATM   33  H   UNL     1      -9.304  16.874  70.604  1.00  0.00     0.000 HD 
HETATM   34  H   UNL     1     -12.969  13.718  70.982  1.00  0.00     0.000 HD 
HETATM   35  O   UNL     1     -10.882  15.256  71.300  1.00  0.00    -0.264 OA 
HETATM   36  C   UNL     1     -11.699  13.867  69.463  1.00  0.00    -0.313 C  
BRANCH  27  37
HETATM   37  C   UNL     1      -8.647  15.728  67.046  1.00  0.00    -0.218 C  
BRANCH  37  38
HETATM   38  O   UNL     1      -8.545  16.500  65.857  1.00  0.00    -0.441 OA 
BRANCH  38  39
HETATM   39  C   UNL     1      -8.837  17.898  66.132  1.00  0.00    -0.080 C  
HETATM   40  C   UNL     1      -8.397  19.646  67.769  1.00  0.00    -0.310 C  
HETATM   41  O   UNL     1      -8.176  18.300  67.336  1.00  0.00    -0.233 OA 
HETATM   42  C   UNL     1      -9.893  20.003  67.855  1.00  0.00    -0.406 C  
HETATM   43  C   UNL     1      -7.576  20.632  66.945  1.00  0.00    -0.290 C  
HETATM   44  O   UNL     1     -10.506  19.253  68.917  1.00  0.00    -0.491 OA 
HETATM   45  C   UNL     1     -10.633  19.663  66.562  1.00  0.00    -0.482 C  
HETATM   46  O   UNL     1     -10.303  20.570  65.506  1.00  0.00    -0.405 OA 
HETATM   47  C   UNL     1     -10.366  18.203  66.172  1.00  0.00    -0.385 C  
HETATM   48  H   UNL     1     -11.429  19.473  68.971  1.00  0.00     0.000 HD 
HETATM   49  H   UNL     1     -10.763  20.360  64.702  1.00  0.00     0.000 HD 
HETATM   50  O   UNL     1     -10.981  17.897  64.912  1.00  0.00    -0.827 OA 
HETATM   51  H   UNL     1     -11.913  18.083  64.936  1.00  0.00     0.000 HD 
ENDBRANCH  38  39
ENDBRANCH  37  38
ENDBRANCH  27  37
ENDBRANCH  24  25
ENDBRANCH  19  24
ENDBRANCH   7  11
ENDBRANCH   2   3
TORSDOF 7
ENDMDL
MODEL       32
REMARK 921   NORMALIZED FREE ENERGY PREDICTED BY IDOCK:   -7.94 KCAL/MOL
REMARK 922        TOTAL FREE ENERGY PREDICTED BY IDOCK:  -13.12 KCAL/MOL
REMARK 923 INTER-LIGAND FREE ENERGY PREDICTED BY IDOCK:  -11.19 KCAL/MOL
REMARK 924 INTRA-LIGAND FREE ENERGY PREDICTED BY IDOCK:   -1.93 KCAL/MOL
REMARK 927      BINDING AFFINITY PREDICTED BY RF-SCORE:    0.00 PKD
ROOT
HETATM    1  C   UNL     1     -10.207  20.212  69.412  1.00  0.00     0.061 C  
HETATM    2  O   UNL     1     -10.657  19.950  68.085  1.00  0.00    -0.388 OA 
ENDROOT
BRANCH   2   3
HETATM    3  C   UNL     1     -10.526  18.650  67.669  1.00  0.00    -0.423 A  
HETATM    4  C   UNL     1     -10.412  18.469  66.293  1.00  0.00    -0.406 A  
HETATM    5  C   UNL     1     -10.296  17.198  65.735  1.00  0.00    -0.253 A  
HETATM    6  O   UNL     1     -10.433  19.546  65.448  1.00  0.00    -0.439 OA 
HETATM    7  C   UNL     1     -10.266  16.049  66.552  1.00  0.00    -0.301 A  
HETATM    8  H   UNL     1     -10.356  19.423  64.510  1.00  0.00     0.000 HD 
HETATM    9  C   UNL     1     -10.355  16.241  67.939  1.00  0.00    -0.285 A  
HETATM   10  C   UNL     1     -10.479  17.529  68.495  1.00  0.00    -0.361 A  
BRANCH   7  11
HETATM   11  C   UNL     1     -10.165  14.686  65.961  1.00  0.00    -0.311 C  
HETATM   12  C   UNL     1     -10.802  14.400  64.815  1.00  0.00    -0.415 C  
HETATM   13  C   UNL     1     -10.775  13.032  64.295  1.00  0.00    -0.407 C  
HETATM   14  O   UNL     1     -11.351  12.737  63.259  1.00  0.00    -0.446 OA 
HETATM   15  C   UNL     1     -10.047  12.034  65.076  1.00  0.00    -0.293 A  
HETATM   16  C   UNL     1     -10.039  10.696  64.693  1.00  0.00    -0.349 A  
HETATM   17  C   UNL     1      -9.304   9.757  65.407  1.00  0.00    -0.311 A  
HETATM   18  O   UNL     1     -10.716  10.226  63.601  1.00  0.00    -0.177 OA 
HETATM   19  C   UNL     1      -8.549  10.148  66.509  1.00  0.00    -0.126 A  
HETATM   20  H   UNL     1     -10.710   9.313  63.339  1.00  0.00     0.000 HD 
HETATM   21  C   UNL     1      -8.580  11.503  66.912  1.00  0.00    -0.163 A  
HETATM   22  C   UNL     1      -9.352  12.448  66.210  1.00  0.00    -0.189 A  
HETATM   23  O   UNL     1      -9.385  13.757  66.664  1.00  0.00    -0.269 OA 
BRANCH  19  24
HETATM   24  O   UNL     1      -7.684   9.330  67.184  1.00  0.00    -0.094 OA 
BRANCH  24  25
HETATM   25  C   UNL     1      -8.164   8.350  68.145  1.00  0.00    -0.124 C  
HETATM   26  O   UNL     1      -8.125   8.771  69.517  1.00  0.00    -0.100 OA 
HETATM   27  C   UNL     1      -8.595   7.815  70.474  1.00  0.00    -0.132 C  
HETATM   28  H   UNL     1      -7.213   4.417  67.934  1.00  0.00     0.000 HD 
HETATM   29  C   UNL     1      -7.826   6.486  70.322  1.00  0.00    -0.107 C  
HETATM   30  O   UNL     1      -7.745   6.526  66.548  1.00  0.00    -0.095 OA 
HETATM   31  C   UNL     1      -7.934   5.950  68.908  1.00  0.00    -0.102 C  
HETATM   32  O   UNL     1      -8.250   5.419  71.187  1.00  0.00    -0.114 OA 
HETATM   33  H   UNL     1      -7.776   4.602  71.094  1.00  0.00     0.000 HD 
HETATM   34  H   UNL     1      -7.320   5.692  66.389  1.00  0.00     0.000 HD 
HETATM   35  O   UNL     1      -7.145   4.753  68.820  1.00  0.00    -0.051 OA 
HETATM   36  C   UNL     1      -7.470   6.988  67.885  1.00  0.00    -0.099 C  
BRANCH  27  37
HETATM   37  C   UNL     1      -8.305   8.268  71.921  1.00  0.00    -0.157 C  
BRANCH  37  38
HETATM   38  O   UNL     1      -9.393   8.335  72.832  1.00  0.00    -0.256 OA 
BRANCH  38  39
HETATM   39  C   UNL     1     -10.657   8.373  72.112  1.00  0.00    -0.329 C  
HETATM   40  C   UNL     1     -12.534   9.851  71.643  1.00  0.00    -0.415 C  
HETATM   41  O   UNL     1     -11.258   9.663  72.262  1.00  0.00     0.303 OA 
HETATM   42  C   UNL     1     -13.548   8.758  72.032  1.00  0.00    -0.427 C  
HETATM   43  C   UNL     1     -12.393  10.051  70.138  1.00  0.00    -0.068 C  
HETATM   44  O   UNL     1     -13.881   8.884  73.425  1.00  0.00    -1.192 OA 
HETATM   45  C   UNL     1     -12.982   7.355  71.817  1.00  0.00    -0.325 C  
HETATM   46  O   UNL     1     -12.898   7.022  70.428  1.00  0.00    -0.558 OA 
HETATM   47  C   UNL     1     -11.627   7.223  72.524  1.00  0.00    -0.245 C  
HETATM   48  H   UNL     1     -14.507   8.210  73.665  1.00  0.00     0.000 HD 
HETATM   49  H   UNL     1     -12.546   6.150  70.294  1.00  0.00     0.000 HD 
HETATM   50  O   UNL     1     -11.040   5.940  72.255  1.00  0.00    -0.252 OA 
HETATM   51  H   UNL     1     -11.631   5.239  72.506  1.00  0.00     0.000 HD 
ENDBRANCH  38  39
ENDBRANCH  37  38
ENDBRANCH  27  37
ENDBRANCH  24  25
ENDBRANCH  19  24
ENDBRANCH   7  11
ENDBRANCH   2   3
TORSDOF 7
ENDMDL
MODEL       33
REMARK 921   NORMALIZED FREE ENERGY PREDICTED BY IDOCK:   -7.87 KCAL/MOL
REMARK 922        TOTAL FREE ENERGY PREDICTED BY IDOCK:  -13.02 KCAL/MOL
REMARK 923 INTER-LIGAND FREE ENERGY PREDICTED BY IDOCK:  -11.54 KCAL/MOL
REMARK 924 INTRA-LIGAND FREE ENERGY PREDICTED BY IDOCK:   -1.49 KCAL/MOL
REMARK 927      BINDING AFFINITY PREDICTED BY RF-SCORE:    0.00 PKD
ROOT
HETATM    1  C   UNL     1      -6.437  21.059  67.440  1.00  0.00    -0.363 C  
HETATM    2  O   UNL     1      -7.584  20.520  68.092  1.00  0.00    -0.162 OA 
ENDROOT
BRANCH   2   3
HETATM    3  C   UNL     1      -8.084  19.370  67.538  1.00  0.00    -0.281 A  
HETATM    4  C   UNL     1      -9.312  19.499  66.894  1.00  0.00    -0.346 A  
HETATM    5  C   UNL     1      -9.944  18.404  66.308  1.00  0.00    -0.378 A  
HETATM    6  O   UNL     1      -9.944  20.713  66.842  1.00  0.00    -0.540 OA 
HETATM    7  C   UNL     1      -9.345  17.128  66.327  1.00  0.00    -0.260 A  
HETATM    8  H   UNL     1     -10.781  20.802  66.404  1.00  0.00     0.000 HD 
HETATM    9  C   UNL     1      -8.095  17.011  66.954  1.00  0.00    -0.252 A  
HETATM   10  C   UNL     1      -7.466  18.122  67.550  1.00  0.00    -0.217 A  
BRANCH   7  11
HETATM   11  C   UNL     1     -10.024  15.949  65.722  1.00  0.00    -0.360 C  
HETATM   12  C   UNL     1     -11.106  16.120  64.947  1.00  0.00    -0.336 C  
HETATM   13  C   UNL     1     -11.822  14.949  64.438  1.00  0.00    -0.360 C  
HETATM   14  O   UNL     1     -12.816  15.070  63.737  1.00  0.00    -0.651 OA 
HETATM   15  C   UNL     1     -11.310  13.635  64.818  1.00  0.00    -0.365 A  
HETATM   16  C   UNL     1     -11.978  12.473  64.441  1.00  0.00    -0.404 A  
HETATM   17  C   UNL     1     -11.463  11.222  64.759  1.00  0.00     0.044 A  
HETATM   18  O   UNL     1     -13.146  12.479  63.728  1.00  0.00    -0.717 OA 
HETATM   19  C   UNL     1     -10.257  11.115  65.447  1.00  0.00    -0.271 A  
HETATM   20  H   UNL     1     -13.602  11.686  63.471  1.00  0.00     0.000 HD 
HETATM   21  C   UNL     1      -9.594  12.296  65.851  1.00  0.00    -0.207 A  
HETATM   22  C   UNL     1     -10.134  13.563  65.560  1.00  0.00    -0.268 A  
HETATM   23  O   UNL     1      -9.471  14.694  66.011  1.00  0.00    -0.288 OA 
BRANCH  19  24
HETATM   24  O   UNL     1      -9.600   9.937  65.676  1.00  0.00    -0.215 OA 
BRANCH  24  25
HETATM   25  C   UNL     1      -9.221   9.532  67.021  1.00  0.00    -0.139 C  
HETATM   26  O   UNL     1     -10.132   9.932  68.057  1.00  0.00    -0.157 OA 
HETATM   27  C   UNL     1      -9.771   9.540  69.386  1.00  0.00    -0.183 C  
HETATM   28  H   UNL     1      -5.425   9.807  68.411  1.00  0.00     0.000 HD 
HETATM   29  C   UNL     1      -8.353  10.047  69.725  1.00  0.00    -0.172 C  
HETATM   30  O   UNL     1      -6.869   9.314  66.332  1.00  0.00    -0.080 OA 
HETATM   31  C   UNL     1      -7.339   9.555  68.710  1.00  0.00    -0.074 C  
HETATM   32  O   UNL     1      -7.847   9.663  71.014  1.00  0.00    -0.310 OA 
HETATM   33  H   UNL     1      -6.975   9.975  71.223  1.00  0.00     0.000 HD 
HETATM   34  H   UNL     1      -5.968   9.563  66.496  1.00  0.00     0.000 HD 
HETATM   35  O   UNL     1      -6.061  10.115  69.046  1.00  0.00    -0.040 OA 
HETATM   36  C   UNL     1      -7.749   9.938  67.288  1.00  0.00    -0.095 C  
BRANCH  27  37
HETATM   37  C   UNL     1     -10.682  10.202  70.442  1.00  0.00    -0.266 C  
BRANCH  37  38
HETATM   38  O   UNL     1     -11.367   9.358  71.358  1.00  0.00    -0.327 OA 
BRANCH  38  39
HETATM   39  C   UNL     1     -10.745   8.044  71.402  1.00  0.00    -0.229 C  
HETATM   40  C   UNL     1     -11.223   5.698  70.960  1.00  0.00    -0.050 C  
HETATM   41  O   UNL     1     -11.672   7.057  70.940  1.00  0.00    -0.309 OA 
HETATM   42  C   UNL     1     -10.660   5.280  72.332  1.00  0.00    -0.225 C  
HETATM   43  C   UNL     1     -10.281   5.411  69.795  1.00  0.00    -0.348 C  
HETATM   44  O   UNL     1     -11.724   5.247  73.299  1.00  0.00    -0.526 OA 
HETATM   45  C   UNL     1      -9.606   6.264  72.837  1.00  0.00    -0.153 C  
HETATM   46  O   UNL     1      -8.379   6.150  72.108  1.00  0.00    -0.110 OA 
HETATM   47  C   UNL     1     -10.164   7.693  72.806  1.00  0.00    -0.279 C  
HETATM   48  H   UNL     1     -11.376   4.990  74.145  1.00  0.00     0.000 HD 
HETATM   49  H   UNL     1      -7.723   6.761  72.422  1.00  0.00     0.000 HD 
HETATM   50  O   UNL     1      -9.153   8.637  73.191  1.00  0.00    -0.270 OA 
HETATM   51  H   UNL     1      -8.800   8.423  74.046  1.00  0.00     0.000 HD 
ENDBRANCH  38  39
ENDBRANCH  37  38
ENDBRANCH  27  37
ENDBRANCH  24  25
ENDBRANCH  19  24
ENDBRANCH   7  11
ENDBRANCH   2   3
TORSDOF 7
ENDMDL
MODEL       34
REMARK 921   NORMALIZED FREE ENERGY PREDICTED BY IDOCK:   -7.85 KCAL/MOL
REMARK 922        TOTAL FREE ENERGY PREDICTED BY IDOCK:  -12.99 KCAL/MOL
REMARK 923 INTER-LIGAND FREE ENERGY PREDICTED BY IDOCK:  -11.67 KCAL/MOL
REMARK 924 INTRA-LIGAND FREE ENERGY PREDICTED BY IDOCK:   -1.32 KCAL/MOL
REMARK 927      BINDING AFFINITY PREDICTED BY RF-SCORE:    0.00 PKD
ROOT
HETATM    1  C   UNL     1      -8.415  20.203  69.184  1.00  0.00     0.421 C  
HETATM    2  O   UNL     1      -9.764  19.795  68.976  1.00  0.00    -0.372 OA 
ENDROOT
BRANCH   2   3
HETATM    3  C   UNL     1      -9.920  18.614  68.297  1.00  0.00    -0.384 A  
HETATM    4  C   UNL     1     -10.132  18.734  66.926  1.00  0.00    -0.358 A  
HETATM    5  C   UNL     1     -10.329  17.614  66.121  1.00  0.00    -0.334 A  
HETATM    6  O   UNL     1     -10.176  19.969  66.337  1.00  0.00    -0.453 OA 
HETATM    7  C   UNL     1     -10.294  16.314  66.667  1.00  0.00    -0.302 A  
HETATM    8  H   UNL     1     -10.321  20.051  65.402  1.00  0.00     0.000 HD 
HETATM    9  C   UNL     1     -10.053  16.201  68.046  1.00  0.00    -0.242 A  
HETATM   10  C   UNL     1      -9.862  17.338  68.854  1.00  0.00    -0.286 A  
BRANCH   7  11
HETATM   11  C   UNL     1     -10.524  15.114  65.817  1.00  0.00    -0.339 C  
HETATM   12  C   UNL     1     -11.431  15.154  64.828  1.00  0.00    -0.383 C  
HETATM   13  C   UNL     1     -11.718  13.940  64.063  1.00  0.00    -0.288 C  
HETATM   14  O   UNL     1     -12.544  13.940  63.162  1.00  0.00    -0.775 OA 
HETATM   15  C   UNL     1     -10.991  12.728  64.433  1.00  0.00    -0.393 A  
HETATM   16  C   UNL     1     -11.263  11.515  63.807  1.00  0.00    -0.370 A  
HETATM   17  C   UNL     1     -10.535  10.373  64.124  1.00  0.00     0.197 A  
HETATM   18  O   UNL     1     -12.223  11.368  62.844  1.00  0.00    -0.940 OA 
HETATM   19  C   UNL     1      -9.510  10.434  65.063  1.00  0.00    -0.253 A  
HETATM   20  H   UNL     1     -12.409  10.540  62.417  1.00  0.00     0.000 HD 
HETATM   21  C   UNL     1      -9.253  11.662  65.716  1.00  0.00    -0.184 A  
HETATM   22  C   UNL     1     -10.013  12.809  65.421  1.00  0.00    -0.199 A  
HETATM   23  O   UNL     1      -9.754  13.982  66.114  1.00  0.00    -0.293 OA 
BRANCH  19  24
HETATM   24  O   UNL     1      -8.647   9.407  65.333  1.00  0.00    -0.138 OA 
BRANCH  24  25
HETATM   25  C   UNL     1      -8.864   8.516  66.462  1.00  0.00    -0.140 C  
HETATM   26  O   UNL     1      -8.530   9.066  67.746  1.00  0.00    -0.117 OA 
HETATM   27  C   UNL     1      -8.739   8.198  68.866  1.00  0.00    -0.137 C  
HETATM   28  H   UNL     1      -7.848   4.594  66.391  1.00  0.00     0.000 HD 
HETATM   29  C   UNL     1      -7.978   6.871  68.662  1.00  0.00    -0.120 C  
HETATM   30  O   UNL     1      -8.752   6.554  64.981  1.00  0.00    -0.350 OA 
HETATM   31  C   UNL     1      -8.384   6.202  67.363  1.00  0.00    -0.108 C  
HETATM   32  O   UNL     1      -8.158   5.885  69.692  1.00  0.00    -0.102 OA 
HETATM   33  H   UNL     1      -7.690   5.069  69.567  1.00  0.00     0.000 HD 
HETATM   34  H   UNL     1      -8.345   5.715  64.804  1.00  0.00     0.000 HD 
HETATM   35  O   UNL     1      -7.593   5.014  67.205  1.00  0.00    -0.089 OA 
HETATM   36  C   UNL     1      -8.199   7.145  66.174  1.00  0.00    -0.128 C  
BRANCH  27  37
HETATM   37  C   UNL     1      -8.146   8.790  70.163  1.00  0.00    -0.114 C  
BRANCH  37  38
HETATM   38  O   UNL     1      -8.941   9.706  70.905  1.00  0.00    -0.196 OA 
BRANCH  38  39
HETATM   39  C   UNL     1     -10.022   9.007  71.582  1.00  0.00    -0.313 C  
HETATM   40  C   UNL     1     -10.756   6.764  72.181  1.00  0.00    -0.220 C  
HETATM   41  O   UNL     1      -9.760   7.601  71.584  1.00  0.00    -0.160 OA 
HETATM   42  C   UNL     1     -12.166   7.028  71.619  1.00  0.00    -0.357 C  
HETATM   43  C   UNL     1     -10.681   6.818  73.703  1.00  0.00    -0.280 C  
HETATM   44  O   UNL     1     -12.222   6.609  70.245  1.00  0.00    -0.570 OA 
HETATM   45  C   UNL     1     -12.527   8.512  71.665  1.00  0.00    -0.330 C  
HETATM   46  O   UNL     1     -12.792   8.954  73.000  1.00  0.00    -0.583 OA 
HETATM   47  C   UNL     1     -11.427   9.341  70.991  1.00  0.00    -0.319 C  
HETATM   48  H   UNL     1     -13.092   6.771  69.898  1.00  0.00     0.000 HD 
HETATM   49  H   UNL     1     -13.017   9.877  73.029  1.00  0.00     0.000 HD 
HETATM   50  O   UNL     1     -11.709  10.744  71.107  1.00  0.00    -0.268 OA 
HETATM   51  H   UNL     1     -12.564  10.948  70.747  1.00  0.00     0.000 HD 
ENDBRANCH  38  39
ENDBRANCH  37  38
ENDBRANCH  27  37
ENDBRANCH  24  25
ENDBRANCH  19  24
ENDBRANCH   7  11
ENDBRANCH   2   3
TORSDOF 7
ENDMDL
MODEL       35
REMARK 921   NORMALIZED FREE ENERGY PREDICTED BY IDOCK:   -7.79 KCAL/MOL
REMARK 922        TOTAL FREE ENERGY PREDICTED BY IDOCK:  -12.91 KCAL/MOL
REMARK 923 INTER-LIGAND FREE ENERGY PREDICTED BY IDOCK:  -11.48 KCAL/MOL
REMARK 924 INTRA-LIGAND FREE ENERGY PREDICTED BY IDOCK:   -1.43 KCAL/MOL
REMARK 927      BINDING AFFINITY PREDICTED BY RF-SCORE:    0.00 PKD
ROOT
HETATM    1  C   UNL     1     -11.420   2.749  73.527  1.00  0.00    -0.113 C  
HETATM    2  O   UNL     1     -10.028   2.844  73.241  1.00  0.00    -0.102 OA 
ENDROOT
BRANCH   2   3
HETATM    3  C   UNL     1      -9.663   3.906  72.454  1.00  0.00    -0.149 A  
HETATM    4  C   UNL     1      -8.991   4.935  73.109  1.00  0.00    -0.111 A  
HETATM    5  C   UNL     1      -8.584   6.083  72.432  1.00  0.00    -0.120 A  
HETATM    6  O   UNL     1      -8.733   4.850  74.451  1.00  0.00    -0.112 OA 
HETATM    7  C   UNL     1      -8.820   6.230  71.050  1.00  0.00    -0.136 A  
HETATM    8  H   UNL     1      -8.275   5.551  74.898  1.00  0.00     0.000 HD 
HETATM    9  C   UNL     1      -9.474   5.176  70.392  1.00  0.00    -0.229 A  
HETATM   10  C   UNL     1      -9.888   4.022  71.084  1.00  0.00    -0.236 A  
BRANCH   7  11
HETATM   11  C   UNL     1      -8.408   7.462  70.325  1.00  0.00    -0.134 C  
HETATM   12  C   UNL     1      -7.106   7.752  70.175  1.00  0.00    -0.054 C  
HETATM   13  C   UNL     1      -6.714   9.014  69.546  1.00  0.00    -0.047 C  
HETATM   14  O   UNL     1      -5.538   9.312  69.402  1.00  0.00    -0.035 OA 
HETATM   15  C   UNL     1      -7.786   9.908  69.115  1.00  0.00    -0.105 A  
HETATM   16  C   UNL     1      -7.499  11.160  68.580  1.00  0.00    -0.119 A  
HETATM   17  C   UNL     1      -8.518  11.989  68.124  1.00  0.00    -0.171 A  
HETATM   18  O   UNL     1      -6.226  11.643  68.447  1.00  0.00    -0.049 OA 
HETATM   19  C   UNL     1      -9.843  11.567  68.180  1.00  0.00    -0.194 A  
HETATM   20  H   UNL     1      -6.030  12.498  68.081  1.00  0.00     0.000 HD 
HETATM   21  C   UNL     1     -10.135  10.304  68.748  1.00  0.00    -0.198 A  
HETATM   22  C   UNL     1      -9.106   9.481  69.243  1.00  0.00    -0.161 A  
HETATM   23  O   UNL     1      -9.440   8.269  69.828  1.00  0.00    -0.162 OA 
BRANCH  19  24
HETATM   24  O   UNL     1     -10.895  12.244  67.626  1.00  0.00    -0.213 OA 
BRANCH  24  25
HETATM   25  C   UNL     1     -10.687  13.253  66.599  1.00  0.00    -0.280 C  
HETATM   26  O   UNL     1     -10.614  14.605  67.079  1.00  0.00    -0.274 OA 
HETATM   27  C   UNL     1     -10.410  15.608  66.078  1.00  0.00    -0.335 C  
HETATM   28  H   UNL     1     -12.638  13.207  63.048  1.00  0.00     0.000 HD 
HETATM   29  C   UNL     1     -11.501  15.508  64.991  1.00  0.00    -0.218 C  
HETATM   30  O   UNL     1     -11.572  11.735  64.878  1.00  0.00    -0.261 OA 
HETATM   31  C   UNL     1     -11.539  14.119  64.381  1.00  0.00    -0.362 C  
HETATM   32  O   UNL     1     -11.371  16.423  63.891  1.00  0.00    -1.510 OA 
HETATM   33  H   UNL     1     -12.042  16.362  63.223  1.00  0.00     0.000 HD 
HETATM   34  H   UNL     1     -12.201  11.608  64.178  1.00  0.00     0.000 HD 
HETATM   35  O   UNL     1     -12.614  14.076  63.431  1.00  0.00    -0.845 OA 
HETATM   36  C   UNL     1     -11.715  13.047  65.456  1.00  0.00    -0.368 C  
BRANCH  27  37
HETATM   37  C   UNL     1     -10.570  17.030  66.657  1.00  0.00    -0.182 C  
BRANCH  37  38
HETATM   38  O   UNL     1     -10.359  18.135  65.787  1.00  0.00    -0.586 OA 
BRANCH  38  39
HETATM   39  C   UNL     1      -9.118  18.816  66.121  1.00  0.00    -0.141 C  
HETATM   40  C   UNL     1      -6.716  18.440  66.241  1.00  0.00    -0.227 C  
HETATM   41  O   UNL     1      -8.013  17.930  65.916  1.00  0.00    -0.523 OA 
HETATM   42  C   UNL     1      -6.649  19.032  67.661  1.00  0.00    -0.203 C  
HETATM   43  C   UNL     1      -6.207  19.384  65.157  1.00  0.00    -0.307 C  
HETATM   44  O   UNL     1      -6.797  17.979  68.629  1.00  0.00    -0.229 OA 
HETATM   45  C   UNL     1      -7.767  20.045  67.907  1.00  0.00    -0.280 C  
HETATM   46  O   UNL     1      -7.539  21.269  67.203  1.00  0.00    -0.734 OA 
HETATM   47  C   UNL     1      -9.125  19.423  67.558  1.00  0.00    -0.302 C  
HETATM   48  H   UNL     1      -6.756  18.344  69.505  1.00  0.00     0.000 HD 
HETATM   49  H   UNL     1      -8.233  21.900  67.355  1.00  0.00     0.000 HD 
HETATM   50  O   UNL     1     -10.175  20.393  67.697  1.00  0.00    -0.365 OA 
HETATM   51  H   UNL     1     -10.179  20.763  68.572  1.00  0.00     0.000 HD 
ENDBRANCH  38  39
ENDBRANCH  37  38
ENDBRANCH  27  37
ENDBRANCH  24  25
ENDBRANCH  19  24
ENDBRANCH   7  11
ENDBRANCH   2   3
TORSDOF 7
ENDMDL
MODEL       36
REMARK 921   NORMALIZED FREE ENERGY PREDICTED BY IDOCK:   -7.79 KCAL/MOL
REMARK 922        TOTAL FREE ENERGY PREDICTED BY IDOCK:  -12.90 KCAL/MOL
REMARK 923 INTER-LIGAND FREE ENERGY PREDICTED BY IDOCK:  -10.01 KCAL/MOL
REMARK 924 INTRA-LIGAND FREE ENERGY PREDICTED BY IDOCK:   -2.89 KCAL/MOL
REMARK 927      BINDING AFFINITY PREDICTED BY RF-SCORE:    0.00 PKD
ROOT
HETATM    1  C   UNL     1     -10.513  16.829  65.645  1.00  0.00    -0.269 C  
HETATM    2  O   UNL     1     -10.812  15.508  65.204  1.00  0.00    -0.386 OA 
ENDROOT
BRANCH   2   3
HETATM    3  C   UNL     1     -10.812  14.549  66.185  1.00  0.00    -0.317 A  
HETATM    4  C   UNL     1     -11.882  13.659  66.153  1.00  0.00    -0.392 A  
HETATM    5  C   UNL     1     -12.016  12.650  67.105  1.00  0.00    -0.326 A  
HETATM    6  O   UNL     1     -12.848  13.770  65.188  1.00  0.00    -0.695 OA 
HETATM    7  C   UNL     1     -11.055  12.483  68.122  1.00  0.00    -0.282 A  
HETATM    8  H   UNL     1     -13.578  13.163  65.166  1.00  0.00     0.000 HD 
HETATM    9  C   UNL     1      -9.965  13.368  68.132  1.00  0.00    -0.237 A  
HETATM   10  C   UNL     1      -9.840  14.389  67.170  1.00  0.00    -0.254 A  
BRANCH   7  11
HETATM   11  C   UNL     1     -11.203  11.422  69.156  1.00  0.00    -0.272 C  
HETATM   12  C   UNL     1     -12.383  11.239  69.769  1.00  0.00    -0.277 C  
HETATM   13  C   UNL     1     -12.491  10.260  70.851  1.00  0.00    -0.370 C  
HETATM   14  O   UNL     1     -13.548  10.076  71.435  1.00  0.00    -0.303 OA 
HETATM   15  C   UNL     1     -11.280   9.527  71.213  1.00  0.00    -0.452 A  
HETATM   16  C   UNL     1     -11.279   8.635  72.282  1.00  0.00    -0.328 A  
HETATM   17  C   UNL     1     -10.141   7.900  72.593  1.00  0.00    -0.343 A  
HETATM   18  O   UNL     1     -12.376   8.406  73.067  1.00  0.00    -0.616 OA 
HETATM   19  C   UNL     1      -8.988   8.035  71.825  1.00  0.00    -0.147 A  
HETATM   20  H   UNL     1     -12.376   7.798  73.796  1.00  0.00     0.000 HD 
HETATM   21  C   UNL     1      -8.983   8.961  70.756  1.00  0.00    -0.254 A  
HETATM   22  C   UNL     1     -10.125   9.731  70.463  1.00  0.00    -0.224 A  
HETATM   23  O   UNL     1     -10.063  10.655  69.432  1.00  0.00    -0.218 OA 
BRANCH  19  24
HETATM   24  O   UNL     1      -7.872   7.254  71.961  1.00  0.00    -0.089 OA 
BRANCH  24  25
HETATM   25  C   UNL     1      -7.583   6.181  71.024  1.00  0.00    -0.097 C  
HETATM   26  O   UNL     1      -7.227   6.608  69.699  1.00  0.00    -0.073 OA 
HETATM   27  C   UNL     1      -6.940   5.561  68.766  1.00  0.00    -0.060 C  
HETATM   28  H   UNL     1      -9.823   2.814  70.778  1.00  0.00     0.000 HD 
HETATM   29  C   UNL     1      -8.125   4.576  68.687  1.00  0.00    -0.081 C  
HETATM   30  O   UNL     1      -8.875   4.592  72.387  1.00  0.00    -0.115 OA 
HETATM   31  C   UNL     1      -8.464   4.017  70.056  1.00  0.00    -0.064 C  
HETATM   32  O   UNL     1      -7.935   3.440  67.828  1.00  0.00    -0.078 OA 
HETATM   33  H   UNL     1      -8.664   2.834  67.779  1.00  0.00     0.000 HD 
HETATM   34  H   UNL     1      -9.577   3.953  72.410  1.00  0.00     0.000 HD 
HETATM   35  O   UNL     1      -9.611   3.164  69.920  1.00  0.00    -0.157 OA 
HETATM   36  C   UNL     1      -8.729   5.138  71.061  1.00  0.00    -0.128 C  
BRANCH  27  37
HETATM   37  C   UNL     1      -6.792   6.105  67.328  1.00  0.00    -0.063 C  
BRANCH  37  38
HETATM   38  O   UNL     1      -7.941   6.107  66.492  1.00  0.00    -0.102 OA 
BRANCH  38  39
HETATM   39  C   UNL     1      -8.187   7.442  65.970  1.00  0.00    -0.130 C  
HETATM   40  C   UNL     1      -7.067   9.570  65.587  1.00  0.00    -0.093 C  
HETATM   41  O   UNL     1      -6.982   8.212  66.028  1.00  0.00    -0.057 OA 
HETATM   42  C   UNL     1      -8.211  10.345  66.269  1.00  0.00    -0.144 C  
HETATM   43  C   UNL     1      -7.091   9.655  64.064  1.00  0.00    -0.116 C  
HETATM   44  O   UNL     1      -7.912  10.513  67.665  1.00  0.00    -0.105 OA 
HETATM   45  C   UNL     1      -9.541   9.600  66.167  1.00  0.00    -0.233 C  
HETATM   46  O   UNL     1     -10.075   9.643  64.841  1.00  0.00    -0.363 OA 
HETATM   47  C   UNL     1      -9.378   8.162  66.676  1.00  0.00    -0.197 C  
HETATM   48  H   UNL     1      -8.617  10.991  68.086  1.00  0.00     0.000 HD 
HETATM   49  H   UNL     1     -10.903   9.180  64.777  1.00  0.00     0.000 HD 
HETATM   50  O   UNL     1     -10.596   7.423  66.502  1.00  0.00    -0.503 OA 
HETATM   51  H   UNL     1     -11.321   7.861  66.932  1.00  0.00     0.000 HD 
ENDBRANCH  38  39
ENDBRANCH  37  38
ENDBRANCH  27  37
ENDBRANCH  24  25
ENDBRANCH  19  24
ENDBRANCH   7  11
ENDBRANCH   2   3
TORSDOF 7
ENDMDL
MODEL       37
REMARK 921   NORMALIZED FREE ENERGY PREDICTED BY IDOCK:   -7.76 KCAL/MOL
REMARK 922        TOTAL FREE ENERGY PREDICTED BY IDOCK:  -12.87 KCAL/MOL
REMARK 923 INTER-LIGAND FREE ENERGY PREDICTED BY IDOCK:  -12.31 KCAL/MOL
REMARK 924 INTRA-LIGAND FREE ENERGY PREDICTED BY IDOCK:   -0.56 KCAL/MOL
REMARK 927      BINDING AFFINITY PREDICTED BY RF-SCORE:    0.00 PKD
ROOT
HETATM    1  C   UNL     1      -6.124   2.813  66.909  1.00  0.00    -0.024 C  
HETATM    2  O   UNL     1      -7.523   2.993  66.712  1.00  0.00    -0.072 OA 
ENDROOT
BRANCH   2   3
HETATM    3  C   UNL     1      -7.952   4.296  66.727  1.00  0.00    -0.098 A  
HETATM    4  C   UNL     1      -9.304   4.485  66.450  1.00  0.00    -0.151 A  
HETATM    5  C   UNL     1      -9.866   5.759  66.411  1.00  0.00    -0.174 A  
HETATM    6  O   UNL     1     -10.114   3.413  66.186  1.00  0.00    -0.383 OA 
HETATM    7  C   UNL     1      -9.085   6.903  66.676  1.00  0.00    -0.172 A  
HETATM    8  H   UNL     1     -11.036   3.542  65.997  1.00  0.00     0.000 HD 
HETATM    9  C   UNL     1      -7.729   6.702  66.980  1.00  0.00    -0.103 A  
HETATM   10  C   UNL     1      -7.168   5.411  67.011  1.00  0.00    -0.078 A  
BRANCH   7  11
HETATM   11  C   UNL     1      -9.673   8.269  66.614  1.00  0.00    -0.251 C  
HETATM   12  C   UNL     1      -9.515   9.021  65.514  1.00  0.00    -0.220 C  
HETATM   13  C   UNL     1     -10.013  10.397  65.501  1.00  0.00    -0.282 C  
HETATM   14  O   UNL     1      -9.878  11.111  64.519  1.00  0.00    -0.243 OA 
HETATM   15  C   UNL     1     -10.662  10.885  66.717  1.00  0.00    -0.309 A  
HETATM   16  C   UNL     1     -11.093  12.204  66.814  1.00  0.00    -0.300 A  
HETATM   17  C   UNL     1     -11.756  12.653  67.951  1.00  0.00    -0.412 A  
HETATM   18  O   UNL     1     -10.922  13.124  65.816  1.00  0.00    -0.276 OA 
HETATM   19  C   UNL     1     -12.013  11.779  69.003  1.00  0.00    -0.280 A  
HETATM   20  H   UNL     1     -11.216  14.025  65.882  1.00  0.00     0.000 HD 
HETATM   21  C   UNL     1     -11.551  10.446  68.913  1.00  0.00    -0.208 A  
HETATM   22  C   UNL     1     -10.849  10.001  67.776  1.00  0.00    -0.282 A  
HETATM   23  O   UNL     1     -10.378   8.697  67.747  1.00  0.00    -0.222 OA 
BRANCH  19  24
HETATM   24  O   UNL     1     -12.781  12.086  70.094  1.00  0.00     0.025 OA 
BRANCH  24  25
HETATM   25  C   UNL     1     -12.848  13.443  70.613  1.00  0.00    -0.087 C  
HETATM   26  O   UNL     1     -12.031  14.402  69.921  1.00  0.00    -0.294 OA 
HETATM   27  C   UNL     1     -12.088  15.741  70.423  1.00  0.00    -0.370 C  
HETATM   28  H   UNL     1     -12.814  14.283  74.576  1.00  0.00     0.000 HD 
HETATM   29  C   UNL     1     -11.743  15.764  71.927  1.00  0.00    -0.483 C  
HETATM   30  O   UNL     1     -13.629  12.610  72.791  1.00  0.00    -0.661 OA 
HETATM   31  C   UNL     1     -12.658  14.842  72.711  1.00  0.00    -0.385 C  
HETATM   32  O   UNL     1     -11.827  17.048  72.566  1.00  0.00    -0.383 OA 
HETATM   33  H   UNL     1     -11.615  17.062  73.491  1.00  0.00     0.000 HD 
HETATM   34  H   UNL     1     -13.494  12.596  73.731  1.00  0.00     0.000 HD 
HETATM   35  O   UNL     1     -12.241  14.860  74.085  1.00  0.00    -0.546 OA 
HETATM   36  C   UNL     1     -12.627  13.421  72.148  1.00  0.00     0.028 C  
BRANCH  27  37
HETATM   37  C   UNL     1     -11.018  16.640  69.767  1.00  0.00    -0.205 C  
BRANCH  37  38
HETATM   38  O   UNL     1     -11.080  16.837  68.360  1.00  0.00    -0.357 OA 
BRANCH  38  39
HETATM   39  C   UNL     1      -9.933  17.607  67.904  1.00  0.00    -0.323 C  
HETATM   40  C   UNL     1      -8.482  19.440  68.584  1.00  0.00    -0.359 C  
HETATM   41  O   UNL     1      -9.573  18.570  68.900  1.00  0.00    -0.330 OA 
HETATM   42  C   UNL     1      -8.658  20.142  67.224  1.00  0.00    -0.343 C  
HETATM   43  C   UNL     1      -7.144  18.725  68.739  1.00  0.00    -0.335 C  
HETATM   44  O   UNL     1      -9.754  21.068  67.298  1.00  0.00    -0.637 OA 
HETATM   45  C   UNL     1      -8.969  19.146  66.107  1.00  0.00    -0.219 C  
HETATM   46  O   UNL     1      -7.821  18.371  65.750  1.00  0.00    -0.510 OA 
HETATM   47  C   UNL     1     -10.159  18.264  66.507  1.00  0.00    -0.385 C  
HETATM   48  H   UNL     1      -9.863  21.501  66.460  1.00  0.00     0.000 HD 
HETATM   49  H   UNL     1      -8.014  17.751  65.056  1.00  0.00     0.000 HD 
HETATM   50  O   UNL     1     -10.404  17.264  65.507  1.00  0.00    -0.614 OA 
HETATM   51  H   UNL     1     -10.542  17.664  64.656  1.00  0.00     0.000 HD 
ENDBRANCH  38  39
ENDBRANCH  37  38
ENDBRANCH  27  37
ENDBRANCH  24  25
ENDBRANCH  19  24
ENDBRANCH   7  11
ENDBRANCH   2   3
TORSDOF 7
ENDMDL
MODEL       38
REMARK 921   NORMALIZED FREE ENERGY PREDICTED BY IDOCK:   -7.75 KCAL/MOL
REMARK 922        TOTAL FREE ENERGY PREDICTED BY IDOCK:  -12.85 KCAL/MOL
REMARK 923 INTER-LIGAND FREE ENERGY PREDICTED BY IDOCK:  -11.32 KCAL/MOL
REMARK 924 INTRA-LIGAND FREE ENERGY PREDICTED BY IDOCK:   -1.53 KCAL/MOL
REMARK 927      BINDING AFFINITY PREDICTED BY RF-SCORE:    0.00 PKD
ROOT
HETATM    1  C   UNL     1      -7.229  20.943  67.306  1.00  0.00    -0.350 C  
HETATM    2  O   UNL     1      -6.429  19.763  67.304  1.00  0.00    -0.193 OA 
ENDROOT
BRANCH   2   3
HETATM    3  C   UNL     1      -7.118  18.590  67.479  1.00  0.00    -0.206 A  
HETATM    4  C   UNL     1      -7.371  17.864  66.318  1.00  0.00    -0.292 A  
HETATM    5  C   UNL     1      -8.081  16.665  66.352  1.00  0.00    -0.359 A  
HETATM    6  O   UNL     1      -6.945  18.329  65.103  1.00  0.00    -0.463 OA 
HETATM    7  C   UNL     1      -8.545  16.133  67.572  1.00  0.00    -0.189 A  
HETATM    8  H   UNL     1      -7.118  17.835  64.311  1.00  0.00     0.000 HD 
HETATM    9  C   UNL     1      -8.262  16.857  68.741  1.00  0.00    -0.244 A  
HETATM   10  C   UNL     1      -7.551  18.071  68.698  1.00  0.00    -0.297 A  
BRANCH   7  11
HETATM   11  C   UNL     1      -9.323  14.864  67.613  1.00  0.00    -0.191 C  
HETATM   12  C   UNL     1     -10.536  14.837  68.187  1.00  0.00    -0.239 C  
HETATM   13  C   UNL     1     -11.249  13.564  68.308  1.00  0.00    -0.274 C  
HETATM   14  O   UNL     1     -12.351  13.503  68.833  1.00  0.00    -0.248 OA 
HETATM   15  C   UNL     1     -10.581  12.372  67.792  1.00  0.00    -0.236 A  
HETATM   16  C   UNL     1     -11.156  11.113  67.939  1.00  0.00    -0.273 A  
HETATM   17  C   UNL     1     -10.545   9.985  67.403  1.00  0.00    -0.330 A  
HETATM   18  O   UNL     1     -12.345  10.903  68.583  1.00  0.00    -0.805 OA 
HETATM   19  C   UNL     1      -9.353  10.104  66.695  1.00  0.00    -0.162 A  
HETATM   20  H   UNL     1     -12.738  10.044  68.683  1.00  0.00     0.000 HD 
HETATM   21  C   UNL     1      -8.757  11.381  66.569  1.00  0.00    -0.181 A  
HETATM   22  C   UNL     1      -9.358  12.517  67.142  1.00  0.00    -0.201 A  
HETATM   23  O   UNL     1      -8.719  13.743  67.030  1.00  0.00    -0.224 OA 
BRANCH  19  24
HETATM   24  O   UNL     1      -8.754   9.082  66.009  1.00  0.00    -0.142 OA 
BRANCH  24  25
HETATM   25  C   UNL     1      -9.308   7.737  66.024  1.00  0.00    -0.037 C  
HETATM   26  O   UNL     1      -9.627   7.223  67.326  1.00  0.00    -0.140 OA 
HETATM   27  C   UNL     1     -10.172   5.900  67.354  1.00  0.00    -0.194 C  
HETATM   28  H   UNL     1      -7.844   4.734  63.732  1.00  0.00     0.000 HD 
HETATM   29  C   UNL     1      -9.227   4.917  66.632  1.00  0.00    -0.126 C  
HETATM   30  O   UNL     1      -8.318   7.267  63.821  1.00  0.00    -0.356 OA 
HETATM   31  C   UNL     1      -8.951   5.369  65.211  1.00  0.00    -0.098 C  
HETATM   32  O   UNL     1      -9.694   3.561  66.535  1.00  0.00    -0.373 OA 
HETATM   33  H   UNL     1      -9.112   2.956  66.091  1.00  0.00     0.000 HD 
HETATM   34  H   UNL     1      -7.766   6.692  63.305  1.00  0.00     0.000 HD 
HETATM   35  O   UNL     1      -8.017   4.451  64.622  1.00  0.00    -0.087 OA 
HETATM   36  C   UNL     1      -8.407   6.798  65.181  1.00  0.00    -0.080 C  
BRANCH  27  37
HETATM   37  C   UNL     1     -10.270   5.355  68.796  1.00  0.00    -0.182 C  
BRANCH  37  38
HETATM   38  O   UNL     1     -11.401   5.722  69.575  1.00  0.00    -0.261 OA 
BRANCH  38  39
HETATM   39  C   UNL     1     -11.128   6.939  70.324  1.00  0.00    -0.297 C  
HETATM   40  C   UNL     1      -9.383   8.009  71.642  1.00  0.00    -0.160 C  
HETATM   41  O   UNL     1      -9.795   6.897  70.842  1.00  0.00    -0.185 OA 
HETATM   42  C   UNL     1     -10.373   8.319  72.781  1.00  0.00    -0.260 C  
HETATM   43  C   UNL     1      -9.047   9.218  70.775  1.00  0.00    -0.306 C  
HETATM   44  O   UNL     1     -10.351   7.249  73.741  1.00  0.00    -0.360 OA 
HETATM   45  C   UNL     1     -11.806   8.451  72.268  1.00  0.00    -0.389 C  
HETATM   46  O   UNL     1     -12.000   9.667  71.540  1.00  0.00    -0.358 OA 
HETATM   47  C   UNL     1     -12.183   7.217  71.439  1.00  0.00    -0.362 C  
HETATM   48  H   UNL     1     -10.962   7.440  74.444  1.00  0.00     0.000 HD 
HETATM   49  H   UNL     1     -12.892   9.750  71.221  1.00  0.00     0.000 HD 
HETATM   50  O   UNL     1     -13.494   7.368  70.875  1.00  0.00    -0.613 OA 
HETATM   51  H   UNL     1     -14.137   7.537  71.554  1.00  0.00     0.000 HD 
ENDBRANCH  38  39
ENDBRANCH  37  38
ENDBRANCH  27  37
ENDBRANCH  24  25
ENDBRANCH  19  24
ENDBRANCH   7  11
ENDBRANCH   2   3
TORSDOF 7
ENDMDL
MODEL       39
REMARK 921   NORMALIZED FREE ENERGY PREDICTED BY IDOCK:   -7.69 KCAL/MOL
REMARK 922        TOTAL FREE ENERGY PREDICTED BY IDOCK:  -12.77 KCAL/MOL
REMARK 923 INTER-LIGAND FREE ENERGY PREDICTED BY IDOCK:  -11.95 KCAL/MOL
REMARK 924 INTRA-LIGAND FREE ENERGY PREDICTED BY IDOCK:   -0.82 KCAL/MOL
REMARK 927      BINDING AFFINITY PREDICTED BY RF-SCORE:    0.00 PKD
ROOT
HETATM    1  C   UNL     1     -11.402   1.741  73.661  1.00  0.00    -0.200 C  
HETATM    2  O   UNL     1     -10.526   1.839  72.541  1.00  0.00    -0.150 OA 
ENDROOT
BRANCH   2   3
HETATM    3  C   UNL     1     -10.275   3.114  72.104  1.00  0.00    -0.073 A  
HETATM    4  C   UNL     1      -9.579   3.211  70.902  1.00  0.00    -0.155 A  
HETATM    5  C   UNL     1      -9.239   4.447  70.357  1.00  0.00    -0.184 A  
HETATM    6  O   UNL     1      -9.190   2.081  70.234  1.00  0.00    -0.088 OA 
HETATM    7  C   UNL     1      -9.612   5.647  70.996  1.00  0.00    -0.210 A  
HETATM    8  H   UNL     1      -8.715   2.146  69.414  1.00  0.00     0.000 HD 
HETATM    9  C   UNL     1     -10.336   5.542  72.194  1.00  0.00    -0.263 A  
HETATM   10  C   UNL     1     -10.670   4.288  72.742  1.00  0.00    -0.217 A  
BRANCH   7  11
HETATM   11  C   UNL     1      -9.233   6.971  70.432  1.00  0.00    -0.156 C  
HETATM   12  C   UNL     1      -8.208   7.659  70.959  1.00  0.00    -0.107 C  
HETATM   13  C   UNL     1      -7.906   9.001  70.459  1.00  0.00    -0.130 C  
HETATM   14  O   UNL     1      -6.986   9.658  70.923  1.00  0.00    -0.231 OA 
HETATM   15  C   UNL     1      -8.761   9.528  69.398  1.00  0.00    -0.166 A  
HETATM   16  C   UNL     1      -8.590  10.825  68.923  1.00  0.00    -0.153 A  
HETATM   17  C   UNL     1      -9.371  11.308  67.879  1.00  0.00    -0.161 A  
HETATM   18  O   UNL     1      -7.651  11.687  69.420  1.00  0.00    -0.344 OA 
HETATM   19  C   UNL     1     -10.325  10.490  67.281  1.00  0.00    -0.228 A  
HETATM   20  H   UNL     1      -7.535  12.572  69.096  1.00  0.00     0.000 HD 
HETATM   21  C   UNL     1     -10.514   9.181  67.783  1.00  0.00    -0.306 A  
HETATM   22  C   UNL     1      -9.749   8.705  68.864  1.00  0.00    -0.170 A  
HETATM   23  O   UNL     1      -9.996   7.430  69.350  1.00  0.00    -0.170 OA 
BRANCH  19  24
HETATM   24  O   UNL     1     -11.036  10.822  66.159  1.00  0.00    -0.115 OA 
BRANCH  24  25
HETATM   25  C   UNL     1     -10.760  12.047  65.426  1.00  0.00    -0.287 C  
HETATM   26  O   UNL     1     -10.091  13.071  66.179  1.00  0.00    -0.274 OA 
HETATM   27  C   UNL     1      -9.814  14.283  65.468  1.00  0.00    -0.252 C  
HETATM   28  H   UNL     1     -13.454  13.772  62.940  1.00  0.00     0.000 HD 
HETATM   29  C   UNL     1     -11.113  14.856  64.864  1.00  0.00    -0.414 C  
HETATM   30  O   UNL     1     -12.541  11.524  63.811  1.00  0.00    -0.391 OA 
HETATM   31  C   UNL     1     -11.797  13.838  63.972  1.00  0.00    -0.370 C  
HETATM   32  O   UNL     1     -10.958  16.044  64.069  1.00  0.00    -0.926 OA 
HETATM   33  H   UNL     1     -11.758  16.397  63.697  1.00  0.00     0.000 HD 
HETATM   34  H   UNL     1     -13.333  11.819  63.379  1.00  0.00     0.000 HD 
HETATM   35  O   UNL     1     -13.026  14.410  63.499  1.00  0.00    -0.318 OA 
HETATM   36  C   UNL     1     -12.054  12.530  64.721  1.00  0.00    -0.434 C  
BRANCH  27  37
HETATM   37  C   UNL     1      -9.303  15.392  66.413  1.00  0.00    -0.299 C  
BRANCH  37  38
HETATM   38  O   UNL     1     -10.245  16.332  66.913  1.00  0.00    -0.275 OA 
BRANCH  38  39
HETATM   39  C   UNL     1      -9.616  17.629  67.105  1.00  0.00    -0.278 C  
HETATM   40  C   UNL     1      -8.540  18.985  68.818  1.00  0.00    -0.321 C  
HETATM   41  O   UNL     1      -9.150  17.743  68.454  1.00  0.00    -0.266 OA 
HETATM   42  C   UNL     1      -9.416  20.203  68.466  1.00  0.00    -0.048 C  
HETATM   43  C   UNL     1      -7.116  19.077  68.280  1.00  0.00    -0.296 C  
HETATM   44  O   UNL     1     -10.591  20.205  69.294  1.00  0.00    -0.539 OA 
HETATM   45  C   UNL     1      -9.877  20.169  67.010  1.00  0.00    -0.455 C  
HETATM   46  O   UNL     1      -8.808  20.464  66.106  1.00  0.00    -0.575 OA 
HETATM   47  C   UNL     1     -10.539  18.820  66.700  1.00  0.00    -0.383 C  
HETATM   48  H   UNL     1     -11.132  20.955  69.078  1.00  0.00     0.000 HD 
HETATM   49  H   UNL     1      -9.094  20.443  65.200  1.00  0.00     0.000 HD 
HETATM   50  O   UNL     1     -10.895  18.739  65.311  1.00  0.00    -0.576 OA 
HETATM   51  H   UNL     1     -11.457  19.464  65.064  1.00  0.00     0.000 HD 
ENDBRANCH  38  39
ENDBRANCH  37  38
ENDBRANCH  27  37
ENDBRANCH  24  25
ENDBRANCH  19  24
ENDBRANCH   7  11
ENDBRANCH   2   3
TORSDOF 7
ENDMDL
MODEL       40
REMARK 921   NORMALIZED FREE ENERGY PREDICTED BY IDOCK:   -7.63 KCAL/MOL
REMARK 922        TOTAL FREE ENERGY PREDICTED BY IDOCK:  -12.69 KCAL/MOL
REMARK 923 INTER-LIGAND FREE ENERGY PREDICTED BY IDOCK:  -10.80 KCAL/MOL
REMARK 924 INTRA-LIGAND FREE ENERGY PREDICTED BY IDOCK:   -1.88 KCAL/MOL
REMARK 927      BINDING AFFINITY PREDICTED BY RF-SCORE:    0.00 PKD
ROOT
HETATM    1  C   UNL     1     -11.158   4.438  73.585  1.00  0.00    -0.278 C  
HETATM    2  O   UNL     1     -11.564   5.758  73.234  1.00  0.00    -0.077 OA 
ENDROOT
BRANCH   2   3
HETATM    3  C   UNL     1     -11.161   6.183  71.993  1.00  0.00    -0.286 A  
HETATM    4  C   UNL     1     -11.366   7.534  71.727  1.00  0.00    -0.254 A  
HETATM    5  C   UNL     1     -11.023   8.093  70.498  1.00  0.00    -0.248 A  
HETATM    6  O   UNL     1     -11.935   8.348  72.670  1.00  0.00    -0.418 OA 
HETATM    7  C   UNL     1     -10.432   7.308  69.486  1.00  0.00    -0.238 A  
HETATM    8  H   UNL     1     -12.075   9.270  72.489  1.00  0.00     0.000 HD 
HETATM    9  C   UNL     1     -10.204   5.952  69.772  1.00  0.00    -0.281 A  
HETATM   10  C   UNL     1     -10.560   5.394  71.015  1.00  0.00    -0.275 A  
BRANCH   7  11
HETATM   11  C   UNL     1     -10.083   7.892  68.162  1.00  0.00    -0.191 C  
HETATM   12  C   UNL     1      -9.293   7.215  67.315  1.00  0.00    -0.156 C  
HETATM   13  C   UNL     1      -8.879   7.839  66.058  1.00  0.00    -0.157 C  
HETATM   14  O   UNL     1      -8.153   7.254  65.269  1.00  0.00    -0.124 OA 
HETATM   15  C   UNL     1      -9.353   9.197  65.797  1.00  0.00    -0.309 A  
HETATM   16  C   UNL     1      -8.941   9.890  64.663  1.00  0.00    -0.222 A  
HETATM   17  C   UNL     1      -9.433  11.161  64.390  1.00  0.00    -0.251 A  
HETATM   18  O   UNL     1      -8.064   9.375  63.748  1.00  0.00    -0.136 OA 
HETATM   19  C   UNL     1     -10.362  11.752  65.242  1.00  0.00    -0.274 A  
HETATM   20  H   UNL     1      -7.783   9.848  62.974  1.00  0.00     0.000 HD 
HETATM   21  C   UNL     1     -10.759  11.056  66.407  1.00  0.00    -0.286 A  
HETATM   22  C   UNL     1     -10.234   9.783  66.702  1.00  0.00    -0.226 A  
HETATM   23  O   UNL     1     -10.620   9.154  67.876  1.00  0.00    -0.240 OA 
BRANCH  19  24
HETATM   24  O   UNL     1     -11.010  12.929  64.984  1.00  0.00    -0.284 OA 
BRANCH  24  25
HETATM   25  C   UNL     1     -10.715  14.136  65.741  1.00  0.00    -0.299 C  
HETATM   26  O   UNL     1      -9.320  14.374  65.989  1.00  0.00    -0.242 OA 
HETATM   27  C   UNL     1      -9.017  15.558  66.734  1.00  0.00    -0.266 C  
HETATM   28  H   UNL     1     -12.857  15.271  68.987  1.00  0.00     0.000 HD 
HETATM   29  C   UNL     1      -9.784  15.560  68.072  1.00  0.00    -0.207 C  
HETATM   30  O   UNL     1     -12.994  14.156  66.666  1.00  0.00    -0.335 OA 
HETATM   31  C   UNL     1     -11.277  15.418  67.846  1.00  0.00    -0.329 C  
HETATM   32  O   UNL     1      -9.613  16.731  68.888  1.00  0.00    -0.247 OA 
HETATM   33  H   UNL     1     -10.085  16.731  69.711  1.00  0.00     0.000 HD 
HETATM   34  H   UNL     1     -13.534  14.180  67.447  1.00  0.00     0.000 HD 
HETATM   35  O   UNL     1     -11.921  15.359  69.129  1.00  0.00    -0.335 OA 
HETATM   36  C   UNL     1     -11.596  14.175  67.016  1.00  0.00    -0.382 C  
BRANCH  27  37
HETATM   37  C   UNL     1      -7.528  15.608  67.141  1.00  0.00    -0.218 C  
BRANCH  37  38
HETATM   38  O   UNL     1      -6.666  16.478  66.419  1.00  0.00    -0.202 OA 
BRANCH  38  39
HETATM   39  C   UNL     1      -6.487  17.729  67.140  1.00  0.00    -0.166 C  
HETATM   40  C   UNL     1      -6.595  18.661  69.387  1.00  0.00    -0.227 C  
HETATM   41  O   UNL     1      -6.695  17.512  68.539  1.00  0.00    -0.186 OA 
HETATM   42  C   UNL     1      -7.475  19.831  68.907  1.00  0.00    -0.268 C  
HETATM   43  C   UNL     1      -5.139  19.044  69.626  1.00  0.00    -0.181 C  
HETATM   44  O   UNL     1      -8.862  19.482  69.054  1.00  0.00    -0.340 OA 
HETATM   45  C   UNL     1      -7.234  20.155  67.433  1.00  0.00    -0.276 C  
HETATM   46  O   UNL     1      -5.972  20.797  67.228  1.00  0.00    -0.194 OA 
HETATM   47  C   UNL     1      -7.378  18.884  66.586  1.00  0.00    -0.224 C  
HETATM   48  H   UNL     1      -9.404  20.204  68.758  1.00  0.00     0.000 HD 
HETATM   49  H   UNL     1      -5.822  20.998  66.312  1.00  0.00     0.000 HD 
HETATM   50  O   UNL     1      -7.065  19.155  65.211  1.00  0.00    -0.467 OA 
HETATM   51  H   UNL     1      -7.607  19.858  64.874  1.00  0.00     0.000 HD 
ENDBRANCH  38  39
ENDBRANCH  37  38
ENDBRANCH  27  37
ENDBRANCH  24  25
ENDBRANCH  19  24
ENDBRANCH   7  11
ENDBRANCH   2   3
TORSDOF 7
ENDMDL
MODEL       41
REMARK 921   NORMALIZED FREE ENERGY PREDICTED BY IDOCK:   -7.62 KCAL/MOL
REMARK 922        TOTAL FREE ENERGY PREDICTED BY IDOCK:  -12.67 KCAL/MOL
REMARK 923 INTER-LIGAND FREE ENERGY PREDICTED BY IDOCK:  -11.24 KCAL/MOL
REMARK 924 INTRA-LIGAND FREE ENERGY PREDICTED BY IDOCK:   -1.43 KCAL/MOL
REMARK 927      BINDING AFFINITY PREDICTED BY RF-SCORE:    0.00 PKD
ROOT
HETATM    1  C   UNL     1      -5.684   2.362  67.931  1.00  0.00    -0.019 C  
HETATM    2  O   UNL     1      -7.080   2.487  68.184  1.00  0.00    -0.047 OA 
ENDROOT
BRANCH   2   3
HETATM    3  C   UNL     1      -7.588   3.755  68.050  1.00  0.00    -0.066 A  
HETATM    4  C   UNL     1      -8.916   3.828  67.637  1.00  0.00    -0.134 A  
HETATM    5  C   UNL     1      -9.548   5.054  67.439  1.00  0.00    -0.164 A  
HETATM    6  O   UNL     1      -9.629   2.686  67.391  1.00  0.00    -0.397 OA 
HETATM    7  C   UNL     1      -8.868   6.266  67.677  1.00  0.00    -0.111 A  
HETATM    8  H   UNL     1     -10.535   2.735  67.109  1.00  0.00     0.000 HD 
HETATM    9  C   UNL     1      -7.538   6.183  68.119  1.00  0.00    -0.098 A  
HETATM   10  C   UNL     1      -6.904   4.940  68.309  1.00  0.00    -0.056 A  
BRANCH   7  11
HETATM   11  C   UNL     1      -9.529   7.579  67.447  1.00  0.00    -0.142 C  
HETATM   12  C   UNL     1      -9.474   8.159  66.238  1.00  0.00    -0.259 C  
HETATM   13  C   UNL     1     -10.044   9.493  66.049  1.00  0.00    -0.249 C  
HETATM   14  O   UNL     1     -10.003  10.052  64.964  1.00  0.00    -0.326 OA 
HETATM   15  C   UNL     1     -10.647  10.134  67.216  1.00  0.00    -0.321 A  
HETATM   16  C   UNL     1     -11.141  11.433  67.140  1.00  0.00    -0.305 A  
HETATM   17  C   UNL     1     -11.760  12.023  68.236  1.00  0.00    -0.396 A  
HETATM   18  O   UNL     1     -11.075  12.193  66.005  1.00  0.00    -0.288 OA 
HETATM   19  C   UNL     1     -11.910  11.311  69.423  1.00  0.00    -0.355 A  
HETATM   20  H   UNL     1     -11.413  13.080  65.953  1.00  0.00     0.000 HD 
HETATM   21  C   UNL     1     -11.385  10.001  69.506  1.00  0.00    -0.220 A  
HETATM   22  C   UNL     1     -10.726   9.417  68.407  1.00  0.00    -0.168 A  
HETATM   23  O   UNL     1     -10.190   8.146  68.545  1.00  0.00    -0.199 OA 
BRANCH  19  24
HETATM   24  O   UNL     1     -12.630  11.749  70.501  1.00  0.00    -0.240 OA 
BRANCH  24  25
HETATM   25  C   UNL     1     -12.714  13.164  70.830  1.00  0.00    -0.184 C  
HETATM   26  O   UNL     1     -11.698  13.989  70.237  1.00  0.00    -0.277 OA 
HETATM   27  C   UNL     1     -11.769  15.383  70.553  1.00  0.00    -0.325 C  
HETATM   28  H   UNL     1     -13.505  14.508  74.569  1.00  0.00     0.000 HD 
HETATM   29  C   UNL     1     -11.767  15.586  72.083  1.00  0.00    -0.476 C  
HETATM   30  O   UNL     1     -14.019  12.654  72.852  1.00  0.00    -0.575 OA 
HETATM   31  C   UNL     1     -12.897  14.814  72.737  1.00  0.00    -0.434 C  
HETATM   32  O   UNL     1     -11.900  16.944  72.532  1.00  0.00    -0.491 OA 
HETATM   33  H   UNL     1     -11.898  17.069  73.473  1.00  0.00     0.000 HD 
HETATM   34  H   UNL     1     -14.098  12.757  73.793  1.00  0.00     0.000 HD 
HETATM   35  O   UNL     1     -12.797  14.991  74.159  1.00  0.00    -0.430 OA 
HETATM   36  C   UNL     1     -12.843  13.332  72.366  1.00  0.00    -0.105 C  
BRANCH  27  37
HETATM   37  C   UNL     1     -10.518  16.143  70.060  1.00  0.00    -0.215 C  
BRANCH  37  38
HETATM   38  O   UNL     1     -10.711  17.296  69.252  1.00  0.00    -0.260 OA 
BRANCH  38  39
HETATM   39  C   UNL     1     -10.208  17.064  67.907  1.00  0.00    -0.317 C  
HETATM   40  C   UNL     1     -10.594  15.674  65.946  1.00  0.00    -0.343 C  
HETATM   41  O   UNL     1     -10.989  16.049  67.269  1.00  0.00    -0.300 OA 
HETATM   42  C   UNL     1      -9.100  15.313  65.853  1.00  0.00    -0.103 C  
HETATM   43  C   UNL     1     -11.041  16.712  64.922  1.00  0.00    -0.137 C  
HETATM   44  O   UNL     1      -8.851  14.100  66.584  1.00  0.00    -0.390 OA 
HETATM   45  C   UNL     1      -8.214  16.404  66.454  1.00  0.00    -0.331 C  
HETATM   46  O   UNL     1      -8.159  17.564  65.619  1.00  0.00    -0.508 OA 
HETATM   47  C   UNL     1      -8.683  16.738  67.876  1.00  0.00    -0.203 C  
HETATM   48  H   UNL     1      -7.929  13.877  66.527  1.00  0.00     0.000 HD 
HETATM   49  H   UNL     1      -7.609  18.243  65.992  1.00  0.00     0.000 HD 
HETATM   50  O   UNL     1      -7.917  17.825  68.417  1.00  0.00    -0.273 OA 
HETATM   51  H   UNL     1      -6.988  17.626  68.398  1.00  0.00     0.000 HD 
ENDBRANCH  38  39
ENDBRANCH  37  38
ENDBRANCH  27  37
ENDBRANCH  24  25
ENDBRANCH  19  24
ENDBRANCH   7  11
ENDBRANCH   2   3
TORSDOF 7
ENDMDL
MODEL       42
REMARK 921   NORMALIZED FREE ENERGY PREDICTED BY IDOCK:   -7.59 KCAL/MOL
REMARK 922        TOTAL FREE ENERGY PREDICTED BY IDOCK:  -12.63 KCAL/MOL
REMARK 923 INTER-LIGAND FREE ENERGY PREDICTED BY IDOCK:  -10.83 KCAL/MOL
REMARK 924 INTRA-LIGAND FREE ENERGY PREDICTED BY IDOCK:   -1.80 KCAL/MOL
REMARK 927      BINDING AFFINITY PREDICTED BY RF-SCORE:    0.00 PKD
ROOT
HETATM    1  C   UNL     1     -10.045  20.159  69.905  1.00  0.00     0.397 C  
HETATM    2  O   UNL     1     -10.285  20.199  68.501  1.00  0.00    -0.413 OA 
ENDROOT
BRANCH   2   3
HETATM    3  C   UNL     1     -10.381  18.976  67.889  1.00  0.00    -0.405 A  
HETATM    4  C   UNL     1     -10.386  19.001  66.496  1.00  0.00    -0.439 A  
HETATM    5  C   UNL     1     -10.502  17.831  65.749  1.00  0.00    -0.199 A  
HETATM    6  O   UNL     1     -10.299  20.191  65.824  1.00  0.00    -0.443 OA 
HETATM    7  C   UNL     1     -10.594  16.574  66.382  1.00  0.00    -0.221 A  
HETATM    8  H   UNL     1     -10.303  20.209  64.875  1.00  0.00     0.000 HD 
HETATM    9  C   UNL     1     -10.561  16.555  67.785  1.00  0.00    -0.332 A  
HETATM   10  C   UNL     1     -10.451  17.743  68.533  1.00  0.00    -0.332 A  
BRANCH   7  11
HETATM   11  C   UNL     1     -10.740  15.322  65.591  1.00  0.00    -0.365 C  
HETATM   12  C   UNL     1     -11.638  15.255  64.596  1.00  0.00    -0.333 C  
HETATM   13  C   UNL     1     -11.841  13.989  63.890  1.00  0.00    -0.229 C  
HETATM   14  O   UNL     1     -12.657  13.893  62.986  1.00  0.00    -0.694 OA 
HETATM   15  C   UNL     1     -11.042  12.846  64.324  1.00  0.00    -0.414 A  
HETATM   16  C   UNL     1     -11.231  11.589  63.757  1.00  0.00    -0.370 A  
HETATM   17  C   UNL     1     -10.435  10.513  64.134  1.00  0.00    -0.013 A  
HETATM   18  O   UNL     1     -12.171  11.333  62.797  1.00  0.00    -0.812 OA 
HETATM   19  C   UNL     1      -9.423  10.685  65.075  1.00  0.00    -0.243 A  
HETATM   20  H   UNL     1     -12.300  10.475  62.410  1.00  0.00     0.000 HD 
HETATM   21  C   UNL     1      -9.251  11.957  65.668  1.00  0.00    -0.060 A  
HETATM   22  C   UNL     1     -10.080  13.038  65.312  1.00  0.00    -0.231 A  
HETATM   23  O   UNL     1      -9.903  14.257  65.948  1.00  0.00    -0.303 OA 
BRANCH  19  24
HETATM   24  O   UNL     1      -8.500   9.729  65.401  1.00  0.00    -0.133 OA 
BRANCH  24  25
HETATM   25  C   UNL     1      -8.865   8.325  65.492  1.00  0.00    -0.110 C  
HETATM   26  O   UNL     1      -9.722   7.988  66.594  1.00  0.00    -0.210 OA 
HETATM   27  C   UNL     1     -10.089   6.607  66.695  1.00  0.00    -0.135 C  
HETATM   28  H   UNL     1      -6.210   5.321  64.907  1.00  0.00     0.000 HD 
HETATM   29  C   UNL     1      -8.828   5.720  66.737  1.00  0.00    -0.117 C  
HETATM   30  O   UNL     1      -6.900   7.689  64.156  1.00  0.00    -0.054 OA 
HETATM   31  C   UNL     1      -7.945   5.969  65.529  1.00  0.00    -0.115 C  
HETATM   32  O   UNL     1      -9.063   4.303  66.774  1.00  0.00    -0.120 OA 
HETATM   33  H   UNL     1      -8.287   3.758  66.800  1.00  0.00     0.000 HD 
HETATM   34  H   UNL     1      -6.118   7.154  64.099  1.00  0.00     0.000 HD 
HETATM   35  O   UNL     1      -6.763   5.165  65.664  1.00  0.00    -0.050 OA 
HETATM   36  C   UNL     1      -7.588   7.450  65.399  1.00  0.00    -0.096 C  
BRANCH  27  37
HETATM   37  C   UNL     1     -10.818   6.308  68.024  1.00  0.00    -0.326 C  
BRANCH  37  38
HETATM   38  O   UNL     1     -10.027   6.031  69.172  1.00  0.00    -0.147 OA 
BRANCH  38  39
HETATM   39  C   UNL     1     -10.166   7.095  70.154  1.00  0.00    -0.195 C  
HETATM   40  C   UNL     1     -11.833   8.183  71.555  1.00  0.00    -0.294 C  
HETATM   41  O   UNL     1     -11.521   7.155  70.610  1.00  0.00    -0.287 OA 
HETATM   42  C   UNL     1     -11.382   9.579  71.084  1.00  0.00    -0.370 C  
HETATM   43  C   UNL     1     -11.341   7.817  72.951  1.00  0.00    -0.406 C  
HETATM   44  O   UNL     1     -12.168   9.981  69.949  1.00  0.00    -0.481 OA 
HETATM   45  C   UNL     1      -9.915   9.587  70.656  1.00  0.00    -0.276 C  
HETATM   46  O   UNL     1      -9.033   9.495  71.779  1.00  0.00    -0.172 OA 
HETATM   47  C   UNL     1      -9.661   8.475  69.631  1.00  0.00    -0.170 C  
HETATM   48  H   UNL     1     -11.890  10.842  69.658  1.00  0.00     0.000 HD 
HETATM   49  H   UNL     1      -8.121   9.500  71.514  1.00  0.00     0.000 HD 
HETATM   50  O   UNL     1      -8.268   8.412  69.288  1.00  0.00    -0.113 OA 
HETATM   51  H   UNL     1      -7.960   9.253  68.970  1.00  0.00     0.000 HD 
ENDBRANCH  38  39
ENDBRANCH  37  38
ENDBRANCH  27  37
ENDBRANCH  24  25
ENDBRANCH  19  24
ENDBRANCH   7  11
ENDBRANCH   2   3
TORSDOF 7
ENDMDL
MODEL       43
REMARK 921   NORMALIZED FREE ENERGY PREDICTED BY IDOCK:   -7.56 KCAL/MOL
REMARK 922        TOTAL FREE ENERGY PREDICTED BY IDOCK:  -12.59 KCAL/MOL
REMARK 923 INTER-LIGAND FREE ENERGY PREDICTED BY IDOCK:  -11.16 KCAL/MOL
REMARK 924 INTRA-LIGAND FREE ENERGY PREDICTED BY IDOCK:   -1.43 KCAL/MOL
REMARK 927      BINDING AFFINITY PREDICTED BY RF-SCORE:    0.00 PKD
ROOT
HETATM    1  C   UNL     1      -5.549   2.972  73.764  1.00  0.00     0.000 C  
HETATM    2  O   UNL     1      -6.963   3.121  73.858  1.00  0.00    -0.038 OA 
ENDROOT
BRANCH   2   3
HETATM    3  C   UNL     1      -7.528   3.940  72.914  1.00  0.00    -0.072 A  
HETATM    4  C   UNL     1      -7.597   5.289  73.254  1.00  0.00    -0.096 A  
HETATM    5  C   UNL     1      -8.169   6.226  72.396  1.00  0.00    -0.107 A  
HETATM    6  O   UNL     1      -7.121   5.725  74.462  1.00  0.00    -0.084 OA 
HETATM    7  C   UNL     1      -8.675   5.841  71.138  1.00  0.00    -0.135 A  
HETATM    8  H   UNL     1      -7.168   6.644  74.694  1.00  0.00     0.000 HD 
HETATM    9  C   UNL     1      -8.578   4.484  70.791  1.00  0.00    -0.115 A  
HETATM   10  C   UNL     1      -8.005   3.542  71.667  1.00  0.00    -0.061 A  
BRANCH   7  11
HETATM   11  C   UNL     1      -9.307   6.832  70.225  1.00  0.00    -0.159 C  
HETATM   12  C   UNL     1      -9.210   6.680  68.895  1.00  0.00    -0.130 C  
HETATM   13  C   UNL     1      -9.751   7.711  68.008  1.00  0.00    -0.152 C  
HETATM   14  O   UNL     1      -9.671   7.608  66.793  1.00  0.00    -0.192 OA 
HETATM   15  C   UNL     1     -10.371   8.875  68.636  1.00  0.00    -0.228 A  
HETATM   16  C   UNL     1     -10.839   9.936  67.866  1.00  0.00    -0.258 A  
HETATM   17  C   UNL     1     -11.475  11.020  68.461  1.00  0.00    -0.379 A  
HETATM   18  O   UNL     1     -10.731   9.977  66.503  1.00  0.00    -0.136 OA 
HETATM   19  C   UNL     1     -11.669  11.048  69.839  1.00  0.00    -0.346 A  
HETATM   20  H   UNL     1     -11.050  10.701  65.978  1.00  0.00     0.000 HD 
HETATM   21  C   UNL     1     -11.170   9.982  70.622  1.00  0.00    -0.425 A  
HETATM   22  C   UNL     1     -10.494   8.902  70.023  1.00  0.00    -0.213 A  
HETATM   23  O   UNL     1      -9.985   7.897  70.832  1.00  0.00    -0.182 OA 
BRANCH  19  24
HETATM   24  O   UNL     1     -12.408  11.994  70.497  1.00  0.00    -0.336 OA 
BRANCH  24  25
HETATM   25  C   UNL     1     -12.253  13.411  70.207  1.00  0.00    -0.335 C  
HETATM   26  O   UNL     1     -11.091  13.751  69.434  1.00  0.00    -0.231 OA 
HETATM   27  C   UNL     1     -10.926  15.143  69.142  1.00  0.00    -0.259 C  
HETATM   28  H   UNL     1     -12.906  16.304  72.967  1.00  0.00     0.000 HD 
HETATM   29  C   UNL     1     -10.934  15.967  70.446  1.00  0.00    -0.336 C  
HETATM   30  O   UNL     1     -13.686  13.997  72.119  1.00  0.00    -0.418 OA 
HETATM   31  C   UNL     1     -12.201  15.717  71.242  1.00  0.00    -0.438 C  
HETATM   32  O   UNL     1     -10.840  17.392  70.283  1.00  0.00    -0.111 OA 
HETATM   33  H   UNL     1     -10.845  17.899  71.085  1.00  0.00     0.000 HD 
HETATM   34  H   UNL     1     -13.774  14.496  72.922  1.00  0.00     0.000 HD 
HETATM   35  O   UNL     1     -12.113  16.460  72.468  1.00  0.00    -0.516 OA 
HETATM   36  C   UNL     1     -12.396  14.226  71.518  1.00  0.00    -0.339 C  
BRANCH  27  37
HETATM   37  C   UNL     1      -9.548  15.432  68.509  1.00  0.00    -0.201 C  
BRANCH  37  38
HETATM   38  O   UNL     1      -9.511  15.893  67.165  1.00  0.00    -0.209 OA 
BRANCH  38  39
HETATM   39  C   UNL     1      -9.169  17.307  67.122  1.00  0.00    -0.235 C  
HETATM   40  C   UNL     1      -8.342  19.106  68.538  1.00  0.00    -0.364 C  
HETATM   41  O   UNL     1      -8.685  17.724  68.402  1.00  0.00    -0.279 OA 
HETATM   42  C   UNL     1      -9.473  20.046  68.080  1.00  0.00    -0.315 C  
HETATM   43  C   UNL     1      -6.994  19.405  67.891  1.00  0.00    -0.278 C  
HETATM   44  O   UNL     1     -10.586  19.935  68.983  1.00  0.00    -0.540 OA 
HETATM   45  C   UNL     1      -9.975  19.690  66.681  1.00  0.00    -0.423 C  
HETATM   46  O   UNL     1      -9.032  20.055  65.669  1.00  0.00    -0.461 OA 
HETATM   47  C   UNL     1     -10.342  18.202  66.618  1.00  0.00    -0.376 C  
HETATM   48  H   UNL     1     -11.284  20.514  68.700  1.00  0.00     0.000 HD 
HETATM   49  H   UNL     1      -9.344  19.834  64.799  1.00  0.00     0.000 HD 
HETATM   50  O   UNL     1     -10.729  17.834  65.285  1.00  0.00    -0.649 OA 
HETATM   51  H   UNL     1     -11.444  18.379  64.978  1.00  0.00     0.000 HD 
ENDBRANCH  38  39
ENDBRANCH  37  38
ENDBRANCH  27  37
ENDBRANCH  24  25
ENDBRANCH  19  24
ENDBRANCH   7  11
ENDBRANCH   2   3
TORSDOF 7
ENDMDL
MODEL       44
REMARK 921   NORMALIZED FREE ENERGY PREDICTED BY IDOCK:   -7.52 KCAL/MOL
REMARK 922        TOTAL FREE ENERGY PREDICTED BY IDOCK:  -12.53 KCAL/MOL
REMARK 923 INTER-LIGAND FREE ENERGY PREDICTED BY IDOCK:  -10.98 KCAL/MOL
REMARK 924 INTRA-LIGAND FREE ENERGY PREDICTED BY IDOCK:   -1.55 KCAL/MOL
REMARK 927      BINDING AFFINITY PREDICTED BY RF-SCORE:    0.00 PKD
ROOT
HETATM    1  C   UNL     1     -10.597   2.644  72.937  1.00  0.00    -0.132 C  
HETATM    2  O   UNL     1     -11.034   3.995  73.057  1.00  0.00    -0.174 OA 
ENDROOT
BRANCH   2   3
HETATM    3  C   UNL     1     -10.571   4.848  72.088  1.00  0.00    -0.164 A  
HETATM    4  C   UNL     1     -11.357   5.973  71.854  1.00  0.00    -0.279 A  
HETATM    5  C   UNL     1     -11.014   6.909  70.880  1.00  0.00    -0.290 A  
HETATM    6  O   UNL     1     -12.509   6.174  72.566  1.00  0.00    -0.552 OA 
HETATM    7  C   UNL     1      -9.840   6.759  70.114  1.00  0.00    -0.187 A  
HETATM    8  H   UNL     1     -13.046   6.941  72.406  1.00  0.00     0.000 HD 
HETATM    9  C   UNL     1      -9.039   5.636  70.375  1.00  0.00    -0.164 A  
HETATM   10  C   UNL     1      -9.396   4.691  71.356  1.00  0.00    -0.206 A  
BRANCH   7  11
HETATM   11  C   UNL     1      -9.478   7.743  69.058  1.00  0.00    -0.150 C  
HETATM   12  C   UNL     1      -8.449   7.497  68.233  1.00  0.00    -0.125 C  
HETATM   13  C   UNL     1      -8.042   8.514  67.262  1.00  0.00    -0.105 C  
HETATM   14  O   UNL     1      -7.103   8.325  66.503  1.00  0.00    -0.070 OA 
HETATM   15  C   UNL     1      -8.792   9.768  67.252  1.00  0.00    -0.139 A  
HETATM   16  C   UNL     1      -8.419  10.815  66.415  1.00  0.00    -0.158 A  
HETATM   17  C   UNL     1      -9.164  11.988  66.369  1.00  0.00    -0.216 A  
HETATM   18  O   UNL     1      -7.336  10.757  65.581  1.00  0.00    -0.282 OA 
HETATM   19  C   UNL     1     -10.307  12.123  67.152  1.00  0.00    -0.214 A  
HETATM   20  H   UNL     1      -7.082  11.472  65.009  1.00  0.00     0.000 HD 
HETATM   21  C   UNL     1     -10.669  11.068  68.022  1.00  0.00    -0.260 A  
HETATM   22  C   UNL     1      -9.894   9.894  68.093  1.00  0.00    -0.147 A  
HETATM   23  O   UNL     1     -10.263   8.902  68.989  1.00  0.00    -0.196 OA 
BRANCH  19  24
HETATM   24  O   UNL     1     -11.181  13.172  67.070  1.00  0.00    -0.275 OA 
BRANCH  24  25
HETATM   25  C   UNL     1     -10.757  14.472  66.573  1.00  0.00    -0.312 C  
HETATM   26  O   UNL     1     -10.839  15.545  67.525  1.00  0.00    -0.295 OA 
HETATM   27  C   UNL     1     -10.425  16.830  67.049  1.00  0.00    -0.285 C  
HETATM   28  H   UNL     1     -11.782  15.866  62.910  1.00  0.00     0.000 HD 
HETATM   29  C   UNL     1     -11.215  17.209  65.779  1.00  0.00     0.555 C  
HETATM   30  O   UNL     1     -11.155  13.757  64.254  1.00  0.00    -0.521 OA 
HETATM   31  C   UNL     1     -11.066  16.149  64.705  1.00  0.00    -0.333 C  
HETATM   32  O   UNL     1     -10.846  18.455  65.165  1.00  0.00    -0.630 OA 
HETATM   33  H   UNL     1     -11.332  18.688  64.384  1.00  0.00     0.000 HD 
HETATM   34  H   UNL     1     -11.591  13.939  63.430  1.00  0.00     0.000 HD 
HETATM   35  O   UNL     1     -11.876  16.530  63.583  1.00  0.00    -0.811 OA 
HETATM   36  C   UNL     1     -11.469  14.770  65.229  1.00  0.00    -0.352 C  
BRANCH  27  37
HETATM   37  C   UNL     1     -10.759  17.946  68.062  1.00  0.00    -0.294 C  
BRANCH  37  38
HETATM   38  O   UNL     1      -9.683  18.694  68.613  1.00  0.00    -0.346 OA 
BRANCH  38  39
HETATM   39  C   UNL     1      -8.526  18.643  67.733  1.00  0.00    -0.275 C  
HETATM   40  C   UNL     1      -6.148  18.120  67.748  1.00  0.00    -0.164 C  
HETATM   41  O   UNL     1      -7.384  18.187  68.465  1.00  0.00    -0.259 OA 
HETATM   42  C   UNL     1      -5.808  19.439  67.026  1.00  0.00    -0.174 C  
HETATM   43  C   UNL     1      -6.102  16.894  66.842  1.00  0.00    -0.224 C  
HETATM   44  O   UNL     1      -5.524  20.460  67.998  1.00  0.00    -0.190 OA 
HETATM   45  C   UNL     1      -6.972  19.931  66.166  1.00  0.00    -0.252 C  
HETATM   46  O   UNL     1      -7.139  19.133  64.991  1.00  0.00    -0.397 OA 
HETATM   47  C   UNL     1      -8.254  19.996  67.005  1.00  0.00    -0.321 C  
HETATM   48  H   UNL     1      -5.315  21.273  67.553  1.00  0.00     0.000 HD 
HETATM   49  H   UNL     1      -7.862  19.438  64.455  1.00  0.00     0.000 HD 
HETATM   50  O   UNL     1      -9.374  20.369  66.188  1.00  0.00    -0.620 OA 
HETATM   51  H   UNL     1      -9.209  21.193  65.745  1.00  0.00     0.000 HD 
ENDBRANCH  38  39
ENDBRANCH  37  38
ENDBRANCH  27  37
ENDBRANCH  24  25
ENDBRANCH  19  24
ENDBRANCH   7  11
ENDBRANCH   2   3
TORSDOF 7
ENDMDL
MODEL       45
REMARK 921   NORMALIZED FREE ENERGY PREDICTED BY IDOCK:   -7.51 KCAL/MOL
REMARK 922        TOTAL FREE ENERGY PREDICTED BY IDOCK:  -12.52 KCAL/MOL
REMARK 923 INTER-LIGAND FREE ENERGY PREDICTED BY IDOCK:  -11.12 KCAL/MOL
REMARK 924 INTRA-LIGAND FREE ENERGY PREDICTED BY IDOCK:   -1.40 KCAL/MOL
REMARK 927      BINDING AFFINITY PREDICTED BY RF-SCORE:    0.00 PKD
ROOT
HETATM    1  C   UNL     1      -5.676  20.454  69.112  1.00  0.00    -0.314 C  
HETATM    2  O   UNL     1      -7.100  20.466  69.088  1.00  0.00    -0.074 OA 
ENDROOT
BRANCH   2   3
HETATM    3  C   UNL     1      -7.682  19.429  68.404  1.00  0.00    -0.328 A  
HETATM    4  C   UNL     1      -8.352  19.782  67.236  1.00  0.00    -0.312 A  
HETATM    5  C   UNL     1      -9.007  18.830  66.457  1.00  0.00    -0.320 A  
HETATM    6  O   UNL     1      -8.401  21.090  66.834  1.00  0.00    -0.562 OA 
HETATM    7  C   UNL     1      -8.991  17.467  66.817  1.00  0.00    -0.272 A  
HETATM    8  H   UNL     1      -8.858  21.332  66.037  1.00  0.00     0.000 HD 
HETATM    9  C   UNL     1      -8.291  17.115  67.982  1.00  0.00    -0.218 A  
HETATM   10  C   UNL     1      -7.638  18.085  68.767  1.00  0.00    -0.277 A  
BRANCH   7  11
HETATM   11  C   UNL     1      -9.707  16.447  66.003  1.00  0.00    -0.326 C  
HETATM   12  C   UNL     1     -10.765  16.801  65.258  1.00  0.00    -0.183 C  
HETATM   13  C   UNL     1     -11.519  15.774  64.538  1.00  0.00    -0.289 C  
HETATM   14  O   UNL     1     -12.493  16.062  63.859  1.00  0.00    -0.806 OA 
HETATM   15  C   UNL     1     -11.070  14.391  64.682  1.00  0.00    -0.363 A  
HETATM   16  C   UNL     1     -11.779  13.347  64.095  1.00  0.00    -0.419 A  
HETATM   17  C   UNL     1     -11.323  12.037  64.189  1.00  0.00    -0.455 A  
HETATM   18  O   UNL     1     -12.931  13.532  63.381  1.00  0.00    -0.283 OA 
HETATM   19  C   UNL     1     -10.137  11.755  64.861  1.00  0.00    -0.259 A  
HETATM   20  H   UNL     1     -13.415  12.820  62.980  1.00  0.00     0.000 HD 
HETATM   21  C   UNL     1      -9.432  12.814  65.479  1.00  0.00     0.098 A  
HETATM   22  C   UNL     1      -9.913  14.135  65.414  1.00  0.00    -0.291 A  
HETATM   23  O   UNL     1      -9.213  15.137  66.068  1.00  0.00    -0.301 OA 
BRANCH  19  24
HETATM   24  O   UNL     1      -9.534  10.526  64.883  1.00  0.00    -0.207 OA 
BRANCH  24  25
HETATM   25  C   UNL     1      -9.806   9.570  65.945  1.00  0.00    -0.290 C  
HETATM   26  O   UNL     1      -9.964  10.141  67.254  1.00  0.00    -0.179 OA 
HETATM   27  C   UNL     1     -10.232   9.210  68.308  1.00  0.00    -0.206 C  
HETATM   28  H   UNL     1      -7.860   6.031  66.266  1.00  0.00     0.000 HD 
HETATM   29  C   UNL     1      -9.138   8.123  68.351  1.00  0.00    -0.136 C  
HETATM   30  O   UNL     1      -8.828   7.752  64.607  1.00  0.00    -0.361 OA 
HETATM   31  C   UNL     1      -9.013   7.419  67.013  1.00  0.00    -0.130 C  
HETATM   32  O   UNL     1      -9.327   7.088  69.330  1.00  0.00    -0.147 OA 
HETATM   33  H   UNL     1      -8.653   6.419  69.357  1.00  0.00     0.000 HD 
HETATM   34  H   UNL     1      -8.193   7.047  64.569  1.00  0.00     0.000 HD 
HETATM   35  O   UNL     1      -7.938   6.472  67.104  1.00  0.00    -0.109 OA 
HETATM   36  C   UNL     1      -8.768   8.419  65.883  1.00  0.00    -0.169 C  
BRANCH  27  37
HETATM   37  C   UNL     1     -10.162   9.886  69.695  1.00  0.00    -0.237 C  
BRANCH  37  38
HETATM   38  O   UNL     1     -11.125   9.511  70.671  1.00  0.00    -0.252 OA 
BRANCH  38  39
HETATM   39  C   UNL     1     -10.488   8.784  71.759  1.00  0.00    -0.346 C  
HETATM   40  C   UNL     1      -8.316   7.948  72.472  1.00  0.00    -0.142 C  
HETATM   41  O   UNL     1      -9.084   8.675  71.508  1.00  0.00    -0.195 OA 
HETATM   42  C   UNL     1      -8.900   6.553  72.766  1.00  0.00    -0.123 C  
HETATM   43  C   UNL     1      -8.064   8.785  73.721  1.00  0.00     0.281 C  
HETATM   44  O   UNL     1      -8.767   5.720  71.602  1.00  0.00    -0.134 OA 
HETATM   45  C   UNL     1     -10.386   6.623  73.117  1.00  0.00    -0.234 C  
HETATM   46  O   UNL     1     -10.600   7.174  74.420  1.00  0.00    -0.505 OA 
HETATM   47  C   UNL     1     -11.146   7.397  72.032  1.00  0.00    -0.242 C  
HETATM   48  H   UNL     1      -9.128   4.860  71.783  1.00  0.00     0.000 HD 
HETATM   49  H   UNL     1     -11.524   7.218  74.638  1.00  0.00     0.000 HD 
HETATM   50  O   UNL     1     -12.527   7.549  72.393  1.00  0.00    -0.503 OA 
HETATM   51  H   UNL     1     -12.928   6.703  72.559  1.00  0.00     0.000 HD 
ENDBRANCH  38  39
ENDBRANCH  37  38
ENDBRANCH  27  37
ENDBRANCH  24  25
ENDBRANCH  19  24
ENDBRANCH   7  11
ENDBRANCH   2   3
TORSDOF 7
ENDMDL
MODEL       46
REMARK 921   NORMALIZED FREE ENERGY PREDICTED BY IDOCK:   -7.50 KCAL/MOL
REMARK 922        TOTAL FREE ENERGY PREDICTED BY IDOCK:  -12.50 KCAL/MOL
REMARK 923 INTER-LIGAND FREE ENERGY PREDICTED BY IDOCK:  -10.33 KCAL/MOL
REMARK 924 INTRA-LIGAND FREE ENERGY PREDICTED BY IDOCK:   -2.16 KCAL/MOL
REMARK 927      BINDING AFFINITY PREDICTED BY RF-SCORE:    0.00 PKD
ROOT
HETATM    1  C   UNL     1      -7.103   2.716  69.676  1.00  0.00    -0.040 C  
HETATM    2  O   UNL     1      -7.533   2.734  68.318  1.00  0.00    -0.052 OA 
ENDROOT
BRANCH   2   3
HETATM    3  C   UNL     1      -7.794   3.979  67.804  1.00  0.00    -0.086 A  
HETATM    4  C   UNL     1      -8.980   4.093  67.084  1.00  0.00    -0.128 A  
HETATM    5  C   UNL     1      -9.355   5.296  66.489  1.00  0.00    -0.146 A  
HETATM    6  O   UNL     1      -9.801   3.009  66.923  1.00  0.00    -0.380 OA 
HETATM    7  C   UNL     1      -8.554   6.449  66.619  1.00  0.00    -0.121 A  
HETATM    8  H   UNL     1     -10.610   3.087  66.432  1.00  0.00     0.000 HD 
HETATM    9  C   UNL     1      -7.373   6.332  67.369  1.00  0.00    -0.084 A  
HETATM   10  C   UNL     1      -6.998   5.111  67.961  1.00  0.00    -0.061 A  
BRANCH   7  11
HETATM   11  C   UNL     1      -8.936   7.731  65.967  1.00  0.00    -0.145 C  
HETATM   12  C   UNL     1      -8.527   8.001  64.718  1.00  0.00    -0.037 C  
HETATM   13  C   UNL     1      -8.827   9.304  64.124  1.00  0.00    -0.141 C  
HETATM   14  O   UNL     1      -8.461   9.584  62.993  1.00  0.00    -0.168 OA 
HETATM   15  C   UNL     1      -9.565  10.260  64.947  1.00  0.00    -0.365 A  
HETATM   16  C   UNL     1      -9.822  11.547  64.486  1.00  0.00    -0.241 A  
HETATM   17  C   UNL     1     -10.569  12.439  65.248  1.00  0.00    -0.322 A  
HETATM   18  O   UNL     1      -9.391  12.008  63.273  1.00  0.00    -0.651 OA 
HETATM   19  C   UNL     1     -11.085  12.046  66.480  1.00  0.00    -0.314 A  
HETATM   20  H   UNL     1      -9.567  12.888  62.958  1.00  0.00     0.000 HD 
HETATM   21  C   UNL     1     -10.801  10.746  66.957  1.00  0.00    -0.311 A  
HETATM   22  C   UNL     1     -10.015   9.856  66.201  1.00  0.00    -0.263 A  
HETATM   23  O   UNL     1      -9.727   8.605  66.726  1.00  0.00    -0.190 OA 
BRANCH  19  24
HETATM   24  O   UNL     1     -11.948  12.797  67.232  1.00  0.00    -0.369 OA 
BRANCH  24  25
HETATM   25  C   UNL     1     -11.857  12.826  68.683  1.00  0.00    -0.304 C  
HETATM   26  O   UNL     1     -12.327  11.641  69.347  1.00  0.00    -0.212 OA 
HETATM   27  C   UNL     1     -12.243  11.657  70.776  1.00  0.00    -0.344 C  
HETATM   28  H   UNL     1     -12.870  16.073  70.884  1.00  0.00     0.000 HD 
HETATM   29  C   UNL     1     -12.981  12.889  71.341  1.00  0.00    -0.270 C  
HETATM   30  O   UNL     1     -11.812  15.285  68.668  1.00  0.00    -0.429 OA 
HETATM   31  C   UNL     1     -12.438  14.173  70.743  1.00  0.00    -0.366 C  
HETATM   32  O   UNL     1     -12.916  13.054  72.767  1.00  0.00    -0.228 OA 
HETATM   33  H   UNL     1     -13.370  13.811  73.114  1.00  0.00     0.000 HD 
HETATM   34  H   UNL     1     -12.200  16.088  68.994  1.00  0.00     0.000 HD 
HETATM   35  O   UNL     1     -13.210  15.268  71.259  1.00  0.00    -0.416 OA 
HETATM   36  C   UNL     1     -12.490  14.137  69.215  1.00  0.00    -0.023 C  
BRANCH  27  37
HETATM   37  C   UNL     1     -12.972  10.448  71.401  1.00  0.00    -0.443 C  
BRANCH  37  38
HETATM   38  O   UNL     1     -12.919   9.205  70.714  1.00  0.00    -0.037 OA 
BRANCH  38  39
HETATM   39  C   UNL     1     -11.713   8.475  71.076  1.00  0.00    -0.275 C  
HETATM   40  C   UNL     1      -9.833   8.558  72.621  1.00  0.00    -0.211 C  
HETATM   41  O   UNL     1     -11.064   9.132  72.169  1.00  0.00    -0.316 OA 
HETATM   42  C   UNL     1      -8.826   8.336  71.476  1.00  0.00    -0.168 C  
HETATM   43  C   UNL     1     -10.083   7.315  73.468  1.00  0.00    -0.387 C  
HETATM   44  O   UNL     1      -8.384   9.608  70.972  1.00  0.00    -0.345 OA 
HETATM   45  C   UNL     1      -9.451   7.569  70.311  1.00  0.00    -0.165 C  
HETATM   46  O   UNL     1      -9.651   6.189  70.630  1.00  0.00    -0.170 OA 
HETATM   47  C   UNL     1     -10.751   8.253  69.869  1.00  0.00    -0.234 C  
HETATM   48  H   UNL     1      -7.763   9.472  70.265  1.00  0.00     0.000 HD 
HETATM   49  H   UNL     1     -10.039   5.711  69.906  1.00  0.00     0.000 HD 
HETATM   50  O   UNL     1     -11.395   7.492  68.836  1.00  0.00    -0.379 OA 
HETATM   51  H   UNL     1     -10.809   7.356  68.101  1.00  0.00     0.000 HD 
ENDBRANCH  38  39
ENDBRANCH  37  38
ENDBRANCH  27  37
ENDBRANCH  24  25
ENDBRANCH  19  24
ENDBRANCH   7  11
ENDBRANCH   2   3
TORSDOF 7
ENDMDL
MODEL       47
REMARK 921   NORMALIZED FREE ENERGY PREDICTED BY IDOCK:   -7.48 KCAL/MOL
REMARK 922        TOTAL FREE ENERGY PREDICTED BY IDOCK:  -12.48 KCAL/MOL
REMARK 923 INTER-LIGAND FREE ENERGY PREDICTED BY IDOCK:  -10.85 KCAL/MOL
REMARK 924 INTRA-LIGAND FREE ENERGY PREDICTED BY IDOCK:   -1.63 KCAL/MOL
REMARK 927      BINDING AFFINITY PREDICTED BY RF-SCORE:    0.00 PKD
ROOT
HETATM    1  C   UNL     1      -6.773   1.762  63.639  1.00  0.00    -0.026 C  
HETATM    2  O   UNL     1      -6.032   2.226  64.764  1.00  0.00    -0.017 OA 
ENDROOT
BRANCH   2   3
HETATM    3  C   UNL     1      -6.540   3.342  65.379  1.00  0.00    -0.036 A  
HETATM    4  C   UNL     1      -6.388   3.386  66.763  1.00  0.00    -0.036 A  
HETATM    5  C   UNL     1      -6.879   4.453  67.514  1.00  0.00    -0.052 A  
HETATM    6  O   UNL     1      -5.766   2.362  67.425  1.00  0.00    -0.018 OA 
HETATM    7  C   UNL     1      -7.527   5.539  66.891  1.00  0.00    -0.088 A  
HETATM    8  H   UNL     1      -5.662   2.391  68.368  1.00  0.00     0.000 HD 
HETATM    9  C   UNL     1      -7.653   5.499  65.493  1.00  0.00    -0.079 A  
HETATM   10  C   UNL     1      -7.160   4.415  64.742  1.00  0.00    -0.062 A  
BRANCH   7  11
HETATM   11  C   UNL     1      -8.073   6.671  67.688  1.00  0.00    -0.119 C  
HETATM   12  C   UNL     1      -7.706   6.830  68.969  1.00  0.00    -0.110 C  
HETATM   13  C   UNL     1      -8.323   7.888  69.771  1.00  0.00    -0.127 C  
HETATM   14  O   UNL     1      -8.018   8.054  70.942  1.00  0.00    -0.088 OA 
HETATM   15  C   UNL     1      -9.330   8.722  69.118  1.00  0.00    -0.149 A  
HETATM   16  C   UNL     1     -10.020   9.697  69.832  1.00  0.00    -0.241 A  
HETATM   17  C   UNL     1     -10.940  10.524  69.198  1.00  0.00    -0.286 A  
HETATM   18  O   UNL     1      -9.829   9.922  71.168  1.00  0.00    -0.227 OA 
HETATM   19  C   UNL     1     -11.171  10.397  67.831  1.00  0.00    -0.263 A  
HETATM   20  H   UNL     1     -10.300  10.588  71.655  1.00  0.00     0.000 HD 
HETATM   21  C   UNL     1     -10.488   9.388  67.113  1.00  0.00    -0.315 A  
HETATM   22  C   UNL     1      -9.582   8.528  67.762  1.00  0.00    -0.156 A  
HETATM   23  O   UNL     1      -8.965   7.526  67.028  1.00  0.00    -0.123 OA 
BRANCH  19  24
HETATM   24  O   UNL     1     -11.943  11.254  67.094  1.00  0.00    -0.470 OA 
BRANCH  24  25
HETATM   25  C   UNL     1     -11.343  12.263  66.236  1.00  0.00    -0.345 C  
HETATM   26  O   UNL     1     -10.404  13.135  66.885  1.00  0.00    -0.244 OA 
HETATM   27  C   UNL     1      -9.806  14.134  66.051  1.00  0.00    -0.309 C  
HETATM   28  H   UNL     1     -13.472  14.388  63.521  1.00  0.00     0.000 HD 
HETATM   29  C   UNL     1     -10.898  14.978  65.362  1.00  0.00    -0.364 C  
HETATM   30  O   UNL     1     -13.217  12.084  64.653  1.00  0.00    -0.508 OA 
HETATM   31  C   UNL     1     -11.851  14.100  64.573  1.00  0.00    -0.436 C  
HETATM   32  O   UNL     1     -10.426  15.979  64.445  1.00  0.00    -0.599 OA 
HETATM   33  H   UNL     1     -11.098  16.498  64.021  1.00  0.00     0.000 HD 
HETATM   34  H   UNL     1     -13.900  12.540  64.175  1.00  0.00     0.000 HD 
HETATM   35  O   UNL     1     -12.876  14.938  64.016  1.00  0.00    -0.701 OA 
HETATM   36  C   UNL     1     -12.457  13.008  65.456  1.00  0.00    -0.438 C  
BRANCH  27  37
HETATM   37  C   UNL     1      -8.993  15.153  66.879  1.00  0.00    -0.252 C  
BRANCH  37  38
HETATM   38  O   UNL     1      -8.284  16.168  66.180  1.00  0.00    -0.299 OA 
BRANCH  38  39
HETATM   39  C   UNL     1      -8.451  17.453  66.842  1.00  0.00    -0.241 C  
HETATM   40  C   UNL     1     -10.178  19.018  67.544  1.00  0.00    -0.394 C  
HETATM   41  O   UNL     1      -9.844  17.760  66.950  1.00  0.00    -0.286 OA 
HETATM   42  C   UNL     1      -9.435  20.199  66.892  1.00  0.00    -0.412 C  
HETATM   43  C   UNL     1     -10.036  18.966  69.062  1.00  0.00    -0.365 C  
HETATM   44  O   UNL     1      -9.908  20.381  65.546  1.00  0.00    -0.554 OA 
HETATM   45  C   UNL     1      -7.928  19.953  66.822  1.00  0.00    -0.310 C  
HETATM   46  O   UNL     1      -7.312  20.057  68.110  1.00  0.00    -0.294 OA 
HETATM   47  C   UNL     1      -7.647  18.600  66.156  1.00  0.00    -0.246 C  
HETATM   48  H   UNL     1      -9.450  21.109  65.143  1.00  0.00     0.000 HD 
HETATM   49  H   UNL     1      -6.376  19.904  68.067  1.00  0.00     0.000 HD 
HETATM   50  O   UNL     1      -6.240  18.314  66.167  1.00  0.00    -0.171 OA 
HETATM   51  H   UNL     1      -5.751  19.013  65.749  1.00  0.00     0.000 HD 
ENDBRANCH  38  39
ENDBRANCH  37  38
ENDBRANCH  27  37
ENDBRANCH  24  25
ENDBRANCH  19  24
ENDBRANCH   7  11
ENDBRANCH   2   3
TORSDOF 7
ENDMDL
MODEL       48
REMARK 921   NORMALIZED FREE ENERGY PREDICTED BY IDOCK:   -7.45 KCAL/MOL
REMARK 922        TOTAL FREE ENERGY PREDICTED BY IDOCK:  -12.44 KCAL/MOL
REMARK 923 INTER-LIGAND FREE ENERGY PREDICTED BY IDOCK:  -10.25 KCAL/MOL
REMARK 924 INTRA-LIGAND FREE ENERGY PREDICTED BY IDOCK:   -2.18 KCAL/MOL
REMARK 927      BINDING AFFINITY PREDICTED BY RF-SCORE:    0.00 PKD
ROOT
HETATM    1  C   UNL     1      -9.533   4.669  70.124  1.00  0.00    -0.176 C  
HETATM    2  O   UNL     1     -10.834   5.188  70.388  1.00  0.00    -0.160 OA 
ENDROOT
BRANCH   2   3
HETATM    3  C   UNL     1     -10.959   6.547  70.256  1.00  0.00    -0.310 A  
HETATM    4  C   UNL     1     -11.651   7.188  71.280  1.00  0.00    -0.294 A  
HETATM    5  C   UNL     1     -11.870   8.564  71.259  1.00  0.00    -0.335 A  
HETATM    6  O   UNL     1     -12.157   6.469  72.330  1.00  0.00    -0.487 OA 
HETATM    7  C   UNL     1     -11.374   9.359  70.206  1.00  0.00    -0.261 A  
HETATM    8  H   UNL     1     -12.629   6.905  73.029  1.00  0.00     0.000 HD 
HETATM    9  C   UNL     1     -10.655   8.710  69.191  1.00  0.00    -0.193 A  
HETATM   10  C   UNL     1     -10.444   7.318  69.216  1.00  0.00    -0.221 A  
BRANCH   7  11
HETATM   11  C   UNL     1     -11.623  10.827  70.166  1.00  0.00    -0.337 C  
HETATM   12  C   UNL     1     -12.336  11.416  71.138  1.00  0.00    -0.404 C  
HETATM   13  C   UNL     1     -12.656  12.840  71.038  1.00  0.00    -0.271 C  
HETATM   14  O   UNL     1     -13.311  13.404  71.901  1.00  0.00    -0.407 OA 
HETATM   15  C   UNL     1     -12.177  13.551  69.855  1.00  0.00    -0.356 A  
HETATM   16  C   UNL     1     -12.506  14.887  69.645  1.00  0.00    -0.139 A  
HETATM   17  C   UNL     1     -12.008  15.578  68.546  1.00  0.00    -0.179 A  
HETATM   18  O   UNL     1     -13.302  15.605  70.495  1.00  0.00    -0.789 OA 
HETATM   19  C   UNL     1     -11.156  14.942  67.647  1.00  0.00    -0.311 A  
HETATM   20  H   UNL     1     -13.526  16.517  70.352  1.00  0.00     0.000 HD 
HETATM   21  C   UNL     1     -10.844  13.577  67.848  1.00  0.00    -0.262 A  
HETATM   22  C   UNL     1     -11.378  12.869  68.942  1.00  0.00    -0.288 A  
HETATM   23  O   UNL     1     -11.079  11.522  69.078  1.00  0.00    -0.215 OA 
BRANCH  19  24
HETATM   24  O   UNL     1     -10.502  15.572  66.623  1.00  0.00    -0.287 OA 
BRANCH  24  25
HETATM   25  C   UNL     1      -9.178  16.144  66.811  1.00  0.00    -0.231 C  
HETATM   26  O   UNL     1      -8.151  15.202  67.158  1.00  0.00    -0.186 OA 
HETATM   27  C   UNL     1      -6.843  15.752  67.346  1.00  0.00    -0.201 C  
HETATM   28  H   UNL     1      -8.544  19.603  68.823  1.00  0.00     0.000 HD 
HETATM   29  C   UNL     1      -6.883  16.879  68.400  1.00  0.00    -0.167 C  
HETATM   30  O   UNL     1     -10.156  18.360  67.240  1.00  0.00    -0.320 OA 
HETATM   31  C   UNL     1      -7.883  17.952  68.014  1.00  0.00    -0.251 C  
HETATM   32  O   UNL     1      -5.638  17.558  68.634  1.00  0.00    -0.153 OA 
HETATM   33  H   UNL     1      -5.663  18.250  69.283  1.00  0.00     0.000 HD 
HETATM   34  H   UNL     1     -10.212  19.103  67.829  1.00  0.00     0.000 HD 
HETATM   35  O   UNL     1      -7.918  18.930  69.065  1.00  0.00    -0.287 OA 
HETATM   36  C   UNL     1      -9.270  17.357  67.773  1.00  0.00    -0.248 C  
BRANCH  27  37
HETATM   37  C   UNL     1      -5.865  14.709  67.931  1.00  0.00    -0.130 C  
BRANCH  37  38
HETATM   38  O   UNL     1      -6.364  13.794  68.897  1.00  0.00    -0.085 OA 
BRANCH  38  39
HETATM   39  C   UNL     1      -6.313  12.434  68.382  1.00  0.00    -0.056 C  
HETATM   40  C   UNL     1      -6.679  11.159  66.341  1.00  0.00    -0.102 C  
HETATM   41  O   UNL     1      -6.644  12.433  66.990  1.00  0.00    -0.127 OA 
HETATM   42  C   UNL     1      -7.561  10.138  67.085  1.00  0.00    -0.092 C  
HETATM   43  C   UNL     1      -5.272  10.654  66.043  1.00  0.00    -0.091 C  
HETATM   44  O   UNL     1      -8.939  10.542  67.003  1.00  0.00    -0.139 OA 
HETATM   45  C   UNL     1      -7.194  10.043  68.565  1.00  0.00    -0.076 C  
HETATM   46  O   UNL     1      -5.949   9.367  68.763  1.00  0.00    -0.043 OA 
HETATM   47  C   UNL     1      -7.198  11.441  69.197  1.00  0.00    -0.102 C  
HETATM   48  H   UNL     1      -9.483   9.913  67.462  1.00  0.00     0.000 HD 
HETATM   49  H   UNL     1      -5.721   9.308  69.683  1.00  0.00     0.000 HD 
HETATM   50  O   UNL     1      -6.766  11.378  70.565  1.00  0.00    -0.488 OA 
HETATM   51  H   UNL     1      -7.305  10.773  71.062  1.00  0.00     0.000 HD 
ENDBRANCH  38  39
ENDBRANCH  37  38
ENDBRANCH  27  37
ENDBRANCH  24  25
ENDBRANCH  19  24
ENDBRANCH   7  11
ENDBRANCH   2   3
TORSDOF 7
ENDMDL
MODEL       49
REMARK 921   NORMALIZED FREE ENERGY PREDICTED BY IDOCK:   -7.42 KCAL/MOL
REMARK 922        TOTAL FREE ENERGY PREDICTED BY IDOCK:  -12.39 KCAL/MOL
REMARK 923 INTER-LIGAND FREE ENERGY PREDICTED BY IDOCK:  -11.17 KCAL/MOL
REMARK 924 INTRA-LIGAND FREE ENERGY PREDICTED BY IDOCK:   -1.22 KCAL/MOL
REMARK 927      BINDING AFFINITY PREDICTED BY RF-SCORE:    0.00 PKD
ROOT
HETATM    1  C   UNL     1     -12.959  16.026  73.631  1.00  0.00    -0.562 C  
HETATM    2  O   UNL     1     -12.801  14.669  73.227  1.00  0.00    -0.504 OA 
ENDROOT
BRANCH   2   3
HETATM    3  C   UNL     1     -12.504  14.484  71.901  1.00  0.00    -0.332 A  
HETATM    4  C   UNL     1     -12.806  13.225  71.389  1.00  0.00    -0.322 A  
HETATM    5  C   UNL     1     -12.534  12.896  70.063  1.00  0.00    -0.084 A  
HETATM    6  O   UNL     1     -13.361  12.265  72.192  1.00  0.00    -0.526 OA 
HETATM    7  C   UNL     1     -11.964  13.841  69.185  1.00  0.00    -0.403 A  
HETATM    8  H   UNL     1     -13.567  11.406  71.843  1.00  0.00     0.000 HD 
HETATM    9  C   UNL     1     -11.687  15.116  69.702  1.00  0.00    -0.353 A  
HETATM   10  C   UNL     1     -11.958  15.438  71.046  1.00  0.00    -0.409 A  
BRANCH   7  11
HETATM   11  C   UNL     1     -11.650  13.490  67.773  1.00  0.00    -0.339 C  
HETATM   12  C   UNL     1     -12.204  14.185  66.768  1.00  0.00    -0.429 C  
HETATM   13  C   UNL     1     -11.965  13.771  65.385  1.00  0.00    -0.379 C  
HETATM   14  O   UNL     1     -12.462  14.376  64.447  1.00  0.00    -0.635 OA 
HETATM   15  C   UNL     1     -11.125  12.593  65.175  1.00  0.00    -0.329 A  
HETATM   16  C   UNL     1     -10.914  12.088  63.896  1.00  0.00    -0.401 A  
HETATM   17  C   UNL     1     -10.073  10.999  63.692  1.00  0.00    -0.428 A  
HETATM   18  O   UNL     1     -11.483  12.626  62.774  1.00  0.00    -0.607 OA 
HETATM   19  C   UNL     1      -9.417  10.410  64.769  1.00  0.00    -0.273 A  
HETATM   20  H   UNL     1     -11.338  12.281  61.901  1.00  0.00     0.000 HD 
HETATM   21  C   UNL     1      -9.653  10.909  66.070  1.00  0.00    -0.248 A  
HETATM   22  C   UNL     1     -10.532  11.989  66.280  1.00  0.00    -0.238 A  
HETATM   23  O   UNL     1     -10.767  12.420  67.577  1.00  0.00    -0.221 OA 
BRANCH  19  24
HETATM   24  O   UNL     1      -8.463   9.435  64.653  1.00  0.00    -0.146 OA 
BRANCH  24  25
HETATM   25  C   UNL     1      -8.651   8.120  65.247  1.00  0.00    -0.106 C  
HETATM   26  O   UNL     1      -8.328   8.030  66.644  1.00  0.00    -0.114 OA 
HETATM   27  C   UNL     1      -8.509   6.741  67.240  1.00  0.00    -0.120 C  
HETATM   28  H   UNL     1      -7.528   4.694  63.399  1.00  0.00     0.000 HD 
HETATM   29  C   UNL     1      -7.713   5.675  66.459  1.00  0.00    -0.100 C  
HETATM   30  O   UNL     1      -8.491   7.058  63.034  1.00  0.00    -0.355 OA 
HETATM   31  C   UNL     1      -8.105   5.664  64.994  1.00  0.00    -0.122 C  
HETATM   32  O   UNL     1      -7.862   4.322  66.922  1.00  0.00    -0.095 OA 
HETATM   33  H   UNL     1      -7.372   3.667  66.442  1.00  0.00     0.000 HD 
HETATM   34  H   UNL     1      -8.062   6.404  62.496  1.00  0.00     0.000 HD 
HETATM   35  O   UNL     1      -7.282   4.701  64.317  1.00  0.00    -0.053 OA 
HETATM   36  C   UNL     1      -7.950   7.051  64.369  1.00  0.00    -0.101 C  
BRANCH  27  37
HETATM   37  C   UNL     1      -7.928   6.689  68.669  1.00  0.00    -0.118 C  
BRANCH  37  38
HETATM   38  O   UNL     1      -8.608   7.400  69.695  1.00  0.00    -0.135 OA 
BRANCH  38  39
HETATM   39  C   UNL     1      -8.905   6.519  70.814  1.00  0.00    -0.144 C  
HETATM   40  C   UNL     1      -7.802   5.192  72.532  1.00  0.00    -0.101 C  
HETATM   41  O   UNL     1      -7.684   6.101  71.433  1.00  0.00    -0.097 OA 
HETATM   42  C   UNL     1      -8.661   3.959  72.192  1.00  0.00    -0.104 C  
HETATM   43  C   UNL     1      -8.241   5.915  73.801  1.00  0.00    -0.112 C  
HETATM   44  O   UNL     1      -7.978   3.149  71.220  1.00  0.00    -0.056 OA 
HETATM   45  C   UNL     1     -10.012   4.354  71.597  1.00  0.00    -0.186 C  
HETATM   46  O   UNL     1     -10.889   4.903  72.585  1.00  0.00    -0.213 OA 
HETATM   47  C   UNL     1      -9.805   5.310  70.414  1.00  0.00    -0.213 C  
HETATM   48  H   UNL     1      -8.507   2.389  71.010  1.00  0.00     0.000 HD 
HETATM   49  H   UNL     1     -11.729   5.149  72.215  1.00  0.00     0.000 HD 
HETATM   50  O   UNL     1     -11.069   5.761  69.903  1.00  0.00    -0.360 OA 
HETATM   51  H   UNL     1     -11.617   5.024  69.660  1.00  0.00     0.000 HD 
ENDBRANCH  38  39
ENDBRANCH  37  38
ENDBRANCH  27  37
ENDBRANCH  24  25
ENDBRANCH  19  24
ENDBRANCH   7  11
ENDBRANCH   2   3
TORSDOF 7
ENDMDL
MODEL       50
REMARK 921   NORMALIZED FREE ENERGY PREDICTED BY IDOCK:   -7.40 KCAL/MOL
REMARK 922        TOTAL FREE ENERGY PREDICTED BY IDOCK:  -12.37 KCAL/MOL
REMARK 923 INTER-LIGAND FREE ENERGY PREDICTED BY IDOCK:  -11.39 KCAL/MOL
REMARK 924 INTRA-LIGAND FREE ENERGY PREDICTED BY IDOCK:   -0.98 KCAL/MOL
REMARK 927      BINDING AFFINITY PREDICTED BY RF-SCORE:    0.00 PKD
ROOT
HETATM    1  C   UNL     1      -6.964  18.935  66.089  1.00  0.00    -0.249 C  
HETATM    2  O   UNL     1      -7.692  17.850  65.521  1.00  0.00    -0.505 OA 
ENDROOT
BRANCH   2   3
HETATM    3  C   UNL     1      -8.442  17.120  66.408  1.00  0.00    -0.272 A  
HETATM    4  C   UNL     1      -9.791  17.459  66.473  1.00  0.00    -0.304 A  
HETATM    5  C   UNL     1     -10.660  16.812  67.349  1.00  0.00    -0.291 A  
HETATM    6  O   UNL     1     -10.293  18.461  65.686  1.00  0.00    -0.605 OA 
HETATM    7  C   UNL     1     -10.205  15.771  68.184  1.00  0.00    -0.230 A  
HETATM    8  H   UNL     1     -11.213  18.692  65.731  1.00  0.00     0.000 HD 
HETATM    9  C   UNL     1      -8.849  15.418  68.093  1.00  0.00    -0.170 A  
HETATM   10  C   UNL     1      -7.975  16.081  67.210  1.00  0.00    -0.207 A  
BRANCH   7  11
HETATM   11  C   UNL     1     -11.123  15.090  69.138  1.00  0.00    -0.270 C  
HETATM   12  C   UNL     1     -11.916  15.815  69.941  1.00  0.00    -0.346 C  
HETATM   13  C   UNL     1     -12.743  15.138  70.942  1.00  0.00    -0.401 C  
HETATM   14  O   UNL     1     -13.470  15.769  71.695  1.00  0.00    -0.478 OA 
HETATM   15  C   UNL     1     -12.648  13.682  71.013  1.00  0.00    -0.441 A  
HETATM   16  C   UNL     1     -13.340  12.969  71.988  1.00  0.00    -0.492 A  
HETATM   17  C   UNL     1     -13.290  11.580  72.023  1.00  0.00    -0.397 A  
HETATM   18  O   UNL     1     -14.119  13.567  72.941  1.00  0.00    -0.585 OA 
HETATM   19  C   UNL     1     -12.556  10.881  71.069  1.00  0.00    -0.417 A  
HETATM   20  H   UNL     1     -14.592  13.081  73.606  1.00  0.00     0.000 HD 
HETATM   21  C   UNL     1     -11.832  11.608  70.096  1.00  0.00    -0.428 A  
HETATM   22  C   UNL     1     -11.855  13.016  70.082  1.00  0.00    -0.252 A  
HETATM   23  O   UNL     1     -11.098  13.689  69.135  1.00  0.00    -0.253 OA 
BRANCH  19  24
HETATM   24  O   UNL     1     -12.563   9.520  70.933  1.00  0.00    -0.269 OA 
BRANCH  24  25
HETATM   25  C   UNL     1     -11.330   8.750  70.972  1.00  0.00    -0.278 C  
HETATM   26  O   UNL     1     -10.263   9.266  70.159  1.00  0.00    -0.189 OA 
HETATM   27  C   UNL     1      -9.043   8.517  70.189  1.00  0.00    -0.152 C  
HETATM   28  H   UNL     1     -11.261   4.701  70.842  1.00  0.00     0.000 HD 
HETATM   29  C   UNL     1      -9.311   7.045  69.811  1.00  0.00    -0.146 C  
HETATM   30  O   UNL     1     -12.557   6.752  71.716  1.00  0.00    -0.357 OA 
HETATM   31  C   UNL     1     -10.357   6.429  70.719  1.00  0.00    -0.201 C  
HETATM   32  O   UNL     1      -8.171   6.171  69.865  1.00  0.00    -0.116 OA 
HETATM   33  H   UNL     1      -8.336   5.266  69.632  1.00  0.00     0.000 HD 
HETATM   34  H   UNL     1     -12.750   5.835  71.561  1.00  0.00     0.000 HD 
HETATM   35  O   UNL     1     -10.605   5.087  70.272  1.00  0.00    -0.229 OA 
HETATM   36  C   UNL     1     -11.645   7.253  70.719  1.00  0.00    -0.302 C  
BRANCH  27  37
HETATM   37  C   UNL     1      -8.044   9.016  69.122  1.00  0.00    -0.109 C  
BRANCH  37  38
HETATM   38  O   UNL     1      -8.567   9.557  67.916  1.00  0.00    -0.119 OA 
BRANCH  38  39
HETATM   39  C   UNL     1      -7.924   8.946  66.763  1.00  0.00    -0.107 C  
HETATM   40  C   UNL     1      -6.137   9.336  65.155  1.00  0.00    -0.064 C  
HETATM   41  O   UNL     1      -6.850   9.779  66.314  1.00  0.00    -0.087 OA 
HETATM   42  C   UNL     1      -7.070   9.009  63.974  1.00  0.00    -0.095 C  
HETATM   43  C   UNL     1      -5.168   8.211  65.502  1.00  0.00    -0.032 C  
HETATM   44  O   UNL     1      -7.679  10.219  63.493  1.00  0.00    -0.150 OA 
HETATM   45  C   UNL     1      -8.194   8.058  64.384  1.00  0.00    -0.081 C  
HETATM   46  O   UNL     1      -7.714   6.726  64.593  1.00  0.00    -0.099 OA 
HETATM   47  C   UNL     1      -8.924   8.607  65.616  1.00  0.00    -0.182 C  
HETATM   48  H   UNL     1      -8.255  10.018  62.764  1.00  0.00     0.000 HD 
HETATM   49  H   UNL     1      -8.412   6.134  64.848  1.00  0.00     0.000 HD 
HETATM   50  O   UNL     1      -9.923   7.679  66.067  1.00  0.00    -0.436 OA 
HETATM   51  H   UNL     1     -10.532   7.473  65.368  1.00  0.00     0.000 HD 
ENDBRANCH  38  39
ENDBRANCH  37  38
ENDBRANCH  27  37
ENDBRANCH  24  25
ENDBRANCH  19  24
ENDBRANCH   7  11
ENDBRANCH   2   3
TORSDOF 7
ENDMDL
MODEL       51
REMARK 921   NORMALIZED FREE ENERGY PREDICTED BY IDOCK:   -7.39 KCAL/MOL
REMARK 922        TOTAL FREE ENERGY PREDICTED BY IDOCK:  -12.35 KCAL/MOL
REMARK 923 INTER-LIGAND FREE ENERGY PREDICTED BY IDOCK:  -10.90 KCAL/MOL
REMARK 924 INTRA-LIGAND FREE ENERGY PREDICTED BY IDOCK:   -1.45 KCAL/MOL
REMARK 927      BINDING AFFINITY PREDICTED BY RF-SCORE:    0.00 PKD
ROOT
HETATM    1  C   UNL     1      -9.944   2.274  73.283  1.00  0.00    -0.106 C  
HETATM    2  O   UNL     1     -10.457   3.603  73.314  1.00  0.00    -0.155 OA 
ENDROOT
BRANCH   2   3
HETATM    3  C   UNL     1     -10.265   4.330  72.167  1.00  0.00    -0.164 A  
HETATM    4  C   UNL     1     -10.829   5.604  72.164  1.00  0.00    -0.245 A  
HETATM    5  C   UNL     1     -10.728   6.440  71.053  1.00  0.00    -0.301 A  
HETATM    6  O   UNL     1     -11.520   6.059  73.254  1.00  0.00    -0.468 OA 
HETATM    7  C   UNL     1     -10.027   6.030  69.901  1.00  0.00    -0.225 A  
HETATM    8  H   UNL     1     -11.905   6.927  73.252  1.00  0.00     0.000 HD 
HETATM    9  C   UNL     1      -9.439   4.755  69.922  1.00  0.00    -0.231 A  
HETATM   10  C   UNL     1      -9.552   3.914  71.045  1.00  0.00    -0.251 A  
BRANCH   7  11
HETATM   11  C   UNL     1      -9.934   6.908  68.702  1.00  0.00    -0.149 C  
HETATM   12  C   UNL     1      -9.325   6.468  67.590  1.00  0.00    -0.118 C  
HETATM   13  C   UNL     1      -9.154   7.373  66.453  1.00  0.00    -0.160 C  
HETATM   14  O   UNL     1      -8.597   7.007  65.430  1.00  0.00    -0.126 OA 
HETATM   15  C   UNL     1      -9.661   8.736  66.601  1.00  0.00    -0.309 A  
HETATM   16  C   UNL     1      -9.469   9.681  65.598  1.00  0.00    -0.255 A  
HETATM   17  C   UNL     1      -9.996  10.962  65.717  1.00  0.00    -0.299 A  
HETATM   18  O   UNL     1      -8.786   9.417  64.442  1.00  0.00    -0.202 OA 
HETATM   19  C   UNL     1     -10.741  11.311  66.840  1.00  0.00    -0.273 A  
HETATM   20  H   UNL     1      -8.655  10.062  63.756  1.00  0.00     0.000 HD 
HETATM   21  C   UNL     1     -10.913  10.357  67.870  1.00  0.00    -0.354 A  
HETATM   22  C   UNL     1     -10.349   9.072  67.764  1.00  0.00    -0.246 A  
HETATM   23  O   UNL     1     -10.508   8.182  68.816  1.00  0.00    -0.211 OA 
BRANCH  19  24
HETATM   24  O   UNL     1     -11.419  12.491  66.981  1.00  0.00    -0.313 OA 
BRANCH  24  25
HETATM   25  C   UNL     1     -10.853  13.748  66.519  1.00  0.00    -0.287 C  
HETATM   26  O   UNL     1     -10.620  14.726  67.545  1.00  0.00    -0.254 OA 
HETATM   27  C   UNL     1     -10.063  15.969  67.103  1.00  0.00    -0.270 C  
HETATM   28  H   UNL     1     -12.119  15.624  63.159  1.00  0.00     0.000 HD 
HETATM   29  C   UNL     1     -10.944  16.586  65.997  1.00  0.00     0.057 C  
HETATM   30  O   UNL     1     -11.681  13.325  64.241  1.00  0.00    -0.369 OA 
HETATM   31  C   UNL     1     -11.126  15.620  64.841  1.00  0.00    -0.402 C  
HETATM   32  O   UNL     1     -10.457  17.809  65.422  1.00  0.00    -0.641 OA 
HETATM   33  H   UNL     1     -10.999  18.189  64.742  1.00  0.00     0.000 HD 
HETATM   34  H   UNL     1     -12.188  13.651  63.508  1.00  0.00     0.000 HD 
HETATM   35  O   UNL     1     -12.006  16.229  63.883  1.00  0.00    -1.003 OA 
HETATM   36  C   UNL     1     -11.682  14.280  65.321  1.00  0.00    -0.357 C  
BRANCH  27  37
HETATM   37  C   UNL     1     -10.061  17.024  68.230  1.00  0.00    -0.306 C  
BRANCH  37  38
HETATM   38  O   UNL     1      -9.165  16.839  69.318  1.00  0.00    -0.188 OA 
BRANCH  38  39
HETATM   39  C   UNL     1      -7.974  16.128  68.881  1.00  0.00    -0.223 C  
HETATM   40  C   UNL     1      -6.757  14.051  69.246  1.00  0.00    -0.120 C  
HETATM   41  O   UNL     1      -7.901  14.860  69.539  1.00  0.00    -0.174 OA 
HETATM   42  C   UNL     1      -5.430  14.810  69.434  1.00  0.00    -0.093 C  
HETATM   43  C   UNL     1      -6.893  13.378  67.885  1.00  0.00    -0.144 C  
HETATM   44  O   UNL     1      -5.232  15.095  70.829  1.00  0.00    -0.128 OA 
HETATM   45  C   UNL     1      -5.426  16.142  68.685  1.00  0.00    -0.105 C  
HETATM   46  O   UNL     1      -5.317  15.957  67.270  1.00  0.00    -0.312 OA 
HETATM   47  C   UNL     1      -6.667  16.961  69.064  1.00  0.00    -0.215 C  
HETATM   48  H   UNL     1      -4.413  15.564  70.945  1.00  0.00     0.000 HD 
HETATM   49  H   UNL     1      -5.314  16.785  66.804  1.00  0.00     0.000 HD 
HETATM   50  O   UNL     1      -6.724  18.175  68.299  1.00  0.00    -0.201 OA 
HETATM   51  H   UNL     1      -5.929  18.682  68.411  1.00  0.00     0.000 HD 
ENDBRANCH  38  39
ENDBRANCH  37  38
ENDBRANCH  27  37
ENDBRANCH  24  25
ENDBRANCH  19  24
ENDBRANCH   7  11
ENDBRANCH   2   3
TORSDOF 7
ENDMDL
MODEL       52
REMARK 921   NORMALIZED FREE ENERGY PREDICTED BY IDOCK:   -7.39 KCAL/MOL
REMARK 922        TOTAL FREE ENERGY PREDICTED BY IDOCK:  -12.34 KCAL/MOL
REMARK 923 INTER-LIGAND FREE ENERGY PREDICTED BY IDOCK:  -11.76 KCAL/MOL
REMARK 924 INTRA-LIGAND FREE ENERGY PREDICTED BY IDOCK:   -0.58 KCAL/MOL
REMARK 927      BINDING AFFINITY PREDICTED BY RF-SCORE:    0.00 PKD
ROOT
HETATM    1  C   UNL     1      -8.829   1.630  66.551  1.00  0.00    -0.117 C  
HETATM    2  O   UNL     1      -9.009   2.091  67.887  1.00  0.00    -0.112 OA 
ENDROOT
BRANCH   2   3
HETATM    3  C   UNL     1      -9.331   3.419  68.009  1.00  0.00    -0.187 A  
HETATM    4  C   UNL     1      -9.184   3.957  69.285  1.00  0.00    -0.157 A  
HETATM    5  C   UNL     1      -9.497   5.288  69.552  1.00  0.00    -0.192 A  
HETATM    6  O   UNL     1      -8.745   3.176  70.320  1.00  0.00    -0.060 OA 
HETATM    7  C   UNL     1      -9.952   6.144  68.528  1.00  0.00    -0.173 A  
HETATM    8  H   UNL     1      -8.645   3.543  71.191  1.00  0.00     0.000 HD 
HETATM    9  C   UNL     1     -10.072   5.601  67.240  1.00  0.00    -0.210 A  
HETATM   10  C   UNL     1      -9.760   4.253  66.979  1.00  0.00    -0.237 A  
BRANCH   7  11
HETATM   11  C   UNL     1     -10.310   7.561  68.811  1.00  0.00    -0.200 C  
HETATM   12  C   UNL     1     -10.382   7.998  70.078  1.00  0.00    -0.218 C  
HETATM   13  C   UNL     1     -10.828   9.365  70.347  1.00  0.00    -0.269 C  
HETATM   14  O   UNL     1     -10.913   9.791  71.489  1.00  0.00    -0.309 OA 
HETATM   15  C   UNL     1     -11.185  10.191  69.195  1.00  0.00    -0.234 A  
HETATM   16  C   UNL     1     -11.693  11.475  69.369  1.00  0.00    -0.346 A  
HETATM   17  C   UNL     1     -11.983  12.279  68.272  1.00  0.00    -0.259 A  
HETATM   18  O   UNL     1     -11.914  12.033  70.598  1.00  0.00    -0.462 OA 
HETATM   19  C   UNL     1     -11.752  11.813  66.981  1.00  0.00    -0.167 A  
HETATM   20  H   UNL     1     -12.261  12.909  70.717  1.00  0.00     0.000 HD 
HETATM   21  C   UNL     1     -11.260  10.498  66.807  1.00  0.00     0.071 A  
HETATM   22  C   UNL     1     -10.999   9.672  67.916  1.00  0.00    -0.145 A  
HETATM   23  O   UNL     1     -10.557   8.377  67.698  1.00  0.00    -0.243 OA 
BRANCH  19  24
HETATM   24  O   UNL     1     -11.867  12.576  65.851  1.00  0.00    -0.410 OA 
BRANCH  24  25
HETATM   25  C   UNL     1     -10.949  13.671  65.582  1.00  0.00    -0.290 C  
HETATM   26  O   UNL     1     -10.083  14.023  66.673  1.00  0.00    -0.264 OA 
HETATM   27  C   UNL     1      -9.174  15.100  66.422  1.00  0.00    -0.300 C  
HETATM   28  H   UNL     1     -12.061  17.043  63.630  1.00  0.00     0.000 HD 
HETATM   29  C   UNL     1      -9.946  16.352  65.955  1.00  0.00    -0.345 C  
HETATM   30  O   UNL     1     -12.398  14.490  63.771  1.00  0.00    -1.013 OA 
HETATM   31  C   UNL     1     -10.793  16.049  64.734  1.00  0.00    -0.294 C  
HETATM   32  O   UNL     1      -9.137  17.489  65.608  1.00  0.00    -0.428 OA 
HETATM   33  H   UNL     1      -9.612  18.259  65.321  1.00  0.00     0.000 HD 
HETATM   34  H   UNL     1     -12.878  15.225  63.409  1.00  0.00     0.000 HD 
HETATM   35  O   UNL     1     -11.531  17.233  64.395  1.00  0.00    -0.941 OA 
HETATM   36  C   UNL     1     -11.733  14.871  64.991  1.00  0.00    -0.329 C  
BRANCH  27  37
HETATM   37  C   UNL     1      -8.452  15.548  67.711  1.00  0.00    -0.152 C  
BRANCH  37  38
HETATM   38  O   UNL     1      -8.910  16.726  68.360  1.00  0.00    -0.219 OA 
BRANCH  38  39
HETATM   39  C   UNL     1      -8.027  17.845  68.065  1.00  0.00    -0.250 C  
HETATM   40  C   UNL     1      -5.766  18.644  68.486  1.00  0.00    -0.200 C  
HETATM   41  O   UNL     1      -6.743  17.611  68.651  1.00  0.00    -0.199 OA 
HETATM   42  C   UNL     1      -6.288  20.028  68.916  1.00  0.00    -0.310 C  
HETATM   43  C   UNL     1      -5.171  18.620  67.082  1.00  0.00    -0.132 C  
HETATM   44  O   UNL     1      -6.490  20.046  70.339  1.00  0.00    -0.350 OA 
HETATM   45  C   UNL     1      -7.626  20.360  68.255  1.00  0.00    -0.033 C  
HETATM   46  O   UNL     1      -7.473  20.661  66.865  1.00  0.00    -0.383 OA 
HETATM   47  C   UNL     1      -8.626  19.221  68.491  1.00  0.00    -0.365 C  
HETATM   48  H   UNL     1      -6.812  20.900  70.604  1.00  0.00     0.000 HD 
HETATM   49  H   UNL     1      -8.304  20.868  66.454  1.00  0.00     0.000 HD 
HETATM   50  O   UNL     1      -9.857  19.478  67.800  1.00  0.00    -0.327 OA 
HETATM   51  H   UNL     1     -10.221  20.316  68.059  1.00  0.00     0.000 HD 
ENDBRANCH  38  39
ENDBRANCH  37  38
ENDBRANCH  27  37
ENDBRANCH  24  25
ENDBRANCH  19  24
ENDBRANCH   7  11
ENDBRANCH   2   3
TORSDOF 7
ENDMDL
MODEL       53
REMARK 921   NORMALIZED FREE ENERGY PREDICTED BY IDOCK:   -7.37 KCAL/MOL
REMARK 922        TOTAL FREE ENERGY PREDICTED BY IDOCK:  -12.32 KCAL/MOL
REMARK 923 INTER-LIGAND FREE ENERGY PREDICTED BY IDOCK:  -10.77 KCAL/MOL
REMARK 924 INTRA-LIGAND FREE ENERGY PREDICTED BY IDOCK:   -1.54 KCAL/MOL
REMARK 927      BINDING AFFINITY PREDICTED BY RF-SCORE:    0.00 PKD
ROOT
HETATM    1  C   UNL     1     -10.749   4.679  72.554  1.00  0.00    -0.149 C  
HETATM    2  O   UNL     1     -12.015   5.329  72.622  1.00  0.00    -0.170 OA 
ENDROOT
BRANCH   2   3
HETATM    3  C   UNL     1     -11.996   6.675  72.360  1.00  0.00    -0.146 A  
HETATM    4  C   UNL     1     -13.241   7.262  72.148  1.00  0.00     0.005 A  
HETATM    5  C   UNL     1     -13.363   8.618  71.850  1.00  0.00    -0.418 A  
HETATM    6  O   UNL     1     -14.382   6.508  72.207  1.00  0.00    -0.622 OA 
HETATM    7  C   UNL     1     -12.226   9.448  71.777  1.00  0.00    -0.465 A  
HETATM    8  H   UNL     1     -15.231   6.908  72.063  1.00  0.00     0.000 HD 
HETATM    9  C   UNL     1     -10.977   8.854  72.018  1.00  0.00    -0.412 A  
HETATM   10  C   UNL     1     -10.862   7.482  72.312  1.00  0.00    -0.302 A  
BRANCH   7  11
HETATM   11  C   UNL     1     -12.347  10.893  71.437  1.00  0.00    -0.298 C  
HETATM   12  C   UNL     1     -13.144  11.691  72.164  1.00  0.00    -0.290 C  
HETATM   13  C   UNL     1     -13.330  13.086  71.762  1.00  0.00    -0.378 C  
HETATM   14  O   UNL     1     -14.055  13.836  72.397  1.00  0.00    -0.614 OA 
HETATM   15  C   UNL     1     -12.628  13.535  70.562  1.00  0.00    -0.311 A  
HETATM   16  C   UNL     1     -12.813  14.823  70.069  1.00  0.00    -0.064 A  
HETATM   17  C   UNL     1     -12.106  15.267  68.957  1.00  0.00    -0.244 A  
HETATM   18  O   UNL     1     -13.664  15.730  70.641  1.00  0.00    -0.761 OA 
HETATM   19  C   UNL     1     -11.187  14.430  68.332  1.00  0.00    -0.273 A  
HETATM   20  H   UNL     1     -13.790  16.609  70.304  1.00  0.00     0.000 HD 
HETATM   21  C   UNL     1     -11.019  13.113  68.819  1.00  0.00    -0.298 A  
HETATM   22  C   UNL     1     -11.761  12.652  69.923  1.00  0.00    -0.250 A  
HETATM   23  O   UNL     1     -11.596  11.341  70.343  1.00  0.00    -0.311 OA 
BRANCH  19  24
HETATM   24  O   UNL     1     -10.342  14.821  67.328  1.00  0.00    -0.244 OA 
BRANCH  24  25
HETATM   25  C   UNL     1      -9.378  13.898  66.750  1.00  0.00    -0.275 C  
HETATM   26  O   UNL     1      -9.919  12.636  66.328  1.00  0.00    -0.248 OA 
HETATM   27  C   UNL     1      -8.981  11.718  65.757  1.00  0.00    -0.010 C  
HETATM   28  H   UNL     1      -5.690  13.303  68.319  1.00  0.00     0.000 HD 
HETATM   29  C   UNL     1      -7.811  11.474  66.733  1.00  0.00    -0.146 C  
HETATM   30  O   UNL     1      -7.530  15.057  67.887  1.00  0.00    -0.113 OA 
HETATM   31  C   UNL     1      -7.141  12.778  67.120  1.00  0.00     0.006 C  
HETATM   32  O   UNL     1      -6.765  10.616  66.249  1.00  0.00    -0.113 OA 
HETATM   33  H   UNL     1      -6.045  10.465  66.849  1.00  0.00     0.000 HD 
HETATM   34  H   UNL     1      -6.780  14.980  68.464  1.00  0.00     0.000 HD 
HETATM   35  O   UNL     1      -6.110  12.486  68.076  1.00  0.00    -0.069 OA 
HETATM   36  C   UNL     1      -8.152  13.772  67.691  1.00  0.00    -0.177 C  
BRANCH  27  37
HETATM   37  C   UNL     1      -9.607  10.323  65.545  1.00  0.00    -0.242 C  
BRANCH  37  38
HETATM   38  O   UNL     1     -10.493   9.829  66.540  1.00  0.00    -0.211 OA 
BRANCH  38  39
HETATM   39  C   UNL     1      -9.946   8.631  67.158  1.00  0.00    -0.231 C  
HETATM   40  C   UNL     1     -10.174   6.207  67.138  1.00  0.00    -0.199 C  
HETATM   41  O   UNL     1     -10.575   7.472  66.602  1.00  0.00    -0.268 OA 
HETATM   42  C   UNL     1     -10.263   6.158  68.675  1.00  0.00    -0.181 C  
HETATM   43  C   UNL     1      -8.818   5.780  66.586  1.00  0.00    -0.121 C  
HETATM   44  O   UNL     1     -11.641   6.220  69.080  1.00  0.00    -0.532 OA 
HETATM   45  C   UNL     1      -9.537   7.337  69.323  1.00  0.00    -0.156 C  
HETATM   46  O   UNL     1      -8.116   7.203  69.231  1.00  0.00    -0.117 OA 
HETATM   47  C   UNL     1     -10.033   8.656  68.716  1.00  0.00    -0.183 C  
HETATM   48  H   UNL     1     -11.696   6.190  70.028  1.00  0.00     0.000 HD 
HETATM   49  H   UNL     1      -7.665   7.936  69.634  1.00  0.00     0.000 HD 
HETATM   50  O   UNL     1      -9.295   9.766  69.250  1.00  0.00    -0.169 OA 
HETATM   51  H   UNL     1      -9.348   9.781  70.198  1.00  0.00     0.000 HD 
ENDBRANCH  38  39
ENDBRANCH  37  38
ENDBRANCH  27  37
ENDBRANCH  24  25
ENDBRANCH  19  24
ENDBRANCH   7  11
ENDBRANCH   2   3
TORSDOF 7
ENDMDL
MODEL       54
REMARK 921   NORMALIZED FREE ENERGY PREDICTED BY IDOCK:   -7.36 KCAL/MOL
REMARK 922        TOTAL FREE ENERGY PREDICTED BY IDOCK:  -12.30 KCAL/MOL
REMARK 923 INTER-LIGAND FREE ENERGY PREDICTED BY IDOCK:  -10.54 KCAL/MOL
REMARK 924 INTRA-LIGAND FREE ENERGY PREDICTED BY IDOCK:   -1.76 KCAL/MOL
REMARK 927      BINDING AFFINITY PREDICTED BY RF-SCORE:    0.00 PKD
ROOT
HETATM    1  C   UNL     1     -10.070   1.918  63.964  1.00  0.00    -0.035 C  
HETATM    2  O   UNL     1      -9.411   2.275  65.176  1.00  0.00    -0.130 OA 
ENDROOT
BRANCH   2   3
HETATM    3  C   UNL     1      -9.267   3.622  65.388  1.00  0.00    -0.153 A  
HETATM    4  C   UNL     1      -8.036   4.160  65.019  1.00  0.00    -0.097 A  
HETATM    5  C   UNL     1      -7.750   5.511  65.201  1.00  0.00    -0.091 A  
HETATM    6  O   UNL     1      -7.063   3.359  64.484  1.00  0.00    -0.055 OA 
HETATM    7  C   UNL     1      -8.710   6.387  65.746  1.00  0.00    -0.135 A  
HETATM    8  H   UNL     1      -6.223   3.725  64.232  1.00  0.00     0.000 HD 
HETATM    9  C   UNL     1      -9.958   5.843  66.091  1.00  0.00    -0.039 A  
HETATM   10  C   UNL     1     -10.237   4.475  65.909  1.00  0.00    -0.289 A  
BRANCH   7  11
HETATM   11  C   UNL     1      -8.404   7.827  65.965  1.00  0.00    -0.133 C  
HETATM   12  C   UNL     1      -7.170   8.297  65.724  1.00  0.00    -0.072 C  
HETATM   13  C   UNL     1      -6.855   9.692  66.034  1.00  0.00    -0.088 C  
HETATM   14  O   UNL     1      -5.739  10.149  65.835  1.00  0.00    -0.061 OA 
HETATM   15  C   UNL     1      -7.923  10.508  66.607  1.00  0.00    -0.125 A  
HETATM   16  C   UNL     1      -7.683  11.820  67.003  1.00  0.00    -0.158 A  
HETATM   17  C   UNL     1      -8.712  12.612  67.501  1.00  0.00    -0.184 A  
HETATM   18  O   UNL     1      -6.456  12.418  66.911  1.00  0.00    -0.383 OA 
HETATM   19  C   UNL     1     -10.005  12.104  67.593  1.00  0.00    -0.197 A  
HETATM   20  H   UNL     1      -6.292  13.314  67.181  1.00  0.00     0.000 HD 
HETATM   21  C   UNL     1     -10.241  10.761  67.215  1.00  0.00    -0.245 A  
HETATM   22  C   UNL     1      -9.191   9.950  66.745  1.00  0.00    -0.148 A  
HETATM   23  O   UNL     1      -9.459   8.628  66.423  1.00  0.00    -0.193 OA 
BRANCH  19  24
HETATM   24  O   UNL     1     -11.105  12.845  67.930  1.00  0.00    -0.233 OA 
BRANCH  24  25
HETATM   25  C   UNL     1     -11.445  13.104  69.320  1.00  0.00    -0.291 C  
HETATM   26  O   UNL     1     -12.074  12.011  70.008  1.00  0.00    -0.310 OA 
HETATM   27  C   UNL     1     -12.414  12.253  71.378  1.00  0.00    -0.106 C  
HETATM   28  H   UNL     1     -13.101  16.586  70.565  1.00  0.00     0.000 HD 
HETATM   29  C   UNL     1     -13.301  13.510  71.494  1.00  0.00    -0.285 C  
HETATM   30  O   UNL     1     -11.429  15.529  68.910  1.00  0.00    -0.309 OA 
HETATM   31  C   UNL     1     -12.623  14.716  70.872  1.00  0.00    -0.342 C  
HETATM   32  O   UNL     1     -13.659  13.898  72.830  1.00  0.00    -0.680 OA 
HETATM   33  H   UNL     1     -14.205  14.672  72.901  1.00  0.00     0.000 HD 
HETATM   34  H   UNL     1     -11.906  16.348  68.972  1.00  0.00     0.000 HD 
HETATM   35  O   UNL     1     -13.526  15.830  70.954  1.00  0.00    -0.568 OA 
HETATM   36  C   UNL     1     -12.223  14.441  69.422  1.00  0.00    -0.266 C  
BRANCH  27  37
HETATM   37  C   UNL     1     -13.278  11.113  71.959  1.00  0.00    -0.323 C  
BRANCH  37  38
HETATM   38  O   UNL     1     -13.523   9.976  71.143  1.00  0.00    -0.357 OA 
BRANCH  38  39
HETATM   39  C   UNL     1     -12.589   8.909  71.465  1.00  0.00    -0.331 C  
HETATM   40  C   UNL     1     -10.494   7.925  70.710  1.00  0.00    -0.210 C  
HETATM   41  O   UNL     1     -11.487   8.942  70.552  1.00  0.00    -0.258 OA 
HETATM   42  C   UNL     1     -11.096   6.507  70.744  1.00  0.00    -0.300 C  
HETATM   43  C   UNL     1      -9.574   8.230  71.887  1.00  0.00    -0.288 C  
HETATM   44  O   UNL     1     -11.639   6.184  69.452  1.00  0.00    -0.459 OA 
HETATM   45  C   UNL     1     -12.230   6.397  71.762  1.00  0.00    -0.256 C  
HETATM   46  O   UNL     1     -11.741   6.405  73.107  1.00  0.00    -0.434 OA 
HETATM   47  C   UNL     1     -13.264   7.504  71.519  1.00  0.00    -0.354 C  
HETATM   48  H   UNL     1     -12.011   5.310  69.473  1.00  0.00     0.000 HD 
HETATM   49  H   UNL     1     -12.446   6.336  73.740  1.00  0.00     0.000 HD 
HETATM   50  O   UNL     1     -14.289   7.468  72.524  1.00  0.00    -0.570 OA 
HETATM   51  H   UNL     1     -14.700   6.613  72.557  1.00  0.00     0.000 HD 
ENDBRANCH  38  39
ENDBRANCH  37  38
ENDBRANCH  27  37
ENDBRANCH  24  25
ENDBRANCH  19  24
ENDBRANCH   7  11
ENDBRANCH   2   3
TORSDOF 7
ENDMDL
MODEL       55
REMARK 921   NORMALIZED FREE ENERGY PREDICTED BY IDOCK:   -7.33 KCAL/MOL
REMARK 922        TOTAL FREE ENERGY PREDICTED BY IDOCK:  -12.26 KCAL/MOL
REMARK 923 INTER-LIGAND FREE ENERGY PREDICTED BY IDOCK:   -9.83 KCAL/MOL
REMARK 924 INTRA-LIGAND FREE ENERGY PREDICTED BY IDOCK:   -2.44 KCAL/MOL
REMARK 927      BINDING AFFINITY PREDICTED BY RF-SCORE:    0.00 PKD
ROOT
HETATM    1  C   UNL     1     -10.240   4.851  69.998  1.00  0.00    -0.243 C  
HETATM    2  O   UNL     1     -10.734   5.689  68.956  1.00  0.00    -0.267 OA 
ENDROOT
BRANCH   2   3
HETATM    3  C   UNL     1     -10.148   6.926  68.873  1.00  0.00    -0.170 A  
HETATM    4  C   UNL     1     -10.460   7.662  67.733  1.00  0.00    -0.216 A  
HETATM    5  C   UNL     1      -9.916   8.926  67.512  1.00  0.00    -0.258 A  
HETATM    6  O   UNL     1     -11.300   7.145  66.782  1.00  0.00    -0.479 OA 
HETATM    7  C   UNL     1      -9.046   9.513  68.454  1.00  0.00    -0.127 A  
HETATM    8  H   UNL     1     -11.513   7.647  66.005  1.00  0.00     0.000 HD 
HETATM    9  C   UNL     1      -8.758   8.776  69.613  1.00  0.00    -0.136 A  
HETATM   10  C   UNL     1      -9.307   7.497  69.825  1.00  0.00    -0.150 A  
BRANCH   7  11
HETATM   11  C   UNL     1      -8.444  10.853  68.215  1.00  0.00    -0.134 C  
HETATM   12  C   UNL     1      -7.262  10.958  67.587  1.00  0.00    -0.093 C  
HETATM   13  C   UNL     1      -6.633  12.271  67.444  1.00  0.00    -0.154 C  
HETATM   14  O   UNL     1      -5.554  12.399  66.886  1.00  0.00    -0.327 OA 
HETATM   15  C   UNL     1      -7.341  13.417  68.012  1.00  0.00    -0.129 A  
HETATM   16  C   UNL     1      -6.774  14.688  67.988  1.00  0.00    -0.143 A  
HETATM   17  C   UNL     1      -7.470  15.785  68.482  1.00  0.00    -0.129 A  
HETATM   18  O   UNL     1      -5.536  14.946  67.468  1.00  0.00    -0.333 OA 
HETATM   19  C   UNL     1      -8.755  15.628  68.993  1.00  0.00    -0.240 A  
HETATM   20  H   UNL     1      -5.149  15.813  67.451  1.00  0.00     0.000 HD 
HETATM   21  C   UNL     1      -9.318  14.331  69.041  1.00  0.00     0.025 A  
HETATM   22  C   UNL     1      -8.599  13.215  68.573  1.00  0.00    -0.056 A  
HETATM   23  O   UNL     1      -9.173  11.957  68.676  1.00  0.00    -0.160 OA 
BRANCH  19  24
HETATM   24  O   UNL     1      -9.571  16.661  69.366  1.00  0.00    -0.188 OA 
BRANCH  24  25
HETATM   25  C   UNL     1     -10.298  17.444  68.378  1.00  0.00    -0.379 C  
HETATM   26  O   UNL     1     -10.440  16.821  67.091  1.00  0.00    -0.317 OA 
HETATM   27  C   UNL     1     -11.153  17.581  66.110  1.00  0.00     0.492 C  
HETATM   28  H   UNL     1      -9.725  21.423  67.873  1.00  0.00     0.000 HD 
HETATM   29  C   UNL     1     -10.507  18.972  65.938  1.00  0.00    -0.399 C  
HETATM   30  O   UNL     1      -9.810  19.517  69.609  1.00  0.00    -0.330 OA 
HETATM   31  C   UNL     1     -10.437  19.709  67.262  1.00  0.00    -0.469 C  
HETATM   32  O   UNL     1     -11.171  19.858  65.023  1.00  0.00    -0.218 OA 
HETATM   33  H   UNL     1     -10.774  20.714  64.917  1.00  0.00     0.000 HD 
HETATM   34  H   UNL     1      -9.451  20.396  69.574  1.00  0.00     0.000 HD 
HETATM   35  O   UNL     1      -9.769  20.961  67.044  1.00  0.00    -0.376 OA 
HETATM   36  C   UNL     1      -9.712  18.878  68.321  1.00  0.00    -0.361 C  
BRANCH  27  37
HETATM   37  C   UNL     1     -11.058  16.935  64.711  1.00  0.00     0.102 C  
BRANCH  37  38
HETATM   38  O   UNL     1     -12.110  16.072  64.300  1.00  0.00    -0.533 OA 
BRANCH  38  39
HETATM   39  C   UNL     1     -11.747  14.682  64.530  1.00  0.00    -0.401 C  
HETATM   40  C   UNL     1     -11.559  12.549  63.371  1.00  0.00    -0.473 C  
HETATM   41  O   UNL     1     -11.846  13.949  63.305  1.00  0.00    -0.097 OA 
HETATM   42  C   UNL     1     -12.362  11.830  64.472  1.00  0.00     0.052 C  
HETATM   43  C   UNL     1     -10.057  12.297  63.442  1.00  0.00    -0.290 C  
HETATM   44  O   UNL     1     -13.757  11.823  64.123  1.00  0.00    -0.181 OA 
HETATM   45  C   UNL     1     -12.227  12.531  65.823  1.00  0.00    -0.292 C  
HETATM   46  O   UNL     1     -10.933  12.331  66.399  1.00  0.00    -0.264 OA 
HETATM   47  C   UNL     1     -12.570  14.020  65.678  1.00  0.00    -0.512 C  
HETATM   48  H   UNL     1     -14.253  11.380  64.802  1.00  0.00     0.000 HD 
HETATM   49  H   UNL     1     -10.849  12.767  67.240  1.00  0.00     0.000 HD 
HETATM   50  O   UNL     1     -12.359  14.709  66.920  1.00  0.00    -0.475 OA 
HETATM   51  H   UNL     1     -12.860  14.306  67.619  1.00  0.00     0.000 HD 
ENDBRANCH  38  39
ENDBRANCH  37  38
ENDBRANCH  27  37
ENDBRANCH  24  25
ENDBRANCH  19  24
ENDBRANCH   7  11
ENDBRANCH   2   3
TORSDOF 7
ENDMDL
MODEL       56
REMARK 921   NORMALIZED FREE ENERGY PREDICTED BY IDOCK:   -7.29 KCAL/MOL
REMARK 922        TOTAL FREE ENERGY PREDICTED BY IDOCK:  -12.20 KCAL/MOL
REMARK 923 INTER-LIGAND FREE ENERGY PREDICTED BY IDOCK:   -9.94 KCAL/MOL
REMARK 924 INTRA-LIGAND FREE ENERGY PREDICTED BY IDOCK:   -2.26 KCAL/MOL
REMARK 927      BINDING AFFINITY PREDICTED BY RF-SCORE:    0.00 PKD
ROOT
HETATM    1  C   UNL     1     -12.409  15.280  64.352  1.00  0.00    -0.158 C  
HETATM    2  O   UNL     1     -12.850  14.051  64.922  1.00  0.00    -0.692 OA 
ENDROOT
BRANCH   2   3
HETATM    3  C   UNL     1     -12.003  12.987  64.746  1.00  0.00    -0.395 A  
HETATM    4  C   UNL     1     -11.627  12.321  65.910  1.00  0.00    -0.393 A  
HETATM    5  C   UNL     1     -10.752  11.237  65.875  1.00  0.00    -0.291 A  
HETATM    6  O   UNL     1     -12.095  12.736  67.128  1.00  0.00    -0.415 OA 
HETATM    7  C   UNL     1     -10.237  10.761  64.652  1.00  0.00    -0.419 A  
HETATM    8  H   UNL     1     -11.838  12.282  67.922  1.00  0.00     0.000 HD 
HETATM    9  C   UNL     1     -10.642  11.421  63.481  1.00  0.00    -0.468 A  
HETATM   10  C   UNL     1     -11.521  12.520  63.525  1.00  0.00    -0.570 A  
BRANCH   7  11
HETATM   11  C   UNL     1      -9.285   9.617  64.610  1.00  0.00    -0.234 C  
HETATM   12  C   UNL     1      -8.676   9.291  63.460  1.00  0.00    -0.188 C  
HETATM   13  C   UNL     1      -7.817   8.107  63.407  1.00  0.00    -0.149 C  
HETATM   14  O   UNL     1      -7.255   7.778  62.374  1.00  0.00    -0.086 OA 
HETATM   15  C   UNL     1      -7.678   7.327  64.635  1.00  0.00    -0.116 A  
HETATM   16  C   UNL     1      -6.944   6.145  64.648  1.00  0.00    -0.051 A  
HETATM   17  C   UNL     1      -6.768   5.431  65.829  1.00  0.00    -0.053 A  
HETATM   18  O   UNL     1      -6.338   5.627  63.537  1.00  0.00    -0.024 OA 
HETATM   19  C   UNL     1      -7.313   5.902  67.020  1.00  0.00    -0.076 A  
HETATM   20  H   UNL     1      -5.837   4.820  63.546  1.00  0.00     0.000 HD 
HETATM   21  C   UNL     1      -8.080   7.090  66.998  1.00  0.00    -0.117 A  
HETATM   22  C   UNL     1      -8.287   7.793  65.797  1.00  0.00    -0.137 A  
HETATM   23  O   UNL     1      -9.080   8.931  65.814  1.00  0.00    -0.197 OA 
BRANCH  19  24
HETATM   24  O   UNL     1      -7.075   5.352  68.250  1.00  0.00    -0.063 OA 
BRANCH  24  25
HETATM   25  C   UNL     1      -8.136   5.216  69.236  1.00  0.00    -0.084 C  
HETATM   26  O   UNL     1      -8.005   6.059  70.392  1.00  0.00    -0.103 OA 
HETATM   27  C   UNL     1      -9.043   5.935  71.370  1.00  0.00    -0.140 C  
HETATM   28  H   UNL     1      -9.635   1.628  70.371  1.00  0.00     0.000 HD 
HETATM   29  C   UNL     1      -9.181   4.466  71.820  1.00  0.00    -0.134 C  
HETATM   30  O   UNL     1      -8.688   2.975  68.386  1.00  0.00    -0.085 OA 
HETATM   31  C   UNL     1      -9.428   3.552  70.634  1.00  0.00    -0.173 C  
HETATM   32  O   UNL     1     -10.236   4.197  72.757  1.00  0.00    -0.154 OA 
HETATM   33  H   UNL     1     -10.320   3.293  73.034  1.00  0.00     0.000 HD 
HETATM   34  H   UNL     1      -8.814   2.056  68.592  1.00  0.00     0.000 HD 
HETATM   35  O   UNL     1      -9.479   2.200  71.113  1.00  0.00    -0.122 OA 
HETATM   36  C   UNL     1      -8.341   3.717  69.572  1.00  0.00    -0.052 C  
BRANCH  27  37
HETATM   37  C   UNL     1      -8.701   6.706  72.663  1.00  0.00    -0.123 C  
BRANCH  37  38
HETATM   38  O   UNL     1      -9.696   7.554  73.220  1.00  0.00    -0.220 OA 
BRANCH  38  39
HETATM   39  C   UNL     1     -10.673   7.925  72.208  1.00  0.00    -0.283 C  
HETATM   40  C   UNL     1     -11.482   9.855  70.963  1.00  0.00    -0.388 C  
HETATM   41  O   UNL     1     -10.557   9.321  71.916  1.00  0.00    -0.324 OA 
HETATM   42  C   UNL     1     -12.946   9.514  71.302  1.00  0.00    -0.328 C  
HETATM   43  C   UNL     1     -11.080   9.487  69.539  1.00  0.00    -0.168 C  
HETATM   44  O   UNL     1     -13.335  10.206  72.501  1.00  0.00    -0.583 OA 
HETATM   45  C   UNL     1     -13.139   8.018  71.548  1.00  0.00    -0.296 C  
HETATM   46  O   UNL     1     -13.068   7.266  70.333  1.00  0.00    -0.347 OA 
HETATM   47  C   UNL     1     -12.130   7.524  72.592  1.00  0.00    -0.037 C  
HETATM   48  H   UNL     1     -14.238   9.996  72.710  1.00  0.00     0.000 HD 
HETATM   49  H   UNL     1     -13.188   6.336  70.486  1.00  0.00     0.000 HD 
HETATM   50  O   UNL     1     -12.239   6.103  72.766  1.00  0.00    -0.508 OA 
HETATM   51  H   UNL     1     -13.127   5.858  73.001  1.00  0.00     0.000 HD 
ENDBRANCH  38  39
ENDBRANCH  37  38
ENDBRANCH  27  37
ENDBRANCH  24  25
ENDBRANCH  19  24
ENDBRANCH   7  11
ENDBRANCH   2   3
TORSDOF 7
ENDMDL
MODEL       57
REMARK 921   NORMALIZED FREE ENERGY PREDICTED BY IDOCK:   -7.29 KCAL/MOL
REMARK 922        TOTAL FREE ENERGY PREDICTED BY IDOCK:  -12.20 KCAL/MOL
REMARK 923 INTER-LIGAND FREE ENERGY PREDICTED BY IDOCK:  -10.74 KCAL/MOL
REMARK 924 INTRA-LIGAND FREE ENERGY PREDICTED BY IDOCK:   -1.46 KCAL/MOL
REMARK 927      BINDING AFFINITY PREDICTED BY RF-SCORE:    0.00 PKD
ROOT
HETATM    1  C   UNL     1      -9.682   1.680  73.989  1.00  0.00    -0.068 C  
HETATM    2  O   UNL     1     -10.454   1.922  72.816  1.00  0.00    -0.133 OA 
ENDROOT
BRANCH   2   3
HETATM    3  C   UNL     1     -10.109   3.047  72.111  1.00  0.00    -0.132 A  
HETATM    4  C   UNL     1      -9.600   2.821  70.835  1.00  0.00    -0.132 A  
HETATM    5  C   UNL     1      -9.189   3.875  70.020  1.00  0.00    -0.220 A  
HETATM    6  O   UNL     1      -9.468   1.545  70.356  1.00  0.00    -0.097 OA 
HETATM    7  C   UNL     1      -9.300   5.211  70.455  1.00  0.00    -0.210 A  
HETATM    8  H   UNL     1      -9.121   1.391  69.486  1.00  0.00     0.000 HD 
HETATM    9  C   UNL     1      -9.840   5.431  71.732  1.00  0.00    -0.223 A  
HETATM   10  C   UNL     1     -10.246   4.361  72.552  1.00  0.00    -0.242 A  
BRANCH   7  11
HETATM   11  C   UNL     1      -8.844   6.341  69.600  1.00  0.00    -0.136 C  
HETATM   12  C   UNL     1      -7.532   6.582  69.447  1.00  0.00    -0.094 C  
HETATM   13  C   UNL     1      -7.097   7.752  68.683  1.00  0.00    -0.076 C  
HETATM   14  O   UNL     1      -5.911   8.005  68.533  1.00  0.00    -0.038 OA 
HETATM   15  C   UNL     1      -8.138   8.612  68.125  1.00  0.00    -0.115 A  
HETATM   16  C   UNL     1      -7.809   9.786  67.454  1.00  0.00    -0.099 A  
HETATM   17  C   UNL     1      -8.798  10.577  66.879  1.00  0.00    -0.143 A  
HETATM   18  O   UNL     1      -6.522  10.221  67.294  1.00  0.00    -0.065 OA 
HETATM   19  C   UNL     1     -10.134  10.193  66.955  1.00  0.00    -0.223 A  
HETATM   20  H   UNL     1      -6.298  11.023  66.835  1.00  0.00     0.000 HD 
HETATM   21  C   UNL     1     -10.468   9.014  67.660  1.00  0.00    -0.324 A  
HETATM   22  C   UNL     1      -9.470   8.232  68.272  1.00  0.00    -0.138 A  
HETATM   23  O   UNL     1      -9.846   7.106  68.988  1.00  0.00    -0.152 OA 
BRANCH  19  24
HETATM   24  O   UNL     1     -11.157  10.823  66.301  1.00  0.00    -0.080 OA 
BRANCH  24  25
HETATM   25  C   UNL     1     -11.567  12.172  66.659  1.00  0.00    -0.350 C  
HETATM   26  O   UNL     1     -10.801  13.224  66.050  1.00  0.00    -0.272 OA 
HETATM   27  C   UNL     1     -11.194  14.557  66.396  1.00  0.00    -0.341 C  
HETATM   28  H   UNL     1     -12.518  13.244  70.449  1.00  0.00     0.000 HD 
HETATM   29  C   UNL     1     -11.184  14.736  67.929  1.00  0.00    -0.306 C  
HETATM   30  O   UNL     1     -12.635  11.341  68.713  1.00  0.00    -0.410 OA 
HETATM   31  C   UNL     1     -12.070  13.708  68.605  1.00  0.00    -0.290 C  
HETATM   32  O   UNL     1     -11.622  16.018  68.408  1.00  0.00    -0.364 OA 
HETATM   33  H   UNL     1     -11.616  16.128  69.351  1.00  0.00     0.000 HD 
HETATM   34  H   UNL     1     -12.701  11.410  69.658  1.00  0.00     0.000 HD 
HETATM   35  O   UNL     1     -11.963  13.888  70.025  1.00  0.00    -0.297 OA 
HETATM   36  C   UNL     1     -11.676  12.287  68.202  1.00  0.00    -0.349 C  
BRANCH  27  37
HETATM   37  C   UNL     1     -10.181  15.601  65.877  1.00  0.00    -0.351 C  
BRANCH  37  38
HETATM   38  O   UNL     1     -10.659  16.904  65.575  1.00  0.00    -0.523 OA 
BRANCH  38  39
HETATM   39  C   UNL     1      -9.843  17.911  66.236  1.00  0.00    -0.301 C  
HETATM   40  C   UNL     1      -8.517  18.263  68.247  1.00  0.00    -0.295 C  
HETATM   41  O   UNL     1      -9.314  17.378  67.453  1.00  0.00    -0.234 OA 
HETATM   42  C   UNL     1      -9.222  19.603  68.531  1.00  0.00    -0.316 C  
HETATM   43  C   UNL     1      -7.117  18.417  67.663  1.00  0.00    -0.210 C  
HETATM   44  O   UNL     1     -10.351  19.379  69.392  1.00  0.00    -0.562 OA 
HETATM   45  C   UNL     1      -9.740  20.254  67.249  1.00  0.00    -0.450 C  
HETATM   46  O   UNL     1      -8.676  20.788  66.456  1.00  0.00    -0.522 OA 
HETATM   47  C   UNL     1     -10.601  19.255  66.464  1.00  0.00    -0.446 C  
HETATM   48  H   UNL     1     -10.787  20.205  69.567  1.00  0.00     0.000 HD 
HETATM   49  H   UNL     1      -8.998  21.193  65.659  1.00  0.00     0.000 HD 
HETATM   50  O   UNL     1     -11.019  19.824  65.213  1.00  0.00    -0.410 OA 
HETATM   51  H   UNL     1     -11.480  20.642  65.352  1.00  0.00     0.000 HD 
ENDBRANCH  38  39
ENDBRANCH  37  38
ENDBRANCH  27  37
ENDBRANCH  24  25
ENDBRANCH  19  24
ENDBRANCH   7  11
ENDBRANCH   2   3
TORSDOF 7
ENDMDL
MODEL       58
REMARK 921   NORMALIZED FREE ENERGY PREDICTED BY IDOCK:   -7.09 KCAL/MOL
REMARK 922        TOTAL FREE ENERGY PREDICTED BY IDOCK:  -11.92 KCAL/MOL
REMARK 923 INTER-LIGAND FREE ENERGY PREDICTED BY IDOCK:   -9.83 KCAL/MOL
REMARK 924 INTRA-LIGAND FREE ENERGY PREDICTED BY IDOCK:   -2.09 KCAL/MOL
REMARK 927      BINDING AFFINITY PREDICTED BY RF-SCORE:    0.00 PKD
ROOT
HETATM    1  C   UNL     1     -10.892  15.905  65.094  1.00  0.00    -0.421 C  
HETATM    2  O   UNL     1     -11.836  14.839  65.039  1.00  0.00    -0.369 OA 
ENDROOT
BRANCH   2   3
HETATM    3  C   UNL     1     -11.783  13.956  66.087  1.00  0.00    -0.376 A  
HETATM    4  C   UNL     1     -11.541  12.629  65.741  1.00  0.00    -0.387 A  
HETATM    5  C   UNL     1     -11.484  11.625  66.706  1.00  0.00    -0.299 A  
HETATM    6  O   UNL     1     -11.374  12.274  64.429  1.00  0.00    -0.307 OA 
HETATM    7  C   UNL     1     -11.647  11.927  68.074  1.00  0.00    -0.401 A  
HETATM    8  H   UNL     1     -11.209  11.369  64.193  1.00  0.00     0.000 HD 
HETATM    9  C   UNL     1     -11.864  13.271  68.417  1.00  0.00    -0.395 A  
HETATM   10  C   UNL     1     -11.926  14.278  67.435  1.00  0.00    -0.426 A  
BRANCH   7  11
HETATM   11  C   UNL     1     -11.610  10.857  69.108  1.00  0.00    -0.319 C  
HETATM   12  C   UNL     1     -12.566  10.795  70.048  1.00  0.00    -0.247 C  
HETATM   13  C   UNL     1     -12.467   9.800  71.116  1.00  0.00    -0.350 C  
HETATM   14  O   UNL     1     -13.316   9.723  71.991  1.00  0.00    -0.419 OA 
HETATM   15  C   UNL     1     -11.303   8.917  71.101  1.00  0.00    -0.357 A  
HETATM   16  C   UNL     1     -11.093   7.997  72.124  1.00  0.00    -0.311 A  
HETATM   17  C   UNL     1     -10.014   7.122  72.083  1.00  0.00    -0.183 A  
HETATM   18  O   UNL     1     -11.926   7.873  73.202  1.00  0.00    -0.662 OA 
HETATM   19  C   UNL     1      -9.134   7.145  71.005  1.00  0.00    -0.151 A  
HETATM   20  H   UNL     1     -11.784   7.245  73.901  1.00  0.00     0.000 HD 
HETATM   21  C   UNL     1      -9.334   8.098  69.979  1.00  0.00    -0.159 A  
HETATM   22  C   UNL     1     -10.407   9.008  70.039  1.00  0.00    -0.206 A  
HETATM   23  O   UNL     1     -10.542   9.952  69.033  1.00  0.00    -0.203 OA 
BRANCH  19  24
HETATM   24  O   UNL     1      -8.133   6.233  70.803  1.00  0.00    -0.116 OA 
BRANCH  24  25
HETATM   25  C   UNL     1      -8.201   5.264  69.721  1.00  0.00    -0.098 C  
HETATM   26  O   UNL     1      -8.662   5.785  68.464  1.00  0.00    -0.112 OA 
HETATM   27  C   UNL     1      -8.734   4.841  67.390  1.00  0.00    -0.103 C  
HETATM   28  H   UNL     1      -9.653   1.514  70.217  1.00  0.00     0.000 HD 
HETATM   29  C   UNL     1      -9.606   3.635  67.796  1.00  0.00    -0.134 C  
HETATM   30  O   UNL     1      -8.314   3.413  71.337  1.00  0.00    -0.066 OA 
HETATM   31  C   UNL     1      -9.087   2.988  69.066  1.00  0.00    -0.144 C  
HETATM   32  O   UNL     1      -9.706   2.582  66.823  1.00  0.00    -0.386 OA 
HETATM   33  H   UNL     1     -10.243   1.840  67.073  1.00  0.00     0.000 HD 
HETATM   34  H   UNL     1      -8.786   2.643  71.630  1.00  0.00     0.000 HD 
HETATM   35  O   UNL     1      -9.979   1.920  69.422  1.00  0.00     0.167 OA 
HETATM   36  C   UNL     1      -8.971   4.007  70.200  1.00  0.00    -0.096 C  
BRANCH  27  37
HETATM   37  C   UNL     1      -9.446   5.436  66.156  1.00  0.00    -0.157 C  
BRANCH  37  38
HETATM   38  O   UNL     1      -8.658   5.753  65.016  1.00  0.00    -0.148 OA 
BRANCH  38  39
HETATM   39  C   UNL     1      -8.279   7.157  65.034  1.00  0.00    -0.093 C  
HETATM   40  C   UNL     1      -9.134   9.348  65.663  1.00  0.00    -0.207 C  
HETATM   41  O   UNL     1      -9.335   7.933  65.610  1.00  0.00     0.006 OA 
HETATM   42  C   UNL     1      -8.739   9.943  64.298  1.00  0.00    -0.209 C  
HETATM   43  C   UNL     1      -8.188   9.729  66.797  1.00  0.00    -0.120 C  
HETATM   44  O   UNL     1      -9.848   9.842  63.389  1.00  0.00    -0.503 OA 
HETATM   45  C   UNL     1      -7.560   9.196  63.673  1.00  0.00    -0.113 C  
HETATM   46  O   UNL     1      -6.331   9.484  64.346  1.00  0.00    -0.084 OA 
HETATM   47  C   UNL     1      -7.856   7.691  63.631  1.00  0.00    -0.120 C  
HETATM   48  H   UNL     1      -9.604  10.209  62.547  1.00  0.00     0.000 HD 
HETATM   49  H   UNL     1      -5.598   9.020  63.958  1.00  0.00     0.000 HD 
HETATM   50  O   UNL     1      -6.721   6.968  63.131  1.00  0.00    -0.046 OA 
HETATM   51  H   UNL     1      -6.463   7.293  62.276  1.00  0.00     0.000 HD 
ENDBRANCH  38  39
ENDBRANCH  37  38
ENDBRANCH  27  37
ENDBRANCH  24  25
ENDBRANCH  19  24
ENDBRANCH   7  11
ENDBRANCH   2   3
TORSDOF 7
ENDMDL
MODEL       59
REMARK 921   NORMALIZED FREE ENERGY PREDICTED BY IDOCK:   -7.07 KCAL/MOL
REMARK 922        TOTAL FREE ENERGY PREDICTED BY IDOCK:  -11.89 KCAL/MOL
REMARK 923 INTER-LIGAND FREE ENERGY PREDICTED BY IDOCK:  -10.24 KCAL/MOL
REMARK 924 INTRA-LIGAND FREE ENERGY PREDICTED BY IDOCK:   -1.65 KCAL/MOL
REMARK 927      BINDING AFFINITY PREDICTED BY RF-SCORE:    0.00 PKD
ROOT
HETATM    1  C   UNL     1      -7.504   2.080  66.593  1.00  0.00    -0.065 C  
HETATM    2  O   UNL     1      -8.347   2.259  67.728  1.00  0.00    -0.063 OA 
ENDROOT
BRANCH   2   3
HETATM    3  C   UNL     1      -8.787   3.542  67.933  1.00  0.00    -0.120 A  
HETATM    4  C   UNL     1      -8.453   4.100  69.165  1.00  0.00    -0.077 A  
HETATM    5  C   UNL     1      -8.856   5.388  69.512  1.00  0.00    -0.118 A  
HETATM    6  O   UNL     1      -7.732   3.380  70.080  1.00  0.00    -0.044 OA 
HETATM    7  C   UNL     1      -9.599   6.180  68.613  1.00  0.00    -0.138 A  
HETATM    8  H   UNL     1      -7.504   3.760  70.919  1.00  0.00     0.000 HD 
HETATM    9  C   UNL     1      -9.909   5.620  67.363  1.00  0.00    -0.160 A  
HETATM   10  C   UNL     1      -9.503   4.316  67.023  1.00  0.00    -0.205 A  
BRANCH   7  11
HETATM   11  C   UNL     1     -10.052   7.549  68.985  1.00  0.00    -0.192 C  
HETATM   12  C   UNL     1     -10.101   7.914  70.275  1.00  0.00    -0.196 C  
HETATM   13  C   UNL     1     -10.640   9.226  70.635  1.00  0.00    -0.262 C  
HETATM   14  O   UNL     1     -10.707   9.586  71.800  1.00  0.00    -0.264 OA 
HETATM   15  C   UNL     1     -11.110  10.078  69.544  1.00  0.00    -0.279 A  
HETATM   16  C   UNL     1     -11.708  11.307  69.807  1.00  0.00    -0.349 A  
HETATM   17  C   UNL     1     -12.108  12.139  68.767  1.00  0.00    -0.166 A  
HETATM   18  O   UNL     1     -11.917  11.783  71.072  1.00  0.00    -0.348 OA 
HETATM   19  C   UNL     1     -11.899  11.758  67.445  1.00  0.00    -0.135 A  
HETATM   20  H   UNL     1     -12.325  12.622  71.251  1.00  0.00     0.000 HD 
HETATM   21  C   UNL     1     -11.315  10.498  67.180  1.00  0.00     0.024 A  
HETATM   22  C   UNL     1     -10.942   9.640  68.233  1.00  0.00    -0.121 A  
HETATM   23  O   UNL     1     -10.411   8.396  67.928  1.00  0.00    -0.211 OA 
BRANCH  19  24
HETATM   24  O   UNL     1     -12.123  12.566  66.363  1.00  0.00    -0.576 OA 
BRANCH  24  25
HETATM   25  C   UNL     1     -11.233  13.673  66.049  1.00  0.00    -0.296 C  
HETATM   26  O   UNL     1     -10.682  14.353  67.188  1.00  0.00    -0.278 OA 
HETATM   27  C   UNL     1      -9.805  15.446  66.892  1.00  0.00    -0.244 C  
HETATM   28  H   UNL     1     -12.035  16.379  63.142  1.00  0.00     0.000 HD 
HETATM   29  C   UNL     1     -10.513  16.467  65.977  1.00  0.00    -0.323 C  
HETATM   30  O   UNL     1     -12.243  13.899  63.817  1.00  0.00    -0.746 OA 
HETATM   31  C   UNL     1     -11.017  15.806  64.708  1.00  0.00    -0.393 C  
HETATM   32  O   UNL     1      -9.713  17.584  65.555  1.00  0.00    -0.449 OA 
HETATM   33  H   UNL     1     -10.148  18.212  64.992  1.00  0.00     0.000 HD 
HETATM   34  H   UNL     1     -12.663  14.475  63.191  1.00  0.00     0.000 HD 
HETATM   35  O   UNL     1     -11.719  16.793  63.938  1.00  0.00    -1.076 OA 
HETATM   36  C   UNL     1     -11.920  14.614  65.026  1.00  0.00    -0.364 C  
BRANCH  27  37
HETATM   37  C   UNL     1      -9.447  16.247  68.163  1.00  0.00    -0.215 C  
BRANCH  37  38
HETATM   38  O   UNL     1      -8.791  15.563  69.222  1.00  0.00    -0.228 OA 
BRANCH  38  39
HETATM   39  C   UNL     1      -7.959  14.491  68.697  1.00  0.00    -0.145 C  
HETATM   40  C   UNL     1      -7.909  12.069  68.455  1.00  0.00    -0.129 C  
HETATM   41  O   UNL     1      -8.618  13.235  68.884  1.00  0.00     0.066 OA 
HETATM   42  C   UNL     1      -6.482  11.997  69.032  1.00  0.00    -0.091 C  
HETATM   43  C   UNL     1      -7.967  11.915  66.939  1.00  0.00    -0.132 C  
HETATM   44  O   UNL     1      -6.548  11.789  70.454  1.00  0.00    -0.503 OA 
HETATM   45  C   UNL     1      -5.706  13.291  68.790  1.00  0.00    -0.074 C  
HETATM   46  O   UNL     1      -5.326  13.435  67.418  1.00  0.00    -0.337 OA 
HETATM   47  C   UNL     1      -6.517  14.492  69.293  1.00  0.00    -0.123 C  
HETATM   48  H   UNL     1      -5.668  11.745  70.810  1.00  0.00     0.000 HD 
HETATM   49  H   UNL     1      -4.843  14.239  67.267  1.00  0.00     0.000 HD 
HETATM   50  O   UNL     1      -5.840  15.721  68.989  1.00  0.00    -0.103 OA 
HETATM   51  H   UNL     1      -4.962  15.722  69.352  1.00  0.00     0.000 HD 
ENDBRANCH  38  39
ENDBRANCH  37  38
ENDBRANCH  27  37
ENDBRANCH  24  25
ENDBRANCH  19  24
ENDBRANCH   7  11
ENDBRANCH   2   3
TORSDOF 7
ENDMDL
MODEL       60
REMARK 921   NORMALIZED FREE ENERGY PREDICTED BY IDOCK:   -6.93 KCAL/MOL
REMARK 922        TOTAL FREE ENERGY PREDICTED BY IDOCK:  -11.70 KCAL/MOL
REMARK 923 INTER-LIGAND FREE ENERGY PREDICTED BY IDOCK:   -8.74 KCAL/MOL
REMARK 924 INTRA-LIGAND FREE ENERGY PREDICTED BY IDOCK:   -2.95 KCAL/MOL
REMARK 927      BINDING AFFINITY PREDICTED BY RF-SCORE:    0.00 PKD
ROOT
HETATM    1  C   UNL     1     -13.002  15.946  72.473  1.00  0.00    -0.452 C  
HETATM    2  O   UNL     1     -13.692  15.170  71.497  1.00  0.00    -0.418 OA 
ENDROOT
BRANCH   2   3
HETATM    3  C   UNL     1     -12.902  14.340  70.745  1.00  0.00    -0.337 A  
HETATM    4  C   UNL     1     -12.888  13.005  71.141  1.00  0.00    -0.245 A  
HETATM    5  C   UNL     1     -12.109  12.058  70.477  1.00  0.00    -0.402 A  
HETATM    6  O   UNL     1     -13.627  12.593  72.217  1.00  0.00    -0.547 OA 
HETATM    7  C   UNL     1     -11.327  12.419  69.361  1.00  0.00    -0.286 A  
HETATM    8  H   UNL     1     -13.617  11.683  72.488  1.00  0.00     0.000 HD 
HETATM    9  C   UNL     1     -11.368  13.761  68.952  1.00  0.00    -0.328 A  
HETATM   10  C   UNL     1     -12.151  14.713  69.632  1.00  0.00    -0.355 A  
BRANCH   7  11
HETATM   11  C   UNL     1     -10.476  11.419  68.661  1.00  0.00    -0.201 C  
HETATM   12  C   UNL     1      -9.218  11.731  68.312  1.00  0.00    -0.188 C  
HETATM   13  C   UNL     1      -8.424  10.775  67.539  1.00  0.00    -0.119 C  
HETATM   14  O   UNL     1      -7.279  11.031  67.199  1.00  0.00    -0.099 OA 
HETATM   15  C   UNL     1      -9.064   9.512  67.177  1.00  0.00    -0.152 A  
HETATM   16  C   UNL     1      -8.406   8.583  66.376  1.00  0.00    -0.114 A  
HETATM   17  C   UNL     1      -8.995   7.361  66.075  1.00  0.00    -0.156 A  
HETATM   18  O   UNL     1      -7.155   8.791  65.862  1.00  0.00    -0.081 OA 
HETATM   19  C   UNL     1     -10.250   7.042  66.587  1.00  0.00    -0.148 A  
HETATM   20  H   UNL     1      -6.706   8.157  65.316  1.00  0.00     0.000 HD 
HETATM   21  C   UNL     1     -10.928   7.998  67.379  1.00  0.00     0.029 A  
HETATM   22  C   UNL     1     -10.346   9.250  67.655  1.00  0.00    -0.253 A  
HETATM   23  O   UNL     1     -11.063  10.173  68.401  1.00  0.00    -0.250 OA 
BRANCH  19  24
HETATM   24  O   UNL     1     -10.845   5.816  66.468  1.00  0.00    -0.276 OA 
BRANCH  24  25
HETATM   25  C   UNL     1     -10.410   4.684  67.270  1.00  0.00     0.007 C  
HETATM   26  O   UNL     1      -9.989   5.008  68.605  1.00  0.00    -0.160 OA 
HETATM   27  C   UNL     1      -9.557   3.902  69.405  1.00  0.00    -0.169 C  
HETATM   28  H   UNL     1      -8.043   1.738  65.809  1.00  0.00     0.000 HD 
HETATM   29  C   UNL     1      -8.431   3.129  68.686  1.00  0.00    -0.075 C  
HETATM   30  O   UNL     1      -9.952   3.374  65.239  1.00  0.00    -0.366 OA 
HETATM   31  C   UNL     1      -8.875   2.674  67.309  1.00  0.00    -0.139 C  
HETATM   32  O   UNL     1      -7.953   1.954  69.360  1.00  0.00    -0.045 OA 
HETATM   33  H   UNL     1      -7.260   1.479  68.917  1.00  0.00     0.000 HD 
HETATM   34  H   UNL     1      -9.319   2.864  64.749  1.00  0.00     0.000 HD 
HETATM   35  O   UNL     1      -7.764   2.024  66.672  1.00  0.00    -0.065 OA 
HETATM   36  C   UNL     1      -9.375   3.851  66.470  1.00  0.00    -0.186 C  
BRANCH  27  37
HETATM   37  C   UNL     1      -8.918   4.373  70.729  1.00  0.00    -0.104 C  
BRANCH  37  38
HETATM   38  O   UNL     1      -7.759   5.194  70.659  1.00  0.00    -0.075 OA 
BRANCH  38  39
HETATM   39  C   UNL     1      -8.023   6.498  71.247  1.00  0.00    -0.108 C  
HETATM   40  C   UNL     1      -9.573   7.629  72.745  1.00  0.00    -0.198 C  
HETATM   41  O   UNL     1      -9.156   6.413  72.116  1.00  0.00    -0.141 OA 
HETATM   42  C   UNL     1      -9.776   8.778  71.739  1.00  0.00    -0.310 C  
HETATM   43  C   UNL     1      -8.659   7.988  73.912  1.00  0.00    -0.324 C  
HETATM   44  O   UNL     1     -10.904   8.487  70.897  1.00  0.00    -0.219 OA 
HETATM   45  C   UNL     1      -8.558   8.962  70.834  1.00  0.00    -0.199 C  
HETATM   46  O   UNL     1      -7.456   9.544  71.536  1.00  0.00    -0.303 OA 
HETATM   47  C   UNL     1      -8.184   7.625  70.180  1.00  0.00    -0.124 C  
HETATM   48  H   UNL     1     -11.029   9.196  70.276  1.00  0.00     0.000 HD 
HETATM   49  H   UNL     1      -6.698   9.658  70.974  1.00  0.00     0.000 HD 
HETATM   50  O   UNL     1      -6.987   7.763  69.399  1.00  0.00    -0.059 OA 
HETATM   51  H   UNL     1      -7.085   8.449  68.750  1.00  0.00     0.000 HD 
ENDBRANCH  38  39
ENDBRANCH  37  38
ENDBRANCH  27  37
ENDBRANCH  24  25
ENDBRANCH  19  24
ENDBRANCH   7  11
ENDBRANCH   2   3
TORSDOF 7
ENDMDL
MODEL       61
REMARK 921   NORMALIZED FREE ENERGY PREDICTED BY IDOCK:   -6.92 KCAL/MOL
REMARK 922        TOTAL FREE ENERGY PREDICTED BY IDOCK:  -11.69 KCAL/MOL
REMARK 923 INTER-LIGAND FREE ENERGY PREDICTED BY IDOCK:  -10.16 KCAL/MOL
REMARK 924 INTRA-LIGAND FREE ENERGY PREDICTED BY IDOCK:   -1.53 KCAL/MOL
REMARK 927      BINDING AFFINITY PREDICTED BY RF-SCORE:    0.00 PKD
ROOT
HETATM    1  C   UNL     1     -10.934   2.328  62.753  1.00  0.00    -0.221 C  
HETATM    2  O   UNL     1      -9.628   2.643  63.229  1.00  0.00    -0.094 OA 
ENDROOT
BRANCH   2   3
HETATM    3  C   UNL     1      -9.551   3.746  64.040  1.00  0.00    -0.160 A  
HETATM    4  C   UNL     1      -8.488   4.608  63.781  1.00  0.00    -0.126 A  
HETATM    5  C   UNL     1      -8.280   5.754  64.545  1.00  0.00    -0.122 A  
HETATM    6  O   UNL     1      -7.602   4.333  62.773  1.00  0.00    -0.052 OA 
HETATM    7  C   UNL     1      -9.157   6.093  65.595  1.00  0.00    -0.005 A  
HETATM    8  H   UNL     1      -6.878   4.921  62.597  1.00  0.00     0.000 HD 
HETATM    9  C   UNL     1     -10.241   5.233  65.833  1.00  0.00    -0.098 A  
HETATM   10  C   UNL     1     -10.441   4.073  65.061  1.00  0.00    -0.152 A  
BRANCH   7  11
HETATM   11  C   UNL     1      -8.929   7.304  66.430  1.00  0.00    -0.158 C  
HETATM   12  C   UNL     1      -7.711   7.553  66.937  1.00  0.00    -0.110 C  
HETATM   13  C   UNL     1      -7.521   8.692  67.835  1.00  0.00    -0.097 C  
HETATM   14  O   UNL     1      -6.428   8.941  68.320  1.00  0.00    -0.058 OA 
HETATM   15  C   UNL     1      -8.695   9.507  68.140  1.00  0.00    -0.120 A  
HETATM   16  C   UNL     1      -8.616  10.560  69.046  1.00  0.00    -0.157 A  
HETATM   17  C   UNL     1      -9.721  11.366  69.297  1.00  0.00     0.183 A  
HETATM   18  O   UNL     1      -7.470  10.885  69.719  1.00  0.00    -0.329 OA 
HETATM   19  C   UNL     1     -10.921  11.139  68.629  1.00  0.00    -0.220 A  
HETATM   20  H   UNL     1      -7.416  11.604  70.337  1.00  0.00     0.000 HD 
HETATM   21  C   UNL     1     -11.006  10.052  67.728  1.00  0.00    -0.310 A  
HETATM   22  C   UNL     1      -9.897   9.214  67.501  1.00  0.00    -0.177 A  
HETATM   23  O   UNL     1     -10.037   8.136  66.641  1.00  0.00    -0.270 OA 
BRANCH  19  24
HETATM   24  O   UNL     1     -12.013  11.961  68.698  1.00  0.00    -0.316 OA 
BRANCH  24  25
HETATM   25  C   UNL     1     -11.867  13.407  68.753  1.00  0.00    -0.351 C  
HETATM   26  O   UNL     1     -10.675  13.924  68.140  1.00  0.00    -0.240 OA 
HETATM   27  C   UNL     1     -10.520  15.346  68.188  1.00  0.00    -0.247 C  
HETATM   28  H   UNL     1     -12.703  15.574  72.072  1.00  0.00     0.000 HD 
HETATM   29  C   UNL     1     -10.605  15.844  69.646  1.00  0.00    -0.301 C  
HETATM   30  O   UNL     1     -13.401  13.525  70.672  1.00  0.00     0.063 OA 
HETATM   31  C   UNL     1     -11.904  15.409  70.297  1.00  0.00    -0.338 C  
HETATM   32  O   UNL     1     -10.527  17.268  69.823  1.00  0.00    -0.231 OA 
HETATM   33  H   UNL     1     -10.579  17.575  70.720  1.00  0.00     0.000 HD 
HETATM   34  H   UNL     1     -13.536  13.823  71.564  1.00  0.00     0.000 HD 
HETATM   35  O   UNL     1     -11.889  15.847  71.664  1.00  0.00    -0.408 OA 
HETATM   36  C   UNL     1     -12.088  13.894  70.208  1.00  0.00    -0.353 C  
BRANCH  27  37
HETATM   37  C   UNL     1      -9.117  15.781  67.711  1.00  0.00    -0.188 C  
BRANCH  37  38
HETATM   38  O   UNL     1      -8.997  16.343  66.411  1.00  0.00    -0.251 OA 
BRANCH  38  39
HETATM   39  C   UNL     1      -9.004  17.796  66.483  1.00  0.00    -0.261 C  
HETATM   40  C   UNL     1      -8.311  19.632  67.925  1.00  0.00    -0.313 C  
HETATM   41  O   UNL     1      -8.352  18.222  67.684  1.00  0.00    -0.243 OA 
HETATM   42  C   UNL     1      -9.700  20.291  67.827  1.00  0.00    -0.382 C  
HETATM   43  C   UNL     1      -7.248  20.307  67.065  1.00  0.00    -0.315 C  
HETATM   44  O   UNL     1     -10.526  19.836  68.912  1.00  0.00    -0.571 OA 
HETATM   45  C   UNL     1     -10.409  19.929  66.523  1.00  0.00    -0.488 C  
HETATM   46  O   UNL     1      -9.827  20.594  65.398  1.00  0.00    -0.439 OA 
HETATM   47  C   UNL     1     -10.433  18.406  66.343  1.00  0.00    -0.383 C  
HETATM   48  H   UNL     1     -11.383  20.242  68.852  1.00  0.00     0.000 HD 
HETATM   49  H   UNL     1     -10.268  20.370  64.587  1.00  0.00     0.000 HD 
HETATM   50  O   UNL     1     -11.015  18.056  65.078  1.00  0.00    -0.748 OA 
HETATM   51  H   UNL     1     -11.886  18.427  64.993  1.00  0.00     0.000 HD 
ENDBRANCH  38  39
ENDBRANCH  37  38
ENDBRANCH  27  37
ENDBRANCH  24  25
ENDBRANCH  19  24
ENDBRANCH   7  11
ENDBRANCH   2   3
TORSDOF 7
ENDMDL
MODEL       62
REMARK 921   NORMALIZED FREE ENERGY PREDICTED BY IDOCK:   -6.75 KCAL/MOL
REMARK 922        TOTAL FREE ENERGY PREDICTED BY IDOCK:  -11.44 KCAL/MOL
REMARK 923 INTER-LIGAND FREE ENERGY PREDICTED BY IDOCK:  -10.65 KCAL/MOL
REMARK 924 INTRA-LIGAND FREE ENERGY PREDICTED BY IDOCK:   -0.79 KCAL/MOL
REMARK 927      BINDING AFFINITY PREDICTED BY RF-SCORE:    0.00 PKD
ROOT
HETATM    1  C   UNL     1      -6.795   2.615  64.814  1.00  0.00    -0.044 C  
HETATM    2  O   UNL     1      -6.128   3.825  65.162  1.00  0.00    -0.022 OA 
ENDROOT
BRANCH   2   3
HETATM    3  C   UNL     1      -6.942   4.920  65.309  1.00  0.00    -0.062 A  
HETATM    4  C   UNL     1      -6.596   6.031  64.545  1.00  0.00    -0.038 A  
HETATM    5  C   UNL     1      -7.324   7.217  64.615  1.00  0.00    -0.079 A  
HETATM    6  O   UNL     1      -5.506   5.991  63.716  1.00  0.00    -0.017 OA 
HETATM    7  C   UNL     1      -8.457   7.321  65.449  1.00  0.00    -0.096 A  
HETATM    8  H   UNL     1      -5.270   6.749  63.195  1.00  0.00     0.000 HD 
HETATM    9  C   UNL     1      -8.815   6.188  66.195  1.00  0.00    -0.158 A  
HETATM   10  C   UNL     1      -8.069   4.996  66.123  1.00  0.00    -0.108 A  
BRANCH   7  11
HETATM   11  C   UNL     1      -9.227   8.591  65.546  1.00  0.00    -0.041 C  
HETATM   12  C   UNL     1      -9.379   9.371  64.465  1.00  0.00    -0.072 C  
HETATM   13  C   UNL     1     -10.055  10.663  64.595  1.00  0.00    -0.349 C  
HETATM   14  O   UNL     1     -10.201  11.401  63.632  1.00  0.00    -0.318 OA 
HETATM   15  C   UNL     1     -10.528  11.039  65.925  1.00  0.00    -0.300 A  
HETATM   16  C   UNL     1     -11.110  12.284  66.149  1.00  0.00    -0.311 A  
HETATM   17  C   UNL     1     -11.607  12.621  67.403  1.00  0.00    -0.421 A  
HETATM   18  O   UNL     1     -11.254  13.230  65.172  1.00  0.00    -0.295 OA 
HETATM   19  C   UNL     1     -11.543  11.706  68.451  1.00  0.00    -0.312 A  
HETATM   20  H   UNL     1     -11.651  14.079  65.324  1.00  0.00     0.000 HD 
HETATM   21  C   UNL     1     -10.928  10.452  68.228  1.00  0.00    -0.321 A  
HETATM   22  C   UNL     1     -10.394  10.125  66.967  1.00  0.00    -0.244 A  
HETATM   23  O   UNL     1      -9.763   8.901  66.804  1.00  0.00    -0.179 OA 
BRANCH  19  24
HETATM   24  O   UNL     1     -12.132  11.888  69.673  1.00  0.00    -0.286 OA 
BRANCH  24  25
HETATM   25  C   UNL     1     -12.372  13.220  70.205  1.00  0.00    -0.264 C  
HETATM   26  O   UNL     1     -11.494  14.243  69.708  1.00  0.00    -0.259 OA 
HETATM   27  C   UNL     1     -11.720  15.559  70.224  1.00  0.00    -0.346 C  
HETATM   28  H   UNL     1     -13.137  13.916  74.122  1.00  0.00     0.000 HD 
HETATM   29  C   UNL     1     -11.668  15.544  71.766  1.00  0.00    -0.432 C  
HETATM   30  O   UNL     1     -13.504  12.270  72.172  1.00  0.00    -0.509 OA 
HETATM   31  C   UNL     1     -12.662  14.550  72.336  1.00  0.00    -0.333 C  
HETATM   32  O   UNL     1     -11.944  16.799  72.411  1.00  0.00    -0.554 OA 
HETATM   33  H   UNL     1     -11.912  16.789  73.360  1.00  0.00     0.000 HD 
HETATM   34  H   UNL     1     -13.549  12.229  73.119  1.00  0.00     0.000 HD 
HETATM   35  O   UNL     1     -12.514  14.539  73.765  1.00  0.00    -0.413 OA 
HETATM   36  C   UNL     1     -12.446  13.154  71.753  1.00  0.00     0.056 C  
BRANCH  27  37
HETATM   37  C   UNL     1     -10.597  16.534  69.808  1.00  0.00    -0.265 C  
BRANCH  37  38
HETATM   38  O   UNL     1      -9.953  16.319  68.559  1.00  0.00    -0.220 OA 
BRANCH  38  39
HETATM   39  C   UNL     1      -9.303  17.539  68.106  1.00  0.00    -0.276 C  
HETATM   40  C   UNL     1      -9.237  19.066  66.211  1.00  0.00    -0.292 C  
HETATM   41  O   UNL     1      -9.808  17.903  66.817  1.00  0.00    -0.302 OA 
HETATM   42  C   UNL     1      -7.698  19.018  66.170  1.00  0.00    -0.271 C  
HETATM   43  C   UNL     1      -9.796  20.342  66.831  1.00  0.00    -0.572 C  
HETATM   44  O   UNL     1      -7.272  17.983  65.268  1.00  0.00    -0.409 OA 
HETATM   45  C   UNL     1      -7.103  18.708  67.543  1.00  0.00    -0.207 C  
HETATM   46  O   UNL     1      -7.214  19.821  68.435  1.00  0.00    -0.302 OA 
HETATM   47  C   UNL     1      -7.747  17.441  68.120  1.00  0.00    -0.221 C  
HETATM   48  H   UNL     1      -6.323  17.953  65.243  1.00  0.00     0.000 HD 
HETATM   49  H   UNL     1      -6.844  19.628  69.289  1.00  0.00     0.000 HD 
HETATM   50  O   UNL     1      -7.263  17.188  69.448  1.00  0.00    -0.190 OA 
HETATM   51  H   UNL     1      -6.315  17.128  69.457  1.00  0.00     0.000 HD 
ENDBRANCH  38  39
ENDBRANCH  37  38
ENDBRANCH  27  37
ENDBRANCH  24  25
ENDBRANCH  19  24
ENDBRANCH   7  11
ENDBRANCH   2   3
TORSDOF 7
ENDMDL
MODEL       63
REMARK 921   NORMALIZED FREE ENERGY PREDICTED BY IDOCK:   -6.69 KCAL/MOL
REMARK 922        TOTAL FREE ENERGY PREDICTED BY IDOCK:  -11.36 KCAL/MOL
REMARK 923 INTER-LIGAND FREE ENERGY PREDICTED BY IDOCK:  -10.14 KCAL/MOL
REMARK 924 INTRA-LIGAND FREE ENERGY PREDICTED BY IDOCK:   -1.22 KCAL/MOL
REMARK 927      BINDING AFFINITY PREDICTED BY RF-SCORE:    0.00 PKD
ROOT
HETATM    1  C   UNL     1      -9.788   1.518  70.198  1.00  0.00     0.134 C  
HETATM    2  O   UNL     1      -8.892   1.470  69.091  1.00  0.00    -0.059 OA 
ENDROOT
BRANCH   2   3
HETATM    3  C   UNL     1      -8.659   2.672  68.474  1.00  0.00    -0.079 A  
HETATM    4  C   UNL     1      -7.549   3.377  68.934  1.00  0.00    -0.052 A  
HETATM    5  C   UNL     1      -7.211   4.622  68.409  1.00  0.00    -0.064 A  
HETATM    6  O   UNL     1      -6.770   2.866  69.937  1.00  0.00    -0.033 OA 
HETATM    7  C   UNL     1      -7.972   5.202  67.373  1.00  0.00    -0.100 A  
HETATM    8  H   UNL     1      -6.013   3.346  70.251  1.00  0.00     0.000 HD 
HETATM    9  C   UNL     1      -9.074   4.473  66.897  1.00  0.00    -0.130 A  
HETATM   10  C   UNL     1      -9.412   3.218  67.438  1.00  0.00    -0.198 A  
BRANCH   7  11
HETATM   11  C   UNL     1      -7.630   6.542  66.822  1.00  0.00    -0.091 C  
HETATM   12  C   UNL     1      -6.529   6.701  66.072  1.00  0.00    -0.043 C  
HETATM   13  C   UNL     1      -6.151   8.040  65.618  1.00  0.00    -0.038 C  
HETATM   14  O   UNL     1      -5.150   8.220  64.941  1.00  0.00    -0.034 OA 
HETATM   15  C   UNL     1      -7.010   9.150  66.022  1.00  0.00    -0.085 A  
HETATM   16  C   UNL     1      -6.678  10.463  65.698  1.00  0.00    -0.127 A  
HETATM   17  C   UNL     1      -7.522  11.514  66.039  1.00  0.00     0.308 A  
HETATM   18  O   UNL     1      -5.541  10.801  65.018  1.00  0.00    -0.243 OA 
HETATM   19  C   UNL     1      -8.723  11.263  66.697  1.00  0.00    -0.174 A  
HETATM   20  H   UNL     1      -5.314  11.697  64.797  1.00  0.00     0.000 HD 
HETATM   21  C   UNL     1      -9.046   9.932  67.048  1.00  0.00    -0.156 A  
HETATM   22  C   UNL     1      -8.174   8.872  66.734  1.00  0.00    -0.111 A  
HETATM   23  O   UNL     1      -8.511   7.587  67.133  1.00  0.00    -0.119 OA 
BRANCH  19  24
HETATM   24  O   UNL     1      -9.682  12.208  66.943  1.00  0.00    -0.199 OA 
BRANCH  24  25
HETATM   25  C   UNL     1      -9.905  13.315  66.026  1.00  0.00    -0.263 C  
HETATM   26  O   UNL     1     -10.000  14.609  66.644  1.00  0.00    -0.258 OA 
HETATM   27  C   UNL     1     -10.220  15.707  65.752  1.00  0.00    -0.367 C  
HETATM   28  H   UNL     1     -12.523  13.120  62.940  1.00  0.00     0.000 HD 
HETATM   29  C   UNL     1     -11.477  15.455  64.893  1.00  0.00    -0.311 C  
HETATM   30  O   UNL     1     -10.819  11.779  64.336  1.00  0.00    -0.297 OA 
HETATM   31  C   UNL     1     -11.368  14.144  64.137  1.00  0.00    -0.102 C  
HETATM   32  O   UNL     1     -11.771  16.460  63.909  1.00  0.00    -1.504 OA 
HETATM   33  H   UNL     1     -12.544  16.305  63.380  1.00  0.00     0.000 HD 
HETATM   34  H   UNL     1     -11.546  11.573  63.761  1.00  0.00     0.000 HD 
HETATM   35  O   UNL     1     -12.592  13.941  63.414  1.00  0.00    -0.853 OA 
HETATM   36  C   UNL     1     -11.092  12.979  65.087  1.00  0.00    -0.292 C  
BRANCH  27  37
HETATM   37  C   UNL     1     -10.531  17.010  66.520  1.00  0.00    -0.250 C  
BRANCH  37  38
HETATM   38  O   UNL     1     -10.449  18.240  65.812  1.00  0.00    -0.589 OA 
BRANCH  38  39
HETATM   39  C   UNL     1      -9.196  18.916  66.111  1.00  0.00    -0.176 C  
HETATM   40  C   UNL     1      -6.786  18.580  66.021  1.00  0.00    -0.268 C  
HETATM   41  O   UNL     1      -8.097  18.074  65.750  1.00  0.00    -0.525 OA 
HETATM   42  C   UNL     1      -6.622  19.053  67.478  1.00  0.00    -0.195 C  
HETATM   43  C   UNL     1      -6.374  19.622  64.986  1.00  0.00    -0.315 C  
HETATM   44  O   UNL     1      -6.682  17.920  68.361  1.00  0.00    -0.204 OA 
HETATM   45  C   UNL     1      -7.732  20.019  67.890  1.00  0.00    -0.280 C  
HETATM   46  O   UNL     1      -7.575  21.302  67.277  1.00  0.00    -0.699 OA 
HETATM   47  C   UNL     1      -9.104  19.401  67.590  1.00  0.00    -0.303 C  
HETATM   48  H   UNL     1      -6.580  18.211  69.260  1.00  0.00     0.000 HD 
HETATM   49  H   UNL     1      -8.265  21.904  67.533  1.00  0.00     0.000 HD 
HETATM   50  O   UNL     1     -10.154  20.334  67.888  1.00  0.00    -0.396 OA 
HETATM   51  H   UNL     1     -10.097  20.630  68.789  1.00  0.00     0.000 HD 
ENDBRANCH  38  39
ENDBRANCH  37  38
ENDBRANCH  27  37
ENDBRANCH  24  25
ENDBRANCH  19  24
ENDBRANCH   7  11
ENDBRANCH   2   3
TORSDOF 7
ENDMDL
MODEL       64
REMARK 921   NORMALIZED FREE ENERGY PREDICTED BY IDOCK:   -6.67 KCAL/MOL
REMARK 922        TOTAL FREE ENERGY PREDICTED BY IDOCK:  -11.34 KCAL/MOL
REMARK 923 INTER-LIGAND FREE ENERGY PREDICTED BY IDOCK:   -9.85 KCAL/MOL
REMARK 924 INTRA-LIGAND FREE ENERGY PREDICTED BY IDOCK:   -1.48 KCAL/MOL
REMARK 927      BINDING AFFINITY PREDICTED BY RF-SCORE:    0.00 PKD
ROOT
HETATM    1  C   UNL     1      -8.848   1.469  66.694  1.00  0.00    -0.115 C  
HETATM    2  O   UNL     1      -9.766   2.419  66.158  1.00  0.00     0.230 OA 
ENDROOT
BRANCH   2   3
HETATM    3  C   UNL     1      -9.417   3.734  66.336  1.00  0.00    -0.183 A  
HETATM    4  C   UNL     1     -10.294   4.666  65.786  1.00  0.00    -0.264 A  
HETATM    5  C   UNL     1     -10.048   6.034  65.875  1.00  0.00     0.263 A  
HETATM    6  O   UNL     1     -11.416   4.253  65.119  1.00  0.00    -0.974 OA 
HETATM    7  C   UNL     1      -8.910   6.523  66.550  1.00  0.00    -0.142 A  
HETATM    8  H   UNL     1     -12.014   4.888  64.744  1.00  0.00     0.000 HD 
HETATM    9  C   UNL     1      -8.046   5.578  67.124  1.00  0.00    -0.101 A  
HETATM   10  C   UNL     1      -8.298   4.196  67.024  1.00  0.00    -0.100 A  
BRANCH   7  11
HETATM   11  C   UNL     1      -8.629   7.982  66.629  1.00  0.00    -0.136 C  
HETATM   12  C   UNL     1      -7.364   8.420  66.721  1.00  0.00    -0.083 C  
HETATM   13  C   UNL     1      -7.104   9.850  66.896  1.00  0.00    -0.090 C  
HETATM   14  O   UNL     1      -5.965  10.280  66.992  1.00  0.00    -0.050 OA 
HETATM   15  C   UNL     1      -8.264  10.736  66.971  1.00  0.00    -0.126 A  
HETATM   16  C   UNL     1      -8.107  12.097  67.216  1.00  0.00    -0.176 A  
HETATM   17  C   UNL     1      -9.207  12.947  67.235  1.00  0.00    -0.208 A  
HETATM   18  O   UNL     1      -6.889  12.684  67.424  1.00  0.00    -0.145 OA 
HETATM   19  C   UNL     1     -10.483  12.447  66.993  1.00  0.00    -0.220 A  
HETATM   20  H   UNL     1      -6.782  13.613  67.591  1.00  0.00     0.000 HD 
HETATM   21  C   UNL     1     -10.643  11.059  66.770  1.00  0.00    -0.317 A  
HETATM   22  C   UNL     1      -9.533  10.194  66.785  1.00  0.00    -0.168 A  
HETATM   23  O   UNL     1      -9.741   8.835  66.603  1.00  0.00    -0.198 OA 
BRANCH  19  24
HETATM   24  O   UNL     1     -11.602  13.221  66.847  1.00  0.00    -0.327 OA 
BRANCH  24  25
HETATM   25  C   UNL     1     -11.616  14.615  67.263  1.00  0.00    -0.387 C  
HETATM   26  O   UNL     1     -10.693  15.468  66.567  1.00  0.00    -0.306 OA 
HETATM   27  C   UNL     1     -10.696  16.842  66.968  1.00  0.00    -0.153 C  
HETATM   28  H   UNL     1     -11.804  15.747  71.148  1.00  0.00     0.000 HD 
HETATM   29  C   UNL     1     -10.456  16.957  68.487  1.00  0.00    -0.361 C  
HETATM   30  O   UNL     1     -12.600  13.996  69.431  1.00  0.00    -0.449 OA 
HETATM   31  C   UNL     1     -11.482  16.154  69.265  1.00  0.00    -0.304 C  
HETATM   32  O   UNL     1     -10.500  18.288  69.026  1.00  0.00    -0.440 OA 
HETATM   33  H   UNL     1     -10.352  18.359  69.961  1.00  0.00     0.000 HD 
HETATM   34  H   UNL     1     -12.532  14.045  70.377  1.00  0.00     0.000 HD 
HETATM   35  O   UNL     1     -11.161  16.250  70.661  1.00  0.00    -0.341 OA 
HETATM   36  C   UNL     1     -11.505  14.695  68.807  1.00  0.00    -0.296 C  
BRANCH  27  37
HETATM   37  C   UNL     1      -9.526  17.623  66.330  1.00  0.00    -0.259 C  
BRANCH  37  38
HETATM   38  O   UNL     1      -9.380  18.997  66.662  1.00  0.00    -0.307 OA 
BRANCH  38  39
HETATM   39  C   UNL     1      -7.980  19.388  66.601  1.00  0.00    -0.286 C  
HETATM   40  C   UNL     1      -6.018  19.217  65.169  1.00  0.00    -0.254 C  
HETATM   41  O   UNL     1      -7.409  18.945  65.366  1.00  0.00    -0.478 OA 
HETATM   42  C   UNL     1      -5.147  18.736  66.345  1.00  0.00    -0.141 C  
HETATM   43  C   UNL     1      -5.791  20.677  64.792  1.00  0.00    -0.288 C  
HETATM   44  O   UNL     1      -5.156  17.299  66.395  1.00  0.00    -0.189 OA 
HETATM   45  C   UNL     1      -5.671  19.248  67.686  1.00  0.00    -0.188 C  
HETATM   46  O   UNL     1      -5.425  20.648  67.854  1.00  0.00    -0.201 OA 
HETATM   47  C   UNL     1      -7.159  18.903  67.835  1.00  0.00    -0.234 C  
HETATM   48  H   UNL     1      -4.619  17.003  67.121  1.00  0.00     0.000 HD 
HETATM   49  H   UNL     1      -5.751  20.967  68.688  1.00  0.00     0.000 HD 
HETATM   50  O   UNL     1      -7.687  19.457  69.050  1.00  0.00    -0.362 OA 
HETATM   51  H   UNL     1      -7.186  19.162  69.802  1.00  0.00     0.000 HD 
ENDBRANCH  38  39
ENDBRANCH  37  38
ENDBRANCH  27  37
ENDBRANCH  24  25
ENDBRANCH  19  24
ENDBRANCH   7  11
ENDBRANCH   2   3
TORSDOF 7
ENDMDL
MODEL       65
REMARK 921   NORMALIZED FREE ENERGY PREDICTED BY IDOCK:   -6.59 KCAL/MOL
REMARK 922        TOTAL FREE ENERGY PREDICTED BY IDOCK:  -11.21 KCAL/MOL
REMARK 923 INTER-LIGAND FREE ENERGY PREDICTED BY IDOCK:   -9.36 KCAL/MOL
REMARK 924 INTRA-LIGAND FREE ENERGY PREDICTED BY IDOCK:   -1.85 KCAL/MOL
REMARK 927      BINDING AFFINITY PREDICTED BY RF-SCORE:    0.00 PKD
ROOT
HETATM    1  C   UNL     1     -12.400  15.268  64.565  1.00  0.00    -0.133 C  
HETATM    2  O   UNL     1     -12.920  13.975  64.858  1.00  0.00    -0.707 OA 
ENDROOT
BRANCH   2   3
HETATM    3  C   UNL     1     -12.039  12.937  64.691  1.00  0.00    -0.418 A  
HETATM    4  C   UNL     1     -11.648  12.288  65.859  1.00  0.00    -0.393 A  
HETATM    5  C   UNL     1     -10.740  11.231  65.834  1.00  0.00    -0.291 A  
HETATM    6  O   UNL     1     -12.136  12.691  67.073  1.00  0.00    -0.480 OA 
HETATM    7  C   UNL     1     -10.203  10.768  64.615  1.00  0.00    -0.419 A  
HETATM    8  H   UNL     1     -11.870  12.249  67.870  1.00  0.00     0.000 HD 
HETATM    9  C   UNL     1     -10.622  11.411  63.440  1.00  0.00    -0.435 A  
HETATM   10  C   UNL     1     -11.535  12.482  63.474  1.00  0.00    -0.570 A  
BRANCH   7  11
HETATM   11  C   UNL     1      -9.215   9.655  64.582  1.00  0.00    -0.234 C  
HETATM   12  C   UNL     1      -8.311   9.586  63.593  1.00  0.00    -0.176 C  
HETATM   13  C   UNL     1      -7.409   8.437  63.517  1.00  0.00    -0.107 C  
HETATM   14  O   UNL     1      -6.580   8.340  62.624  1.00  0.00    -0.086 OA 
HETATM   15  C   UNL     1      -7.553   7.404  64.540  1.00  0.00    -0.110 A  
HETATM   16  C   UNL     1      -6.788   6.243  64.494  1.00  0.00    -0.046 A  
HETATM   17  C   UNL     1      -6.889   5.285  65.497  1.00  0.00    -0.061 A  
HETATM   18  O   UNL     1      -5.888   5.978  63.499  1.00  0.00    -0.021 OA 
HETATM   19  C   UNL     1      -7.749   5.485  66.573  1.00  0.00    -0.100 A  
HETATM   20  H   UNL     1      -5.365   5.185  63.467  1.00  0.00     0.000 HD 
HETATM   21  C   UNL     1      -8.545   6.654  66.604  1.00  0.00    -0.123 A  
HETATM   22  C   UNL     1      -8.468   7.607  65.571  1.00  0.00    -0.120 A  
HETATM   23  O   UNL     1      -9.295   8.718  65.621  1.00  0.00    -0.214 OA 
BRANCH  19  24
HETATM   24  O   UNL     1      -7.811   4.675  67.674  1.00  0.00    -0.088 OA 
BRANCH  24  25
HETATM   25  C   UNL     1      -8.643   5.017  68.818  1.00  0.00    -0.086 C  
HETATM   26  O   UNL     1      -8.172   6.123  69.605  1.00  0.00    -0.113 OA 
HETATM   27  C   UNL     1      -8.982   6.470  70.733  1.00  0.00    -0.144 C  
HETATM   28  H   UNL     1     -10.254   2.228  71.275  1.00  0.00     0.000 HD 
HETATM   29  C   UNL     1      -9.183   5.241  71.644  1.00  0.00    -0.146 C  
HETATM   30  O   UNL     1      -9.614   2.757  68.834  1.00  0.00    -0.141 OA 
HETATM   31  C   UNL     1      -9.781   4.080  70.872  1.00  0.00    -0.187 C  
HETATM   32  O   UNL     1     -10.034   5.443  72.784  1.00  0.00    -0.166 OA 
HETATM   33  H   UNL     1     -10.158   4.687  73.345  1.00  0.00     0.000 HD 
HETATM   34  H   UNL     1      -9.794   1.974  69.340  1.00  0.00     0.000 HD 
HETATM   35  O   UNL     1      -9.879   2.955  71.759  1.00  0.00    -0.152 OA 
HETATM   36  C   UNL     1      -8.938   3.739  69.644  1.00  0.00    -0.108 C  
BRANCH  27  37
HETATM   37  C   UNL     1      -8.284   7.511  71.635  1.00  0.00    -0.103 C  
BRANCH  37  38
HETATM   38  O   UNL     1      -9.099   8.427  72.354  1.00  0.00    -0.217 OA 
BRANCH  38  39
HETATM   39  C   UNL     1      -9.871   9.249  71.435  1.00  0.00    -0.226 C  
HETATM   40  C   UNL     1     -12.007   9.302  70.267  1.00  0.00     0.105 C  
HETATM   41  O   UNL     1     -11.140   8.634  71.189  1.00  0.00    -0.242 OA 
HETATM   42  C   UNL     1     -11.316   9.623  68.928  1.00  0.00     0.126 C  
HETATM   43  C   UNL     1     -12.678  10.508  70.917  1.00  0.00    -0.495 C  
HETATM   44  O   UNL     1     -11.036   8.400  68.226  1.00  0.00    -0.433 OA 
HETATM   45  C   UNL     1      -9.989  10.352  69.134  1.00  0.00    -0.223 C  
HETATM   46  O   UNL     1     -10.185  11.706  69.552  1.00  0.00    -0.410 OA 
HETATM   47  C   UNL     1      -9.106   9.569  70.114  1.00  0.00    -0.240 C  
HETATM   48  H   UNL     1     -10.610   8.597  67.400  1.00  0.00     0.000 HD 
HETATM   49  H   UNL     1      -9.360  12.160  69.680  1.00  0.00     0.000 HD 
HETATM   50  O   UNL     1      -7.894  10.288  70.387  1.00  0.00    -0.427 OA 
HETATM   51  H   UNL     1      -7.428  10.482  69.583  1.00  0.00     0.000 HD 
ENDBRANCH  38  39
ENDBRANCH  37  38
ENDBRANCH  27  37
ENDBRANCH  24  25
ENDBRANCH  19  24
ENDBRANCH   7  11
ENDBRANCH   2   3
TORSDOF 7
ENDMDL
MODEL       66
REMARK 921   NORMALIZED FREE ENERGY PREDICTED BY IDOCK:   -6.53 KCAL/MOL
REMARK 922        TOTAL FREE ENERGY PREDICTED BY IDOCK:  -11.13 KCAL/MOL
REMARK 923 INTER-LIGAND FREE ENERGY PREDICTED BY IDOCK:   -8.43 KCAL/MOL
REMARK 924 INTRA-LIGAND FREE ENERGY PREDICTED BY IDOCK:   -2.70 KCAL/MOL
REMARK 927      BINDING AFFINITY PREDICTED BY RF-SCORE:    0.00 PKD
ROOT
HETATM    1  C   UNL     1     -10.774  19.135  67.130  1.00  0.00    -0.471 C  
HETATM    2  O   UNL     1     -10.574  18.222  66.054  1.00  0.00    -0.419 OA 
ENDROOT
BRANCH   2   3
HETATM    3  C   UNL     1     -10.145  16.972  66.421  1.00  0.00    -0.317 A  
HETATM    4  C   UNL     1      -8.773  16.756  66.322  1.00  0.00    -0.307 A  
HETATM    5  C   UNL     1      -8.207  15.523  66.641  1.00  0.00    -0.244 A  
HETATM    6  O   UNL     1      -7.944  17.754  65.884  1.00  0.00    -0.523 OA 
HETATM    7  C   UNL     1      -9.006  14.457  67.100  1.00  0.00    -0.245 A  
HETATM    8  H   UNL     1      -7.008  17.607  65.817  1.00  0.00     0.000 HD 
HETATM    9  C   UNL     1     -10.385  14.690  67.222  1.00  0.00    -0.256 A  
HETATM   10  C   UNL     1     -10.951  15.937  66.891  1.00  0.00    -0.172 A  
BRANCH   7  11
HETATM   11  C   UNL     1      -8.412  13.131  67.422  1.00  0.00    -0.201 C  
HETATM   12  C   UNL     1      -7.727  12.959  68.563  1.00  0.00    -0.109 C  
HETATM   13  C   UNL     1      -7.065  11.680  68.823  1.00  0.00    -0.106 C  
HETATM   14  O   UNL     1      -6.427  11.494  69.848  1.00  0.00    -0.140 OA 
HETATM   15  C   UNL     1      -7.185  10.644  67.799  1.00  0.00    -0.088 A  
HETATM   16  C   UNL     1      -6.521   9.429  67.933  1.00  0.00    -0.062 A  
HETATM   17  C   UNL     1      -6.677   8.425  66.984  1.00  0.00    -0.062 A  
HETATM   18  O   UNL     1      -5.708   9.133  68.993  1.00  0.00    -0.036 OA 
HETATM   19  C   UNL     1      -7.516   8.619  65.891  1.00  0.00    -0.085 A  
HETATM   20  H   UNL     1      -5.255   8.303  69.085  1.00  0.00     0.000 HD 
HETATM   21  C   UNL     1      -8.170   9.864  65.743  1.00  0.00    -0.125 A  
HETATM   22  C   UNL     1      -7.984  10.893  66.686  1.00  0.00    -0.148 A  
HETATM   23  O   UNL     1      -8.612  12.112  66.481  1.00  0.00    -0.165 OA 
BRANCH  19  24
HETATM   24  O   UNL     1      -7.847   7.645  64.987  1.00  0.00    -0.111 OA 
BRANCH  24  25
HETATM   25  C   UNL     1      -8.579   6.456  65.392  1.00  0.00    -0.081 C  
HETATM   26  O   UNL     1      -9.385   6.608  66.571  1.00  0.00    -0.157 OA 
HETATM   27  C   UNL     1     -10.112   5.444  66.980  1.00  0.00    -0.203 C  
HETATM   28  H   UNL     1      -6.938   2.752  65.373  1.00  0.00     0.000 HD 
HETATM   29  C   UNL     1      -9.150   4.252  67.166  1.00  0.00    -0.137 C  
HETATM   30  O   UNL     1      -7.009   5.023  64.154  1.00  0.00    -0.047 OA 
HETATM   31  C   UNL     1      -8.354   3.989  65.902  1.00  0.00    -0.109 C  
HETATM   32  O   UNL     1      -9.767   3.002  67.517  1.00  0.00    -0.339 OA 
HETATM   33  H   UNL     1      -9.175   2.269  67.631  1.00  0.00     0.000 HD 
HETATM   34  H   UNL     1      -6.416   4.282  64.186  1.00  0.00     0.000 HD 
HETATM   35  O   UNL     1      -7.436   2.917  66.165  1.00  0.00    -0.070 OA 
HETATM   36  C   UNL     1      -7.612   5.245  65.444  1.00  0.00    -0.082 C  
BRANCH  27  37
HETATM   37  C   UNL     1     -10.762   5.638  68.367  1.00  0.00    -0.156 C  
BRANCH  37  38
HETATM   38  O   UNL     1      -9.943   5.479  69.518  1.00  0.00    -0.174 OA 
BRANCH  38  39
HETATM   39  C   UNL     1      -9.969   6.685  70.331  1.00  0.00    -0.175 C  
HETATM   40  C   UNL     1     -11.404   8.572  70.887  1.00  0.00    -0.268 C  
HETATM   41  O   UNL     1     -11.232   7.340  70.180  1.00  0.00    -0.269 OA 
HETATM   42  C   UNL     1     -10.265   9.574  70.619  1.00  0.00    -0.297 C  
HETATM   43  C   UNL     1     -11.668   8.324  72.369  1.00  0.00    -0.463 C  
HETATM   44  O   UNL     1     -10.324  10.015  69.252  1.00  0.00    -0.192 OA 
HETATM   45  C   UNL     1      -8.890   8.944  70.842  1.00  0.00    -0.219 C  
HETATM   46  O   UNL     1      -8.616   8.744  72.232  1.00  0.00    -0.377 OA 
HETATM   47  C   UNL     1      -8.773   7.642  70.039  1.00  0.00    -0.142 C  
HETATM   48  H   UNL     1      -9.621  10.633  69.086  1.00  0.00     0.000 HD 
HETATM   49  H   UNL     1      -7.761   8.352  72.371  1.00  0.00     0.000 HD 
HETATM   50  O   UNL     1      -7.521   6.992  70.310  1.00  0.00    -0.082 OA 
HETATM   51  H   UNL     1      -6.793   7.575  70.132  1.00  0.00     0.000 HD 
ENDBRANCH  38  39
ENDBRANCH  37  38
ENDBRANCH  27  37
ENDBRANCH  24  25
ENDBRANCH  19  24
ENDBRANCH   7  11
ENDBRANCH   2   3
TORSDOF 7
ENDMDL
MODEL       67
REMARK 921   NORMALIZED FREE ENERGY PREDICTED BY IDOCK:   -6.49 KCAL/MOL
REMARK 922        TOTAL FREE ENERGY PREDICTED BY IDOCK:  -11.08 KCAL/MOL
REMARK 923 INTER-LIGAND FREE ENERGY PREDICTED BY IDOCK:   -9.72 KCAL/MOL
REMARK 924 INTRA-LIGAND FREE ENERGY PREDICTED BY IDOCK:   -1.36 KCAL/MOL
REMARK 927      BINDING AFFINITY PREDICTED BY RF-SCORE:    0.00 PKD
ROOT
HETATM    1  C   UNL     1      -9.923  20.429  69.753  1.00  0.00     0.503 C  
HETATM    2  O   UNL     1     -10.449  20.388  68.429  1.00  0.00    -0.254 OA 
ENDROOT
BRANCH   2   3
HETATM    3  C   UNL     1     -10.504  19.141  67.860  1.00  0.00    -0.399 A  
HETATM    4  C   UNL     1     -10.400  19.111  66.472  1.00  0.00    -0.442 A  
HETATM    5  C   UNL     1     -10.464  17.912  65.765  1.00  0.00    -0.196 A  
HETATM    6  O   UNL     1     -10.254  20.273  65.762  1.00  0.00    -0.525 OA 
HETATM    7  C   UNL     1     -10.611  16.682  66.438  1.00  0.00    -0.200 A  
HETATM    8  H   UNL     1     -10.183  20.253  64.815  1.00  0.00     0.000 HD 
HETATM    9  C   UNL     1     -10.689  16.719  67.839  1.00  0.00    -0.347 A  
HETATM   10  C   UNL     1     -10.631  17.935  68.545  1.00  0.00    -0.221 A  
BRANCH   7  11
HETATM   11  C   UNL     1     -10.702  15.399  65.688  1.00  0.00    -0.369 C  
HETATM   12  C   UNL     1     -11.537  15.288  64.643  1.00  0.00    -0.333 C  
HETATM   13  C   UNL     1     -11.690  13.995  63.974  1.00  0.00    -0.248 C  
HETATM   14  O   UNL     1     -12.448  13.858  63.026  1.00  0.00    -0.689 OA 
HETATM   15  C   UNL     1     -10.913  12.875  64.500  1.00  0.00    -0.377 A  
HETATM   16  C   UNL     1     -11.059  11.595  63.972  1.00  0.00    -0.384 A  
HETATM   17  C   UNL     1     -10.282  10.541  64.437  1.00  0.00    -0.337 A  
HETATM   18  O   UNL     1     -11.938  11.297  62.966  1.00  0.00    -0.863 OA 
HETATM   19  C   UNL     1      -9.332  10.756  65.431  1.00  0.00    -0.207 A  
HETATM   20  H   UNL     1     -12.037  10.424  62.605  1.00  0.00     0.000 HD 
HETATM   21  C   UNL     1      -9.202  12.051  65.984  1.00  0.00    -0.152 A  
HETATM   22  C   UNL     1     -10.014  13.111  65.537  1.00  0.00    -0.207 A  
HETATM   23  O   UNL     1      -9.882  14.355  66.136  1.00  0.00    -0.293 OA 
BRANCH  19  24
HETATM   24  O   UNL     1      -8.424   9.821  65.849  1.00  0.00    -0.124 OA 
BRANCH  24  25
HETATM   25  C   UNL     1      -8.827   8.454  66.138  1.00  0.00    -0.165 C  
HETATM   26  O   UNL     1      -9.517   8.271  67.385  1.00  0.00    -0.144 OA 
HETATM   27  C   UNL     1      -9.919   6.930  67.681  1.00  0.00    -0.144 C  
HETATM   28  H   UNL     1      -6.416   5.266  65.475  1.00  0.00     0.000 HD 
HETATM   29  C   UNL     1      -8.702   5.983  67.625  1.00  0.00    -0.104 C  
HETATM   30  O   UNL     1      -7.119   7.586  64.596  1.00  0.00    -0.059 OA 
HETATM   31  C   UNL     1      -8.007   6.066  66.279  1.00  0.00    -0.106 C  
HETATM   32  O   UNL     1      -8.985   4.591  67.842  1.00  0.00    -0.108 OA 
HETATM   33  H   UNL     1      -8.237   4.008  67.808  1.00  0.00     0.000 HD 
HETATM   34  H   UNL     1      -6.376   7.006  64.478  1.00  0.00     0.000 HD 
HETATM   35  O   UNL     1      -6.851   5.214  66.318  1.00  0.00    -0.056 OA 
HETATM   36  C   UNL     1      -7.615   7.505  65.946  1.00  0.00    -0.088 C  
BRANCH  27  37
HETATM   37  C   UNL     1     -10.445   6.799  69.127  1.00  0.00    -0.216 C  
BRANCH  37  38
HETATM   38  O   UNL     1     -10.565   5.496  69.681  1.00  0.00    -0.291 OA 
BRANCH  38  39
HETATM   39  C   UNL     1     -10.228   5.512  71.096  1.00  0.00    -0.222 C  
HETATM   40  C   UNL     1      -9.174   6.915  72.783  1.00  0.00    -0.134 C  
HETATM   41  O   UNL     1      -9.605   6.757  71.428  1.00  0.00    -0.168 OA 
HETATM   42  C   UNL     1      -8.291   5.748  73.265  1.00  0.00    -0.116 C  
HETATM   43  C   UNL     1     -10.351   7.217  73.705  1.00  0.00    -0.411 C  
HETATM   44  O   UNL     1      -7.039   5.768  72.559  1.00  0.00    -0.081 OA 
HETATM   45  C   UNL     1      -8.948   4.393  73.003  1.00  0.00    -0.116 C  
HETATM   46  O   UNL     1     -10.045   4.153  73.889  1.00  0.00    -0.128 OA 
HETATM   47  C   UNL     1      -9.363   4.288  71.530  1.00  0.00    -0.141 C  
HETATM   48  H   UNL     1      -6.494   5.049  72.856  1.00  0.00     0.000 HD 
HETATM   49  H   UNL     1     -10.453   3.311  73.726  1.00  0.00     0.000 HD 
HETATM   50  O   UNL     1     -10.063   3.058  71.289  1.00  0.00    -0.060 OA 
HETATM   51  H   UNL     1      -9.537   2.313  71.553  1.00  0.00     0.000 HD 
ENDBRANCH  38  39
ENDBRANCH  37  38
ENDBRANCH  27  37
ENDBRANCH  24  25
ENDBRANCH  19  24
ENDBRANCH   7  11
ENDBRANCH   2   3
TORSDOF 7
ENDMDL
MODEL       68
REMARK 921   NORMALIZED FREE ENERGY PREDICTED BY IDOCK:   -6.47 KCAL/MOL
REMARK 922        TOTAL FREE ENERGY PREDICTED BY IDOCK:  -11.05 KCAL/MOL
REMARK 923 INTER-LIGAND FREE ENERGY PREDICTED BY IDOCK:   -9.41 KCAL/MOL
REMARK 924 INTRA-LIGAND FREE ENERGY PREDICTED BY IDOCK:   -1.64 KCAL/MOL
REMARK 927      BINDING AFFINITY PREDICTED BY RF-SCORE:    0.00 PKD
ROOT
HETATM    1  C   UNL     1     -10.532   4.716  71.530  1.00  0.00    -0.032 C  
HETATM    2  O   UNL     1     -11.585   5.361  72.241  1.00  0.00    -0.170 OA 
ENDROOT
BRANCH   2   3
HETATM    3  C   UNL     1     -11.656   6.720  72.074  1.00  0.00    -0.291 A  
HETATM    4  C   UNL     1     -12.939   7.240  71.930  1.00  0.00    -0.250 A  
HETATM    5  C   UNL     1     -13.153   8.603  71.731  1.00  0.00    -0.396 A  
HETATM    6  O   UNL     1     -14.030   6.413  71.958  1.00  0.00    -0.322 OA 
HETATM    7  C   UNL     1     -12.072   9.507  71.694  1.00  0.00    -0.474 A  
HETATM    8  H   UNL     1     -14.905   6.767  71.859  1.00  0.00     0.000 HD 
HETATM    9  C   UNL     1     -10.783   8.978  71.867  1.00  0.00    -0.401 A  
HETATM   10  C   UNL     1     -10.575   7.599  72.061  1.00  0.00    -0.264 A  
BRANCH   7  11
HETATM   11  C   UNL     1     -12.290  10.961  71.459  1.00  0.00    -0.239 C  
HETATM   12  C   UNL     1     -13.116  11.655  72.258  1.00  0.00    -0.062 C  
HETATM   13  C   UNL     1     -13.398  13.059  71.960  1.00  0.00    -0.492 C  
HETATM   14  O   UNL     1     -14.152  13.717  72.661  1.00  0.00    -0.746 OA 
HETATM   15  C   UNL     1     -12.756  13.635  70.780  1.00  0.00    -0.338 A  
HETATM   16  C   UNL     1     -13.033  14.939  70.382  1.00  0.00    -0.228 A  
HETATM   17  C   UNL     1     -12.383  15.503  69.290  1.00  0.00    -0.106 A  
HETATM   18  O   UNL     1     -13.923  15.748  71.035  1.00  0.00    -0.702 OA 
HETATM   19  C   UNL     1     -11.430  14.771  68.588  1.00  0.00    -0.302 A  
HETATM   20  H   UNL     1     -14.112  16.638  70.764  1.00  0.00     0.000 HD 
HETATM   21  C   UNL     1     -11.169  13.436  68.977  1.00  0.00    -0.323 A  
HETATM   22  C   UNL     1     -11.853  12.855  70.062  1.00  0.00    -0.286 A  
HETATM   23  O   UNL     1     -11.596  11.531  70.384  1.00  0.00    -0.281 OA 
BRANCH  19  24
HETATM   24  O   UNL     1     -10.637  15.283  67.597  1.00  0.00    -0.259 OA 
BRANCH  24  25
HETATM   25  C   UNL     1      -9.404  14.622  67.199  1.00  0.00    -0.223 C  
HETATM   26  O   UNL     1      -9.536  13.228  66.877  1.00  0.00    -0.234 OA 
HETATM   27  C   UNL     1      -8.330  12.566  66.483  1.00  0.00     0.152 C  
HETATM   28  H   UNL     1      -5.877  15.218  69.101  1.00  0.00     0.000 HD 
HETATM   29  C   UNL     1      -7.246  12.741  67.567  1.00  0.00    -0.154 C  
HETATM   30  O   UNL     1      -8.069  16.344  68.340  1.00  0.00    -0.172 OA 
HETATM   31  C   UNL     1      -6.999  14.209  67.860  1.00  0.00    -0.165 C  
HETATM   32  O   UNL     1      -5.961  12.173  67.262  1.00  0.00    -0.128 OA 
HETATM   33  H   UNL     1      -5.295  12.281  67.929  1.00  0.00     0.000 HD 
HETATM   34  H   UNL     1      -7.390  16.529  68.978  1.00  0.00     0.000 HD 
HETATM   35  O   UNL     1      -6.033  14.299  68.918  1.00  0.00    -0.083 OA 
HETATM   36  C   UNL     1      -8.295  14.924  68.239  1.00  0.00    -0.148 C  
BRANCH  27  37
HETATM   37  C   UNL     1      -8.528  11.038  66.378  1.00  0.00    -0.164 C  
BRANCH  37  38
HETATM   38  O   UNL     1      -7.523  10.276  65.722  1.00  0.00    -0.131 OA 
BRANCH  38  39
HETATM   39  C   UNL     1      -7.622   8.874  66.098  1.00  0.00    -0.091 C  
HETATM   40  C   UNL     1      -9.192   7.013  66.102  1.00  0.00    -0.077 C  
HETATM   41  O   UNL     1      -8.919   8.375  65.758  1.00  0.00    -0.177 OA 
HETATM   42  C   UNL     1      -8.888   6.703  67.580  1.00  0.00    -0.116 C  
HETATM   43  C   UNL     1      -8.525   6.053  65.123  1.00  0.00    -0.112 C  
HETATM   44  O   UNL     1      -9.819   7.405  68.421  1.00  0.00    -0.151 OA 
HETATM   45  C   UNL     1      -7.481   7.148  67.976  1.00  0.00    -0.099 C  
HETATM   46  O   UNL     1      -6.476   6.298  67.415  1.00  0.00    -0.042 OA 
HETATM   47  C   UNL     1      -7.269   8.619  67.596  1.00  0.00    -0.084 C  
HETATM   48  H   UNL     1      -9.632   7.214  69.332  1.00  0.00     0.000 HD 
HETATM   49  H   UNL     1      -5.601   6.575  67.661  1.00  0.00     0.000 HD 
HETATM   50  O   UNL     1      -5.922   9.025  67.879  1.00  0.00    -0.048 OA 
HETATM   51  H   UNL     1      -5.707   8.870  68.792  1.00  0.00     0.000 HD 
ENDBRANCH  38  39
ENDBRANCH  37  38
ENDBRANCH  27  37
ENDBRANCH  24  25
ENDBRANCH  19  24
ENDBRANCH   7  11
ENDBRANCH   2   3
TORSDOF 7
ENDMDL
MODEL       69
REMARK 921   NORMALIZED FREE ENERGY PREDICTED BY IDOCK:   -6.46 KCAL/MOL
REMARK 922        TOTAL FREE ENERGY PREDICTED BY IDOCK:  -11.03 KCAL/MOL
REMARK 923 INTER-LIGAND FREE ENERGY PREDICTED BY IDOCK:   -9.77 KCAL/MOL
REMARK 924 INTRA-LIGAND FREE ENERGY PREDICTED BY IDOCK:   -1.26 KCAL/MOL
REMARK 927      BINDING AFFINITY PREDICTED BY RF-SCORE:    0.00 PKD
ROOT
HETATM    1  C   UNL     1     -10.577   1.912  74.337  1.00  0.00    -0.136 C  
HETATM    2  O   UNL     1      -9.372   2.635  74.105  1.00  0.00    -0.080 OA 
ENDROOT
BRANCH   2   3
HETATM    3  C   UNL     1      -9.484   3.700  73.248  1.00  0.00    -0.105 A  
HETATM    4  C   UNL     1      -8.623   4.766  73.499  1.00  0.00    -0.105 A  
HETATM    5  C   UNL     1      -8.648   5.919  72.718  1.00  0.00    -0.122 A  
HETATM    6  O   UNL     1      -7.740   4.712  74.545  1.00  0.00    -0.083 OA 
HETATM    7  C   UNL     1      -9.533   6.035  71.627  1.00  0.00    -0.163 A  
HETATM    8  H   UNL     1      -7.153   5.438  74.717  1.00  0.00     0.000 HD 
HETATM    9  C   UNL     1     -10.378   4.946  71.363  1.00  0.00    -0.221 A  
HETATM   10  C   UNL     1     -10.352   3.786  72.162  1.00  0.00    -0.120 A  
BRANCH   7  11
HETATM   11  C   UNL     1      -9.580   7.273  70.801  1.00  0.00    -0.171 C  
HETATM   12  C   UNL     1      -8.599   7.535  69.924  1.00  0.00    -0.139 C  
HETATM   13  C   UNL     1      -8.607   8.800  69.189  1.00  0.00    -0.128 C  
HETATM   14  O   UNL     1      -7.724   9.074  68.390  1.00  0.00    -0.096 OA 
HETATM   15  C   UNL     1      -9.702   9.728  69.464  1.00  0.00    -0.228 A  
HETATM   16  C   UNL     1      -9.740  10.984  68.866  1.00  0.00    -0.172 A  
HETATM   17  C   UNL     1     -10.808  11.845  69.089  1.00  0.00    -0.196 A  
HETATM   18  O   UNL     1      -8.766  11.440  68.019  1.00  0.00    -0.136 OA 
HETATM   19  C   UNL     1     -11.867  11.452  69.903  1.00  0.00    -0.359 A  
HETATM   20  H   UNL     1      -8.792  12.297  67.611  1.00  0.00     0.000 HD 
HETATM   21  C   UNL     1     -11.813  10.186  70.530  1.00  0.00    -0.408 A  
HETATM   22  C   UNL     1     -10.714   9.328  70.333  1.00  0.00    -0.251 A  
HETATM   23  O   UNL     1     -10.684   8.113  70.999  1.00  0.00    -0.212 OA 
BRANCH  19  24
HETATM   24  O   UNL     1     -13.024  12.165  70.065  1.00  0.00     0.370 OA 
BRANCH  24  25
HETATM   25  C   UNL     1     -13.015  13.495  70.653  1.00  0.00    -0.026 C  
HETATM   26  O   UNL     1     -12.180  14.453  69.983  1.00  0.00    -0.318 OA 
HETATM   27  C   UNL     1     -12.163  15.766  70.552  1.00  0.00    -0.363 C  
HETATM   28  H   UNL     1     -12.820  14.130  74.650  1.00  0.00     0.000 HD 
HETATM   29  C   UNL     1     -11.770  15.698  72.042  1.00  0.00    -0.461 C  
HETATM   30  O   UNL     1     -13.763  12.585  72.813  1.00  0.00    -0.652 OA 
HETATM   31  C   UNL     1     -12.699  14.777  72.810  1.00  0.00    -0.399 C  
HETATM   32  O   UNL     1     -11.778  16.950  72.747  1.00  0.00    -0.378 OA 
HETATM   33  H   UNL     1     -11.536  16.908  73.664  1.00  0.00     0.000 HD 
HETATM   34  H   UNL     1     -13.599  12.518  73.746  1.00  0.00     0.000 HD 
HETATM   35  O   UNL     1     -12.238  14.707  74.169  1.00  0.00    -0.483 OA 
HETATM   36  C   UNL     1     -12.748  13.386  72.176  1.00  0.00    -0.095 C  
BRANCH  27  37
HETATM   37  C   UNL     1     -11.076  16.652  69.905  1.00  0.00    -0.117 C  
BRANCH  37  38
HETATM   38  O   UNL     1     -11.113  16.835  68.496  1.00  0.00    -0.342 OA 
BRANCH  38  39
HETATM   39  C   UNL     1      -9.764  16.940  67.961  1.00  0.00    -0.256 C  
HETATM   40  C   UNL     1      -7.437  16.597  68.592  1.00  0.00    -0.211 C  
HETATM   41  O   UNL     1      -8.820  16.515  68.949  1.00  0.00    -0.241 OA 
HETATM   42  C   UNL     1      -7.043  17.990  68.063  1.00  0.00    -0.220 C  
HETATM   43  C   UNL     1      -7.039  15.453  67.666  1.00  0.00    -0.204 C  
HETATM   44  O   UNL     1      -7.124  18.950  69.130  1.00  0.00    -0.308 OA 
HETATM   45  C   UNL     1      -7.977  18.459  66.948  1.00  0.00    -0.236 C  
HETATM   46  O   UNL     1      -7.751  17.745  65.729  1.00  0.00    -0.541 OA 
HETATM   47  C   UNL     1      -9.437  18.363  67.410  1.00  0.00    -0.273 C  
HETATM   48  H   UNL     1      -6.881  19.809  68.805  1.00  0.00     0.000 HD 
HETATM   49  H   UNL     1      -8.331  18.037  65.036  1.00  0.00     0.000 HD 
HETATM   50  O   UNL     1     -10.329  18.714  66.342  1.00  0.00    -0.390 OA 
HETATM   51  H   UNL     1     -10.130  19.580  66.006  1.00  0.00     0.000 HD 
ENDBRANCH  38  39
ENDBRANCH  37  38
ENDBRANCH  27  37
ENDBRANCH  24  25
ENDBRANCH  19  24
ENDBRANCH   7  11
ENDBRANCH   2   3
TORSDOF 7
ENDMDL
MODEL       70
REMARK 921   NORMALIZED FREE ENERGY PREDICTED BY IDOCK:   -6.44 KCAL/MOL
REMARK 922        TOTAL FREE ENERGY PREDICTED BY IDOCK:  -11.01 KCAL/MOL
REMARK 923 INTER-LIGAND FREE ENERGY PREDICTED BY IDOCK:   -9.65 KCAL/MOL
REMARK 924 INTRA-LIGAND FREE ENERGY PREDICTED BY IDOCK:   -1.36 KCAL/MOL
REMARK 927      BINDING AFFINITY PREDICTED BY RF-SCORE:    0.00 PKD
ROOT
HETATM    1  C   UNL     1      -9.659  20.681  67.182  1.00  0.00    -0.393 C  
HETATM    2  O   UNL     1      -8.736  19.630  66.911  1.00  0.00    -0.296 OA 
ENDROOT
BRANCH   2   3
HETATM    3  C   UNL     1      -9.226  18.361  67.088  1.00  0.00    -0.264 A  
HETATM    4  C   UNL     1      -8.633  17.627  68.112  1.00  0.00    -0.261 A  
HETATM    5  C   UNL     1      -9.021  16.316  68.384  1.00  0.00    -0.203 A  
HETATM    6  O   UNL     1      -7.630  18.174  68.867  1.00  0.00    -0.277 OA 
HETATM    7  C   UNL     1     -10.048  15.697  67.643  1.00  0.00    -0.248 A  
HETATM    8  H   UNL     1      -7.226  17.673  69.565  1.00  0.00     0.000 HD 
HETATM    9  C   UNL     1     -10.659  16.453  66.630  1.00  0.00    -0.239 A  
HETATM   10  C   UNL     1     -10.256  17.775  66.357  1.00  0.00    -0.365 A  
BRANCH   7  11
HETATM   11  C   UNL     1     -10.453  14.290  67.913  1.00  0.00    -0.240 C  
HETATM   12  C   UNL     1     -11.270  14.010  68.940  1.00  0.00    -0.303 C  
HETATM   13  C   UNL     1     -11.583  12.615  69.254  1.00  0.00    -0.318 C  
HETATM   14  O   UNL     1     -12.316  12.326  70.188  1.00  0.00    -0.235 OA 
HETATM   15  C   UNL     1     -10.968  11.587  68.419  1.00  0.00    -0.267 A  
HETATM   16  C   UNL     1     -11.151  10.236  68.700  1.00  0.00    -0.239 A  
HETATM   17  C   UNL     1     -10.608   9.258  67.874  1.00  0.00    -0.288 A  
HETATM   18  O   UNL     1     -11.880   9.785  69.766  1.00  0.00    -0.454 OA 
HETATM   19  C   UNL     1      -9.885   9.620  66.741  1.00  0.00    -0.211 A  
HETATM   20  H   UNL     1     -12.005   8.863  69.958  1.00  0.00     0.000 HD 
HETATM   21  C   UNL     1      -9.678  10.993  66.472  1.00  0.00    -0.230 A  
HETATM   22  C   UNL     1     -10.198  11.983  67.328  1.00  0.00    -0.204 A  
HETATM   23  O   UNL     1      -9.937  13.315  67.048  1.00  0.00    -0.230 OA 
BRANCH  19  24
HETATM   24  O   UNL     1      -9.438   8.739  65.794  1.00  0.00    -0.229 OA 
BRANCH  24  25
HETATM   25  C   UNL     1      -8.918   7.432  66.164  1.00  0.00    -0.149 C  
HETATM   26  O   UNL     1      -9.696   6.719  67.138  1.00  0.00    -0.138 OA 
HETATM   27  C   UNL     1      -9.194   5.431  67.511  1.00  0.00    -0.112 C  
HETATM   28  H   UNL     1      -4.983   6.746  66.846  1.00  0.00     0.000 HD 
HETATM   29  C   UNL     1      -7.737   5.548  68.004  1.00  0.00    -0.092 C  
HETATM   30  O   UNL     1      -6.665   8.076  65.413  1.00  0.00    -0.053 OA 
HETATM   31  C   UNL     1      -6.856   6.200  66.956  1.00  0.00    -0.066 C  
HETATM   32  O   UNL     1      -7.095   4.309  68.350  1.00  0.00    -0.054 OA 
HETATM   33  H   UNL     1      -6.199   4.381  68.653  1.00  0.00     0.000 HD 
HETATM   34  H   UNL     1      -5.746   8.153  65.637  1.00  0.00     0.000 HD 
HETATM   35  O   UNL     1      -5.535   6.338  67.503  1.00  0.00    -0.005 OA 
HETATM   36  C   UNL     1      -7.416   7.557  66.529  1.00  0.00    -0.084 C  
BRANCH  27  37
HETATM   37  C   UNL     1      -9.965   4.847  68.715  1.00  0.00    -0.136 C  
BRANCH  37  38
HETATM   38  O   UNL     1      -9.314   4.823  69.978  1.00  0.00    -0.122 OA 
BRANCH  38  39
HETATM   39  C   UNL     1     -10.204   5.315  71.019  1.00  0.00    -0.229 C  
HETATM   40  C   UNL     1     -11.274   7.360  71.795  1.00  0.00    -0.246 C  
HETATM   41  O   UNL     1     -10.445   6.712  70.825  1.00  0.00    -0.209 OA 
HETATM   42  C   UNL     1     -10.803   7.110  73.240  1.00  0.00    -0.338 C  
HETATM   43  C   UNL     1     -12.747   7.038  71.564  1.00  0.00    -0.425 C  
HETATM   44  O   UNL     1      -9.541   7.765  73.455  1.00  0.00    -0.277 OA 
HETATM   45  C   UNL     1     -10.605   5.621  73.523  1.00  0.00    -0.269 C  
HETATM   46  O   UNL     1     -11.852   4.929  73.630  1.00  0.00    -0.372 OA 
HETATM   47  C   UNL     1      -9.691   5.001  72.458  1.00  0.00    -0.155 C  
HETATM   48  H   UNL     1      -9.250   7.610  74.346  1.00  0.00     0.000 HD 
HETATM   49  H   UNL     1     -11.730   4.003  73.806  1.00  0.00     0.000 HD 
HETATM   50  O   UNL     1      -9.570   3.585  72.659  1.00  0.00    -0.122 OA 
HETATM   51  H   UNL     1      -9.257   3.393  73.535  1.00  0.00     0.000 HD 
ENDBRANCH  38  39
ENDBRANCH  37  38
ENDBRANCH  27  37
ENDBRANCH  24  25
ENDBRANCH  19  24
ENDBRANCH   7  11
ENDBRANCH   2   3
TORSDOF 7
ENDMDL
MODEL       71
REMARK 921   NORMALIZED FREE ENERGY PREDICTED BY IDOCK:   -6.39 KCAL/MOL
REMARK 922        TOTAL FREE ENERGY PREDICTED BY IDOCK:  -10.93 KCAL/MOL
REMARK 923 INTER-LIGAND FREE ENERGY PREDICTED BY IDOCK:   -9.43 KCAL/MOL
REMARK 924 INTRA-LIGAND FREE ENERGY PREDICTED BY IDOCK:   -1.50 KCAL/MOL
REMARK 927      BINDING AFFINITY PREDICTED BY RF-SCORE:    0.00 PKD
ROOT
HETATM    1  C   UNL     1      -7.687   1.696  62.570  1.00  0.00    -0.046 C  
HETATM    2  O   UNL     1      -7.475   1.600  63.976  1.00  0.00    -0.054 OA 
ENDROOT
BRANCH   2   3
HETATM    3  C   UNL     1      -7.544   2.787  64.660  1.00  0.00    -0.076 A  
HETATM    4  C   UNL     1      -8.594   2.895  65.568  1.00  0.00    -0.115 A  
HETATM    5  C   UNL     1      -8.793   4.056  66.313  1.00  0.00    -0.121 A  
HETATM    6  O   UNL     1      -9.476   1.861  65.735  1.00  0.00    -0.330 OA 
HETATM    7  C   UNL     1      -7.918   5.155  66.189  1.00  0.00    -0.104 A  
HETATM    8  H   UNL     1     -10.192   1.935  66.354  1.00  0.00     0.000 HD 
HETATM    9  C   UNL     1      -6.847   5.028  65.291  1.00  0.00    -0.060 A  
HETATM   10  C   UNL     1      -6.656   3.854  64.536  1.00  0.00    -0.043 A  
BRANCH   7  11
HETATM   11  C   UNL     1      -8.137   6.406  66.964  1.00  0.00    -0.112 C  
HETATM   12  C   UNL     1      -7.388   6.667  68.047  1.00  0.00    -0.097 C  
HETATM   13  C   UNL     1      -7.676   7.851  68.857  1.00  0.00    -0.105 C  
HETATM   14  O   UNL     1      -7.019   8.113  69.853  1.00  0.00    -0.046 OA 
HETATM   15  C   UNL     1      -8.793   8.695  68.435  1.00  0.00    -0.142 A  
HETATM   16  C   UNL     1      -9.182   9.794  69.194  1.00  0.00    -0.176 A  
HETATM   17  C   UNL     1     -10.210  10.626  68.765  1.00  0.00    -0.204 A  
HETATM   18  O   UNL     1      -8.580  10.141  70.373  1.00  0.00    -0.344 OA 
HETATM   19  C   UNL     1     -10.855  10.377  67.557  1.00  0.00    -0.301 A  
HETATM   20  H   UNL     1      -8.845  10.892  70.891  1.00  0.00     0.000 HD 
HETATM   21  C   UNL     1     -10.475   9.244  66.800  1.00  0.00    -0.263 A  
HETATM   22  C   UNL     1      -9.458   8.382  67.252  1.00  0.00    -0.154 A  
HETATM   23  O   UNL     1      -9.146   7.261  66.499  1.00  0.00    -0.144 OA 
BRANCH  19  24
HETATM   24  O   UNL     1     -11.773  11.214  66.983  1.00  0.00    -0.460 OA 
BRANCH  24  25
HETATM   25  C   UNL     1     -11.359  12.315  66.127  1.00  0.00    -0.353 C  
HETATM   26  O   UNL     1     -11.095  13.552  66.810  1.00  0.00    -0.292 OA 
HETATM   27  C   UNL     1     -10.688  14.644  65.978  1.00  0.00    -0.312 C  
HETATM   28  H   UNL     1     -13.121  13.113  62.567  1.00  0.00     0.000 HD 
HETATM   29  C   UNL     1     -11.728  14.885  64.865  1.00  0.00    -0.371 C  
HETATM   30  O   UNL     1     -12.391  11.233  64.174  1.00  0.00     0.044 OA 
HETATM   31  C   UNL     1     -11.956  13.626  64.049  1.00  0.00    -0.431 C  
HETATM   32  O   UNL     1     -11.402  15.919  63.921  1.00  0.00    -0.993 OA 
HETATM   33  H   UNL     1     -12.042  16.067  63.236  1.00  0.00     0.000 HD 
HETATM   34  H   UNL     1     -12.998  11.316  63.449  1.00  0.00     0.000 HD 
HETATM   35  O   UNL     1     -12.979  13.901  63.079  1.00  0.00    -0.147 OA 
HETATM   36  C   UNL     1     -12.351  12.451  64.943  1.00  0.00    -0.402 C  
BRANCH  27  37
HETATM   37  C   UNL     1     -10.647  15.972  66.765  1.00  0.00    -0.297 C  
BRANCH  37  38
HETATM   38  O   UNL     1     -10.331  15.921  68.150  1.00  0.00    -0.244 OA 
BRANCH  38  39
HETATM   39  C   UNL     1      -9.028  16.517  68.396  1.00  0.00    -0.219 C  
HETATM   40  C   UNL     1      -7.562  18.285  67.587  1.00  0.00    -0.220 C  
HETATM   41  O   UNL     1      -8.822  17.613  67.500  1.00  0.00    -0.228 OA 
HETATM   42  C   UNL     1      -6.367  17.317  67.505  1.00  0.00    -0.149 C  
HETATM   43  C   UNL     1      -7.517  19.217  68.794  1.00  0.00    -0.379 C  
HETATM   44  O   UNL     1      -6.299  16.746  66.187  1.00  0.00    -0.143 OA 
HETATM   45  C   UNL     1      -6.499  16.165  68.501  1.00  0.00    -0.117 C  
HETATM   46  O   UNL     1      -6.276  16.597  69.847  1.00  0.00    -0.218 OA 
HETATM   47  C   UNL     1      -7.863  15.482  68.334  1.00  0.00    -0.126 C  
HETATM   48  H   UNL     1      -5.562  16.149  66.137  1.00  0.00     0.000 HD 
HETATM   49  H   UNL     1      -6.358  15.881  70.466  1.00  0.00     0.000 HD 
HETATM   50  O   UNL     1      -8.038  14.457  69.324  1.00  0.00    -0.337 OA 
HETATM   51  H   UNL     1      -7.329  13.826  69.286  1.00  0.00     0.000 HD 
ENDBRANCH  38  39
ENDBRANCH  37  38
ENDBRANCH  27  37
ENDBRANCH  24  25
ENDBRANCH  19  24
ENDBRANCH   7  11
ENDBRANCH   2   3
TORSDOF 7
ENDMDL
MODEL       72
REMARK 921   NORMALIZED FREE ENERGY PREDICTED BY IDOCK:   -6.27 KCAL/MOL
REMARK 922        TOTAL FREE ENERGY PREDICTED BY IDOCK:  -10.77 KCAL/MOL
REMARK 923 INTER-LIGAND FREE ENERGY PREDICTED BY IDOCK:   -8.75 KCAL/MOL
REMARK 924 INTRA-LIGAND FREE ENERGY PREDICTED BY IDOCK:   -2.02 KCAL/MOL
REMARK 927      BINDING AFFINITY PREDICTED BY RF-SCORE:    0.00 PKD
ROOT
HETATM    1  C   UNL     1     -11.335  15.542  64.602  1.00  0.00    -0.357 C  
HETATM    2  O   UNL     1     -11.710  14.172  64.488  1.00  0.00    -0.387 OA 
ENDROOT
BRANCH   2   3
HETATM    3  C   UNL     1     -11.617  13.442  65.645  1.00  0.00    -0.327 A  
HETATM    4  C   UNL     1     -11.204  12.121  65.490  1.00  0.00    -0.334 A  
HETATM    5  C   UNL     1     -11.090  11.262  66.581  1.00  0.00    -0.299 A  
HETATM    6  O   UNL     1     -10.921  11.625  64.245  1.00  0.00    -0.325 OA 
HETATM    7  C   UNL     1     -11.367  11.713  67.888  1.00  0.00    -0.369 A  
HETATM    8  H   UNL     1     -10.639  10.725  64.138  1.00  0.00     0.000 HD 
HETATM    9  C   UNL     1     -11.757  13.053  68.040  1.00  0.00    -0.397 A  
HETATM   10  C   UNL     1     -11.876  13.912  66.931  1.00  0.00    -0.453 A  
BRANCH   7  11
HETATM   11  C   UNL     1     -11.268  10.795  69.056  1.00  0.00    -0.262 C  
HETATM   12  C   UNL     1     -12.382  10.348  69.657  1.00  0.00    -0.060 C  
HETATM   13  C   UNL     1     -12.273   9.526  70.863  1.00  0.00    -0.254 C  
HETATM   14  O   UNL     1     -13.267   9.111  71.438  1.00  0.00    -0.334 OA 
HETATM   15  C   UNL     1     -10.928   9.240  71.357  1.00  0.00    -0.429 A  
HETATM   16  C   UNL     1     -10.739   8.532  72.540  1.00  0.00    -0.232 A  
HETATM   17  C   UNL     1      -9.460   8.215  72.983  1.00  0.00    -0.333 A  
HETATM   18  O   UNL     1     -11.772   8.087  73.319  1.00  0.00    -0.569 OA 
HETATM   19  C   UNL     1      -8.347   8.590  72.235  1.00  0.00    -0.117 A  
HETATM   20  H   UNL     1     -11.643   7.603  74.127  1.00  0.00     0.000 HD 
HETATM   21  C   UNL     1      -8.540   9.332  71.047  1.00  0.00    -0.166 A  
HETATM   22  C   UNL     1      -9.834   9.683  70.617  1.00  0.00    -0.200 A  
HETATM   23  O   UNL     1      -9.976  10.445  69.468  1.00  0.00    -0.227 OA 
BRANCH  19  24
HETATM   24  O   UNL     1      -7.064   8.202  72.510  1.00  0.00    -0.088 OA 
BRANCH  24  25
HETATM   25  C   UNL     1      -6.589   6.869  72.170  1.00  0.00    -0.057 C  
HETATM   26  O   UNL     1      -7.195   6.284  71.007  1.00  0.00    -0.071 OA 
HETATM   27  C   UNL     1      -6.737   4.972  70.663  1.00  0.00    -0.039 C  
HETATM   28  H   UNL     1      -5.977   3.982  74.946  1.00  0.00     0.000 HD 
HETATM   29  C   UNL     1      -6.900   4.016  71.863  1.00  0.00    -0.030 C  
HETATM   30  O   UNL     1      -5.824   6.514  74.481  1.00  0.00    -0.061 OA 
HETATM   31  C   UNL     1      -6.180   4.548  73.087  1.00  0.00    -0.032 C  
HETATM   32  O   UNL     1      -6.415   2.678  71.664  1.00  0.00    -0.017 OA 
HETATM   33  H   UNL     1      -6.516   2.090  72.402  1.00  0.00     0.000 HD 
HETATM   34  H   UNL     1      -5.856   5.960  75.252  1.00  0.00     0.000 HD 
HETATM   35  O   UNL     1      -6.428   3.649  74.179  1.00  0.00    -0.034 OA 
HETATM   36  C   UNL     1      -6.642   5.965  73.429  1.00  0.00    -0.074 C  
BRANCH  27  37
HETATM   37  C   UNL     1      -7.598   4.344  69.546  1.00  0.00    -0.054 C  
BRANCH  37  38
HETATM   38  O   UNL     1      -7.009   4.168  68.264  1.00  0.00    -0.050 OA 
BRANCH  38  39
HETATM   39  C   UNL     1      -7.792   4.853  67.247  1.00  0.00    -0.095 C  
HETATM   40  C   UNL     1      -8.274   7.086  66.403  1.00  0.00    -0.117 C  
HETATM   41  O   UNL     1      -7.544   6.261  67.317  1.00  0.00    -0.090 OA 
HETATM   42  C   UNL     1      -9.791   6.823  66.448  1.00  0.00    -0.031 C  
HETATM   43  C   UNL     1      -7.679   7.014  65.001  1.00  0.00    -0.115 C  
HETATM   44  O   UNL     1     -10.317   7.258  67.714  1.00  0.00    -0.181 OA 
HETATM   45  C   UNL     1     -10.114   5.337  66.300  1.00  0.00    -0.207 C  
HETATM   46  O   UNL     1      -9.903   4.877  64.961  1.00  0.00    -0.358 OA 
HETATM   47  C   UNL     1      -9.313   4.520  67.323  1.00  0.00    -0.147 C  
HETATM   48  H   UNL     1     -11.253   7.096  67.742  1.00  0.00     0.000 HD 
HETATM   49  H   UNL     1     -10.104   3.953  64.869  1.00  0.00     0.000 HD 
HETATM   50  O   UNL     1      -9.538   3.115  67.134  1.00  0.00    -0.366 OA 
HETATM   51  H   UNL     1     -10.465   2.912  67.180  1.00  0.00     0.000 HD 
ENDBRANCH  38  39
ENDBRANCH  37  38
ENDBRANCH  27  37
ENDBRANCH  24  25
ENDBRANCH  19  24
ENDBRANCH   7  11
ENDBRANCH   2   3
TORSDOF 7
ENDMDL
MODEL       73
REMARK 921   NORMALIZED FREE ENERGY PREDICTED BY IDOCK:   -6.26 KCAL/MOL
REMARK 922        TOTAL FREE ENERGY PREDICTED BY IDOCK:  -10.76 KCAL/MOL
REMARK 923 INTER-LIGAND FREE ENERGY PREDICTED BY IDOCK:   -8.56 KCAL/MOL
REMARK 924 INTRA-LIGAND FREE ENERGY PREDICTED BY IDOCK:   -2.19 KCAL/MOL
REMARK 927      BINDING AFFINITY PREDICTED BY RF-SCORE:    0.00 PKD
ROOT
HETATM    1  C   UNL     1     -10.636  19.289  66.012  1.00  0.00    -0.461 C  
HETATM    2  O   UNL     1     -10.746  18.603  67.256  1.00  0.00    -0.424 OA 
ENDROOT
BRANCH   2   3
HETATM    3  C   UNL     1     -10.139  17.374  67.302  1.00  0.00    -0.310 A  
HETATM    4  C   UNL     1     -10.191  16.725  68.533  1.00  0.00    -0.298 A  
HETATM    5  C   UNL     1      -9.594  15.481  68.724  1.00  0.00    -0.208 A  
HETATM    6  O   UNL     1     -10.816  17.313  69.601  1.00  0.00    -0.364 OA 
HETATM    7  C   UNL     1      -8.937  14.823  67.664  1.00  0.00    -0.183 A  
HETATM    8  H   UNL     1     -10.851  16.871  70.441  1.00  0.00     0.000 HD 
HETATM    9  C   UNL     1      -8.912  15.472  66.419  1.00  0.00    -0.359 A  
HETATM   10  C   UNL     1      -9.511  16.733  66.237  1.00  0.00    -0.314 A  
BRANCH   7  11
HETATM   11  C   UNL     1      -8.278  13.504  67.866  1.00  0.00    -0.168 C  
HETATM   12  C   UNL     1      -7.510  13.293  68.946  1.00  0.00     0.002 C  
HETATM   13  C   UNL     1      -6.790  12.026  69.085  1.00  0.00    -0.090 C  
HETATM   14  O   UNL     1      -6.076  11.806  70.051  1.00  0.00    -0.141 OA 
HETATM   15  C   UNL     1      -6.947  11.047  68.012  1.00  0.00    -0.068 A  
HETATM   16  C   UNL     1      -6.235   9.851  68.029  1.00  0.00    -0.054 A  
HETATM   17  C   UNL     1      -6.424   8.897  67.035  1.00  0.00    -0.061 A  
HETATM   18  O   UNL     1      -5.341   9.525  69.012  1.00  0.00    -0.037 OA 
HETATM   19  C   UNL     1      -7.344   9.122  66.014  1.00  0.00    -0.094 A  
HETATM   20  H   UNL     1      -4.856   8.709  69.024  1.00  0.00     0.000 HD 
HETATM   21  C   UNL     1      -8.047  10.349  65.985  1.00  0.00    -0.143 A  
HETATM   22  C   UNL     1      -7.829  11.328  66.972  1.00  0.00    -0.150 A  
HETATM   23  O   UNL     1      -8.510  12.533  66.882  1.00  0.00    -0.186 OA 
BRANCH  19  24
HETATM   24  O   UNL     1      -7.704   8.190  65.079  1.00  0.00    -0.099 OA 
BRANCH  24  25
HETATM   25  C   UNL     1      -8.470   7.008  65.446  1.00  0.00    -0.086 C  
HETATM   26  O   UNL     1      -9.490   7.225  66.434  1.00  0.00    -0.175 OA 
HETATM   27  C   UNL     1     -10.250   6.070  66.804  1.00  0.00    -0.214 C  
HETATM   28  H   UNL     1      -6.759   3.390  66.072  1.00  0.00     0.000 HD 
HETATM   29  C   UNL     1      -9.310   4.940  67.275  1.00  0.00    -0.131 C  
HETATM   30  O   UNL     1      -6.655   5.545  64.660  1.00  0.00    -0.040 OA 
HETATM   31  C   UNL     1      -8.282   4.606  66.212  1.00  0.00    -0.107 C  
HETATM   32  O   UNL     1      -9.950   3.699  67.616  1.00  0.00    -0.144 OA 
HETATM   33  H   UNL     1      -9.372   3.004  67.906  1.00  0.00     0.000 HD 
HETATM   34  H   UNL     1      -6.061   4.835  64.870  1.00  0.00     0.000 HD 
HETATM   35  O   UNL     1      -7.403   3.599  66.739  1.00  0.00    -0.066 OA 
HETATM   36  C   UNL     1      -7.499   5.849  65.788  1.00  0.00    -0.081 C  
BRANCH  27  37
HETATM   37  C   UNL     1     -11.157   6.352  68.021  1.00  0.00    -0.267 C  
BRANCH  37  38
HETATM   38  O   UNL     1     -10.747   5.861  69.290  1.00  0.00    -0.272 OA 
BRANCH  38  39
HETATM   39  C   UNL     1     -10.582   6.958  70.231  1.00  0.00    -0.218 C  
HETATM   40  C   UNL     1      -8.929   7.960  71.711  1.00  0.00    -0.132 C  
HETATM   41  O   UNL     1      -9.243   6.961  70.736  1.00  0.00    -0.157 OA 
HETATM   42  C   UNL     1      -9.927   7.980  72.884  1.00  0.00    -0.290 C  
HETATM   43  C   UNL     1      -8.723   9.322  71.056  1.00  0.00    -0.182 C  
HETATM   44  O   UNL     1      -9.789   6.773  73.653  1.00  0.00    -0.192 OA 
HETATM   45  C   UNL     1     -11.374   8.055  72.398  1.00  0.00    -0.382 C  
HETATM   46  O   UNL     1     -11.695   9.350  71.881  1.00  0.00    -0.374 OA 
HETATM   47  C   UNL     1     -11.642   6.943  71.375  1.00  0.00    -0.299 C  
HETATM   48  H   UNL     1     -10.404   6.785  74.377  1.00  0.00     0.000 HD 
HETATM   49  H   UNL     1     -12.595   9.397  71.579  1.00  0.00     0.000 HD 
HETATM   50  O   UNL     1     -12.970   7.057  70.842  1.00  0.00    -0.541 OA 
HETATM   51  H   UNL     1     -13.616   7.048  71.539  1.00  0.00     0.000 HD 
ENDBRANCH  38  39
ENDBRANCH  37  38
ENDBRANCH  27  37
ENDBRANCH  24  25
ENDBRANCH  19  24
ENDBRANCH   7  11
ENDBRANCH   2   3
TORSDOF 7
ENDMDL
MODEL       74
REMARK 921   NORMALIZED FREE ENERGY PREDICTED BY IDOCK:   -6.23 KCAL/MOL
REMARK 922        TOTAL FREE ENERGY PREDICTED BY IDOCK:  -10.71 KCAL/MOL
REMARK 923 INTER-LIGAND FREE ENERGY PREDICTED BY IDOCK:   -9.00 KCAL/MOL
REMARK 924 INTRA-LIGAND FREE ENERGY PREDICTED BY IDOCK:   -1.70 KCAL/MOL
REMARK 927      BINDING AFFINITY PREDICTED BY RF-SCORE:    0.00 PKD
ROOT
HETATM    1  C   UNL     1      -8.236   3.681  67.141  1.00  0.00    -0.091 C  
HETATM    2  O   UNL     1      -9.537   3.736  67.720  1.00  0.00    -0.186 OA 
ENDROOT
BRANCH   2   3
HETATM    3  C   UNL     1      -9.939   4.979  68.138  1.00  0.00    -0.128 A  
HETATM    4  C   UNL     1      -9.905   5.188  69.515  1.00  0.00    -0.208 A  
HETATM    5  C   UNL     1     -10.309   6.398  70.075  1.00  0.00    -0.245 A  
HETATM    6  O   UNL     1      -9.492   4.191  70.358  1.00  0.00    -0.142 OA 
HETATM    7  C   UNL     1     -10.743   7.464  69.260  1.00  0.00    -0.197 A  
HETATM    8  H   UNL     1      -9.469   4.334  71.296  1.00  0.00     0.000 HD 
HETATM    9  C   UNL     1     -10.748   7.254  67.872  1.00  0.00    -0.239 A  
HETATM   10  C   UNL     1     -10.346   6.026  67.314  1.00  0.00    -0.275 A  
BRANCH   7  11
HETATM   11  C   UNL     1     -11.196   8.752  69.853  1.00  0.00    -0.051 C  
HETATM   12  C   UNL     1     -11.849   8.761  71.026  1.00  0.00    -0.315 C  
HETATM   13  C   UNL     1     -12.374  10.022  71.551  1.00  0.00    -0.419 C  
HETATM   14  O   UNL     1     -12.980  10.063  72.611  1.00  0.00    -0.087 OA 
HETATM   15  C   UNL     1     -12.160  11.223  70.746  1.00  0.00    -0.450 A  
HETATM   16  C   UNL     1     -12.696  12.446  71.136  1.00  0.00    -0.240 A  
HETATM   17  C   UNL     1     -12.448  13.598  70.397  1.00  0.00    -0.364 A  
HETATM   18  O   UNL     1     -13.464  12.605  72.257  1.00  0.00    -0.561 OA 
HETATM   19  C   UNL     1     -11.643  13.543  69.263  1.00  0.00    -0.316 A  
HETATM   20  H   UNL     1     -13.829  13.441  72.523  1.00  0.00     0.000 HD 
HETATM   21  C   UNL     1     -11.121  12.294  68.855  1.00  0.00    -0.291 A  
HETATM   22  C   UNL     1     -11.401  11.122  69.583  1.00  0.00    -0.294 A  
HETATM   23  O   UNL     1     -10.903   9.912  69.124  1.00  0.00    -0.218 OA 
BRANCH  19  24
HETATM   24  O   UNL     1     -11.225  14.639  68.558  1.00  0.00    -0.249 OA 
BRANCH  24  25
HETATM   25  C   UNL     1      -9.838  14.787  68.144  1.00  0.00    -0.221 C  
HETATM   26  O   UNL     1      -9.111  13.556  67.999  1.00  0.00    -0.186 OA 
HETATM   27  C   UNL     1      -7.744  13.688  67.593  1.00  0.00    -0.178 C  
HETATM   28  H   UNL     1      -7.376  17.614  69.679  1.00  0.00     0.000 HD 
HETATM   29  C   UNL     1      -6.987  14.622  68.559  1.00  0.00    -0.110 C  
HETATM   30  O   UNL     1      -9.801  17.105  68.966  1.00  0.00    -0.275 OA 
HETATM   31  C   UNL     1      -7.666  15.975  68.657  1.00  0.00    -0.176 C  
HETATM   32  O   UNL     1      -5.615  14.887  68.223  1.00  0.00    -0.099 OA 
HETATM   33  H   UNL     1      -5.149  15.461  68.818  1.00  0.00     0.000 HD 
HETATM   34  H   UNL     1      -9.371  17.743  69.522  1.00  0.00     0.000 HD 
HETATM   35  O   UNL     1      -6.951  16.766  69.618  1.00  0.00    -0.171 OA 
HETATM   36  C   UNL     1      -9.135  15.829  69.051  1.00  0.00    -0.245 C  
BRANCH  27  37
HETATM   37  C   UNL     1      -6.992  12.343  67.684  1.00  0.00    -0.132 C  
BRANCH  37  38
HETATM   38  O   UNL     1      -7.719  11.196  68.104  1.00  0.00    -0.098 OA 
BRANCH  38  39
HETATM   39  C   UNL     1      -7.751  10.198  67.046  1.00  0.00    -0.096 C  
HETATM   40  C   UNL     1      -6.278   8.772  65.733  1.00  0.00    -0.056 C  
HETATM   41  O   UNL     1      -6.423   9.734  66.783  1.00  0.00    -0.065 OA 
HETATM   42  C   UNL     1      -6.940   9.225  64.418  1.00  0.00    -0.093 C  
HETATM   43  C   UNL     1      -6.711   7.384  66.193  1.00  0.00    -0.053 C  
HETATM   44  O   UNL     1      -6.223  10.350  63.881  1.00  0.00    -0.236 OA 
HETATM   45  C   UNL     1      -8.389   9.659  64.632  1.00  0.00    -0.158 C  
HETATM   46  O   UNL     1      -9.249   8.543  64.878  1.00  0.00    -0.402 OA 
HETATM   47  C   UNL     1      -8.464  10.703  65.754  1.00  0.00    -0.178 C  
HETATM   48  H   UNL     1      -6.632  10.629  63.070  1.00  0.00     0.000 HD 
HETATM   49  H   UNL     1     -10.150   8.813  65.012  1.00  0.00     0.000 HD 
HETATM   50  O   UNL     1      -9.829  11.053  66.028  1.00  0.00    -0.211 OA 
HETATM   51  H   UNL     1     -10.263  11.361  65.241  1.00  0.00     0.000 HD 
ENDBRANCH  38  39
ENDBRANCH  37  38
ENDBRANCH  27  37
ENDBRANCH  24  25
ENDBRANCH  19  24
ENDBRANCH   7  11
ENDBRANCH   2   3
TORSDOF 7
ENDMDL
MODEL       75
REMARK 921   NORMALIZED FREE ENERGY PREDICTED BY IDOCK:   -6.22 KCAL/MOL
REMARK 922        TOTAL FREE ENERGY PREDICTED BY IDOCK:  -10.70 KCAL/MOL
REMARK 923 INTER-LIGAND FREE ENERGY PREDICTED BY IDOCK:   -9.74 KCAL/MOL
REMARK 924 INTRA-LIGAND FREE ENERGY PREDICTED BY IDOCK:   -0.96 KCAL/MOL
REMARK 927      BINDING AFFINITY PREDICTED BY RF-SCORE:    0.00 PKD
ROOT
HETATM    1  C   UNL     1      -6.381  20.337  68.688  1.00  0.00    -0.310 C  
HETATM    2  O   UNL     1      -7.502  19.626  69.205  1.00  0.00    -0.346 OA 
ENDROOT
BRANCH   2   3
HETATM    3  C   UNL     1      -7.989  18.632  68.394  1.00  0.00    -0.324 A  
HETATM    4  C   UNL     1      -9.376  18.526  68.343  1.00  0.00    -0.334 A  
HETATM    5  C   UNL     1     -10.002  17.545  67.576  1.00  0.00    -0.315 A  
HETATM    6  O   UNL     1     -10.164  19.378  69.071  1.00  0.00    -0.570 OA 
HETATM    7  C   UNL     1      -9.246  16.640  66.803  1.00  0.00    -0.259 A  
HETATM    8  H   UNL     1     -11.110  19.305  69.036  1.00  0.00     0.000 HD 
HETATM    9  C   UNL     1      -7.849  16.771  66.840  1.00  0.00    -0.253 A  
HETATM   10  C   UNL     1      -7.224  17.760  67.623  1.00  0.00    -0.199 A  
BRANCH   7  11
HETATM   11  C   UNL     1      -9.906  15.576  65.999  1.00  0.00    -0.335 C  
HETATM   12  C   UNL     1     -11.116  15.792  65.459  1.00  0.00    -0.193 C  
HETATM   13  C   UNL     1     -11.797  14.707  64.753  1.00  0.00    -0.440 C  
HETATM   14  O   UNL     1     -12.902  14.868  64.258  1.00  0.00    -0.607 OA 
HETATM   15  C   UNL     1     -11.109  13.420  64.681  1.00  0.00    -0.380 A  
HETATM   16  C   UNL     1     -11.721  12.315  64.097  1.00  0.00    -0.402 A  
HETATM   17  C   UNL     1     -11.046  11.105  63.983  1.00  0.00    -0.173 A  
HETATM   18  O   UNL     1     -12.989  12.346  63.583  1.00  0.00    -0.758 OA 
HETATM   19  C   UNL     1      -9.736  10.988  64.440  1.00  0.00    -0.280 A  
HETATM   20  H   UNL     1     -13.407  11.592  63.184  1.00  0.00     0.000 HD 
HETATM   21  C   UNL     1      -9.125  12.104  65.057  1.00  0.00     0.482 A  
HETATM   22  C   UNL     1      -9.822  13.319  65.204  1.00  0.00    -0.054 A  
HETATM   23  O   UNL     1      -9.199  14.375  65.852  1.00  0.00    -0.139 OA 
BRANCH  19  24
HETATM   24  O   UNL     1      -8.943   9.890  64.243  1.00  0.00    -0.207 OA 
BRANCH  24  25
HETATM   25  C   UNL     1      -8.233   9.263  65.347  1.00  0.00    -0.127 C  
HETATM   26  O   UNL     1      -9.042   8.947  66.491  1.00  0.00    -0.147 OA 
HETATM   27  C   UNL     1      -8.355   8.329  67.584  1.00  0.00    -0.127 C  
HETATM   28  H   UNL     1      -4.585  10.503  66.600  1.00  0.00     0.000 HD 
HETATM   29  C   UNL     1      -7.160   9.201  68.026  1.00  0.00    -0.078 C  
HETATM   30  O   UNL     1      -6.096  10.173  64.536  1.00  0.00    -0.117 OA 
HETATM   31  C   UNL     1      -6.221   9.469  66.865  1.00  0.00    -0.065 C  
HETATM   32  O   UNL     1      -6.348   8.657  69.079  1.00  0.00    -0.043 OA 
HETATM   33  H   UNL     1      -5.613   9.194  69.351  1.00  0.00     0.000 HD 
HETATM   34  H   UNL     1      -5.319  10.679  64.742  1.00  0.00     0.000 HD 
HETATM   35  O   UNL     1      -5.174  10.336  67.327  1.00  0.00    -0.040 OA 
HETATM   36  C   UNL     1      -6.965  10.090  65.683  1.00  0.00    -0.115 C  
BRANCH  27  37
HETATM   37  C   UNL     1      -9.250   8.236  68.839  1.00  0.00    -0.147 C  
BRANCH  37  38
HETATM   38  O   UNL     1     -10.660   8.231  68.656  1.00  0.00    -0.192 OA 
BRANCH  38  39
HETATM   39  C   UNL     1     -11.337   8.039  69.929  1.00  0.00     0.056 C  
HETATM   40  C   UNL     1     -11.490   8.994  72.163  1.00  0.00    -0.258 C  
HETATM   41  O   UNL     1     -10.940   9.065  70.844  1.00  0.00    -0.233 OA 
HETATM   42  C   UNL     1     -11.292   7.612  72.815  1.00  0.00    -0.367 C  
HETATM   43  C   UNL     1     -12.934   9.483  72.185  1.00  0.00    -0.497 C  
HETATM   44  O   UNL     1      -9.894   7.397  73.073  1.00  0.00    -0.187 OA 
HETATM   45  C   UNL     1     -11.774   6.482  71.906  1.00  0.00    -0.324 C  
HETATM   46  O   UNL     1     -13.202   6.431  71.831  1.00  0.00    -0.293 OA 
HETATM   47  C   UNL     1     -11.128   6.611  70.520  1.00  0.00    -0.307 C  
HETATM   48  H   UNL     1      -9.772   6.545  73.475  1.00  0.00     0.000 HD 
HETATM   49  H   UNL     1     -13.501   5.728  71.266  1.00  0.00     0.000 HD 
HETATM   50  O   UNL     1     -11.641   5.609  69.629  1.00  0.00     0.265 OA 
HETATM   51  H   UNL     1     -11.514   4.739  69.989  1.00  0.00     0.000 HD 
ENDBRANCH  38  39
ENDBRANCH  37  38
ENDBRANCH  27  37
ENDBRANCH  24  25
ENDBRANCH  19  24
ENDBRANCH   7  11
ENDBRANCH   2   3
TORSDOF 7
ENDMDL
MODEL       76
REMARK 921   NORMALIZED FREE ENERGY PREDICTED BY IDOCK:   -6.20 KCAL/MOL
REMARK 922        TOTAL FREE ENERGY PREDICTED BY IDOCK:  -10.67 KCAL/MOL
REMARK 923 INTER-LIGAND FREE ENERGY PREDICTED BY IDOCK:   -9.65 KCAL/MOL
REMARK 924 INTRA-LIGAND FREE ENERGY PREDICTED BY IDOCK:   -1.01 KCAL/MOL
REMARK 927      BINDING AFFINITY PREDICTED BY RF-SCORE:    0.00 PKD
ROOT
HETATM    1  C   UNL     1      -6.959   1.663  70.137  1.00  0.00    -0.033 C  
HETATM    2  O   UNL     1      -7.984   1.827  69.160  1.00  0.00    -0.045 OA 
ENDROOT
BRANCH   2   3
HETATM    3  C   UNL     1      -7.939   3.003  68.457  1.00  0.00    -0.057 A  
HETATM    4  C   UNL     1      -8.908   3.148  67.467  1.00  0.00    -0.136 A  
HETATM    5  C   UNL     1      -8.962   4.285  66.664  1.00  0.00    -0.122 A  
HETATM    6  O   UNL     1      -9.825   2.155  67.245  1.00  0.00    -0.334 OA 
HETATM    7  C   UNL     1      -8.047   5.342  66.844  1.00  0.00    -0.105 A  
HETATM    8  H   UNL     1     -10.486   2.253  66.570  1.00  0.00     0.000 HD 
HETATM    9  C   UNL     1      -7.090   5.201  67.861  1.00  0.00    -0.066 A  
HETATM   10  C   UNL     1      -7.038   4.045  68.665  1.00  0.00    -0.054 A  
BRANCH   7  11
HETATM   11  C   UNL     1      -8.084   6.550  65.975  1.00  0.00    -0.121 C  
HETATM   12  C   UNL     1      -7.164   6.716  65.012  1.00  0.00    -0.074 C  
HETATM   13  C   UNL     1      -7.152   7.951  64.229  1.00  0.00    -0.074 C  
HETATM   14  O   UNL     1      -6.322   8.137  63.351  1.00  0.00    -0.071 OA 
HETATM   15  C   UNL     1      -8.159   8.959  64.553  1.00  0.00    -0.150 A  
HETATM   16  C   UNL     1      -8.167  10.193  63.909  1.00  0.00    -0.164 A  
HETATM   17  C   UNL     1      -9.156  11.130  64.181  1.00  0.00    -0.051 A  
HETATM   18  O   UNL     1      -7.240  10.552  62.969  1.00  0.00    -0.264 OA 
HETATM   19  C   UNL     1     -10.167  10.838  65.093  1.00  0.00    -0.298 A  
HETATM   20  H   UNL     1      -7.245  11.394  62.530  1.00  0.00     0.000 HD 
HETATM   21  C   UNL     1     -10.142   9.594  65.765  1.00  0.00    -0.274 A  
HETATM   22  C   UNL     1      -9.120   8.659  65.516  1.00  0.00    -0.131 A  
HETATM   23  O   UNL     1      -9.112   7.469  66.227  1.00  0.00    -0.163 OA 
BRANCH  19  24
HETATM   24  O   UNL     1     -11.259  11.632  65.318  1.00  0.00    -0.279 OA 
BRANCH  24  25
HETATM   25  C   UNL     1     -11.290  12.578  66.423  1.00  0.00    -0.329 C  
HETATM   26  O   UNL     1     -10.328  13.641  66.343  1.00  0.00    -0.276 OA 
HETATM   27  C   UNL     1     -10.349  14.579  67.424  1.00  0.00    -0.252 C  
HETATM   28  H   UNL     1     -11.682  11.429  70.289  1.00  0.00     0.000 HD 
HETATM   29  C   UNL     1     -10.190  13.844  68.772  1.00  0.00    -0.184 C  
HETATM   30  O   UNL     1     -12.391  10.915  67.863  1.00  0.00    -0.369 OA 
HETATM   31  C   UNL     1     -11.258  12.781  68.943  1.00  0.00    -0.283 C  
HETATM   32  O   UNL     1     -10.258  14.672  69.944  1.00  0.00    -0.440 OA 
HETATM   33  H   UNL     1     -10.160  14.220  70.773  1.00  0.00     0.000 HD 
HETATM   34  H   UNL     1     -12.373  10.441  68.686  1.00  0.00     0.000 HD 
HETATM   35  O   UNL     1     -11.012  12.095  70.181  1.00  0.00     0.340 OA 
HETATM   36  C   UNL     1     -11.262  11.805  67.767  1.00  0.00    -0.266 C  
BRANCH  27  37
HETATM   37  C   UNL     1      -9.144  15.543  67.364  1.00  0.00    -0.199 C  
BRANCH  37  38
HETATM   38  O   UNL     1      -8.829  16.143  66.114  1.00  0.00    -0.315 OA 
BRANCH  38  39
HETATM   39  C   UNL     1      -8.865  17.593  66.223  1.00  0.00    -0.179 C  
HETATM   40  C   UNL     1      -8.150  19.408  67.681  1.00  0.00    -0.282 C  
HETATM   41  O   UNL     1      -8.171  18.004  67.406  1.00  0.00    -0.220 OA 
HETATM   42  C   UNL     1      -9.556  20.038  67.659  1.00  0.00    -0.389 C  
HETATM   43  C   UNL     1      -7.141  20.129  66.794  1.00  0.00    -0.281 C  
HETATM   44  O   UNL     1     -10.324  19.537  68.767  1.00  0.00    -0.534 OA 
HETATM   45  C   UNL     1     -10.314  19.691  66.377  1.00  0.00    -0.504 C  
HETATM   46  O   UNL     1      -9.795  20.397  65.246  1.00  0.00    -0.372 OA 
HETATM   47  C   UNL     1     -10.311  18.173  66.160  1.00  0.00    -0.385 C  
HETATM   48  H   UNL     1     -11.192  19.925  68.753  1.00  0.00     0.000 HD 
HETATM   49  H   UNL     1     -10.266  20.182  64.449  1.00  0.00     0.000 HD 
HETATM   50  O   UNL     1     -10.940  17.840  64.913  1.00  0.00    -0.866 OA 
HETATM   51  H   UNL     1     -11.821  18.193  64.875  1.00  0.00     0.000 HD 
ENDBRANCH  38  39
ENDBRANCH  37  38
ENDBRANCH  27  37
ENDBRANCH  24  25
ENDBRANCH  19  24
ENDBRANCH   7  11
ENDBRANCH   2   3
TORSDOF 7
ENDMDL
MODEL       77
REMARK 921   NORMALIZED FREE ENERGY PREDICTED BY IDOCK:   -6.20 KCAL/MOL
REMARK 922        TOTAL FREE ENERGY PREDICTED BY IDOCK:  -10.66 KCAL/MOL
REMARK 923 INTER-LIGAND FREE ENERGY PREDICTED BY IDOCK:   -8.94 KCAL/MOL
REMARK 924 INTRA-LIGAND FREE ENERGY PREDICTED BY IDOCK:   -1.73 KCAL/MOL
REMARK 927      BINDING AFFINITY PREDICTED BY RF-SCORE:    0.00 PKD
ROOT
HETATM    1  C   UNL     1      -9.971   2.451  71.751  1.00  0.00    -0.127 C  
HETATM    2  O   UNL     1      -9.780   3.746  72.313  1.00  0.00    -0.139 OA 
ENDROOT
BRANCH   2   3
HETATM    3  C   UNL     1      -9.399   4.719  71.425  1.00  0.00    -0.147 A  
HETATM    4  C   UNL     1      -8.671   5.775  71.968  1.00  0.00    -0.137 A  
HETATM    5  C   UNL     1      -8.241   6.841  71.181  1.00  0.00    -0.119 A  
HETATM    6  O   UNL     1      -8.379   5.800  73.306  1.00  0.00    -0.116 OA 
HETATM    7  C   UNL     1      -8.508   6.873  69.797  1.00  0.00    -0.133 A  
HETATM    8  H   UNL     1      -7.883   6.520  73.676  1.00  0.00     0.000 HD 
HETATM    9  C   UNL     1      -9.219   5.792  69.252  1.00  0.00    -0.135 A  
HETATM   10  C   UNL     1      -9.657   4.721  70.056  1.00  0.00    -0.260 A  
BRANCH   7  11
HETATM   11  C   UNL     1      -8.071   8.019  68.953  1.00  0.00    -0.124 C  
HETATM   12  C   UNL     1      -8.016   7.890  67.619  1.00  0.00    -0.124 C  
HETATM   13  C   UNL     1      -7.493   8.990  66.807  1.00  0.00    -0.086 C  
HETATM   14  O   UNL     1      -7.422   8.902  65.591  1.00  0.00    -0.084 OA 
HETATM   15  C   UNL     1      -7.044  10.188  67.514  1.00  0.00    -0.087 A  
HETATM   16  C   UNL     1      -6.462  11.246  66.824  1.00  0.00    -0.136 A  
HETATM   17  C   UNL     1      -6.082  12.406  67.490  1.00  0.00    -0.148 A  
HETATM   18  O   UNL     1      -6.249  11.232  65.472  1.00  0.00    -0.364 OA 
HETATM   19  C   UNL     1      -6.297  12.529  68.860  1.00  0.00    -0.086 A  
HETATM   20  H   UNL     1      -5.851  11.955  65.001  1.00  0.00     0.000 HD 
HETATM   21  C   UNL     1      -6.865  11.442  69.563  1.00  0.00    -0.097 A  
HETATM   22  C   UNL     1      -7.217  10.254  68.894  1.00  0.00    -0.086 A  
HETATM   23  O   UNL     1      -7.733   9.199  69.630  1.00  0.00    -0.073 OA 
BRANCH  19  24
HETATM   24  O   UNL     1      -6.093  13.679  69.574  1.00  0.00    -0.101 OA 
BRANCH  24  25
HETATM   25  C   UNL     1      -7.058  14.766  69.547  1.00  0.00    -0.172 C  
HETATM   26  O   UNL     1      -8.392  14.389  69.170  1.00  0.00    -0.075 OA 
HETATM   27  C   UNL     1      -9.352  15.450  69.138  1.00  0.00    -0.246 C  
HETATM   28  H   UNL     1      -6.218  18.410  67.988  1.00  0.00     0.000 HD 
HETATM   29  C   UNL     1      -8.861  16.587  68.218  1.00  0.00    -0.210 C  
HETATM   30  O   UNL     1      -5.249  16.415  69.301  1.00  0.00    -0.117 OA 
HETATM   31  C   UNL     1      -7.497  17.090  68.650  1.00  0.00    -0.229 C  
HETATM   32  O   UNL     1      -9.710  17.745  68.151  1.00  0.00    -0.286 OA 
HETATM   33  H   UNL     1      -9.408  18.444  67.584  1.00  0.00     0.000 HD 
HETATM   34  H   UNL     1      -4.896  17.138  68.797  1.00  0.00     0.000 HD 
HETATM   35  O   UNL     1      -7.073  18.095  67.716  1.00  0.00    -0.206 OA 
HETATM   36  C   UNL     1      -6.483  15.948  68.723  1.00  0.00    -0.116 C  
BRANCH  27  37
HETATM   37  C   UNL     1     -10.686  14.992  68.511  1.00  0.00    -0.244 C  
BRANCH  37  38
HETATM   38  O   UNL     1     -10.753  13.683  67.962  1.00  0.00    -0.238 OA 
BRANCH  38  39
HETATM   39  C   UNL     1     -10.857  13.744  66.512  1.00  0.00    -0.287 C  
HETATM   40  C   UNL     1     -12.321  14.555  64.744  1.00  0.00    -0.391 C  
HETATM   41  O   UNL     1     -12.050  14.444  66.144  1.00  0.00    -0.399 OA 
HETATM   42  C   UNL     1     -12.273  13.196  64.020  1.00  0.00    -0.414 C  
HETATM   43  C   UNL     1     -11.451  15.627  64.098  1.00  0.00    -0.080 C  
HETATM   44  O   UNL     1     -13.368  12.376  64.462  1.00  0.00    -0.800 OA 
HETATM   45  C   UNL     1     -10.979  12.440  64.319  1.00  0.00    -0.351 C  
HETATM   46  O   UNL     1      -9.855  13.025  63.655  1.00  0.00    -0.694 OA 
HETATM   47  C   UNL     1     -10.766  12.342  65.836  1.00  0.00    -0.258 C  
HETATM   48  H   UNL     1     -13.338  11.537  64.016  1.00  0.00     0.000 HD 
HETATM   49  H   UNL     1      -9.050  12.555  63.841  1.00  0.00     0.000 HD 
HETATM   50  O   UNL     1      -9.509  11.714  66.130  1.00  0.00    -0.213 OA 
HETATM   51  H   UNL     1      -9.453  10.860  65.718  1.00  0.00     0.000 HD 
ENDBRANCH  38  39
ENDBRANCH  37  38
ENDBRANCH  27  37
ENDBRANCH  24  25
ENDBRANCH  19  24
ENDBRANCH   7  11
ENDBRANCH   2   3
TORSDOF 7
ENDMDL
MODEL       78
REMARK 921   NORMALIZED FREE ENERGY PREDICTED BY IDOCK:   -6.17 KCAL/MOL
REMARK 922        TOTAL FREE ENERGY PREDICTED BY IDOCK:  -10.62 KCAL/MOL
REMARK 923 INTER-LIGAND FREE ENERGY PREDICTED BY IDOCK:   -9.98 KCAL/MOL
REMARK 924 INTRA-LIGAND FREE ENERGY PREDICTED BY IDOCK:   -0.64 KCAL/MOL
REMARK 927      BINDING AFFINITY PREDICTED BY RF-SCORE:    0.00 PKD
ROOT
HETATM    1  C   UNL     1      -9.938   2.414  74.394  1.00  0.00    -0.112 C  
HETATM    2  O   UNL     1      -8.926   2.283  73.399  1.00  0.00    -0.069 OA 
ENDROOT
BRANCH   2   3
HETATM    3  C   UNL     1      -9.041   3.138  72.332  1.00  0.00    -0.096 A  
HETATM    4  C   UNL     1      -8.249   2.829  71.229  1.00  0.00    -0.061 A  
HETATM    5  C   UNL     1      -8.252   3.628  70.087  1.00  0.00    -0.070 A  
HETATM    6  O   UNL     1      -7.425   1.736  71.251  1.00  0.00    -0.032 OA 
HETATM    7  C   UNL     1      -9.080   4.766  70.002  1.00  0.00    -0.155 A  
HETATM    8  H   UNL     1      -6.886   1.525  70.499  1.00  0.00     0.000 HD 
HETATM    9  C   UNL     1      -9.894   5.055  71.108  1.00  0.00    -0.254 A  
HETATM   10  C   UNL     1      -9.880   4.247  72.261  1.00  0.00    -0.227 A  
BRANCH   7  11
HETATM   11  C   UNL     1      -9.072   5.636  68.795  1.00  0.00    -0.118 C  
HETATM   12  C   UNL     1      -9.199   5.095  67.573  1.00  0.00    -0.124 C  
HETATM   13  C   UNL     1      -9.093   5.948  66.389  1.00  0.00    -0.149 C  
HETATM   14  O   UNL     1      -9.195   5.485  65.264  1.00  0.00    -0.084 OA 
HETATM   15  C   UNL     1      -8.842   7.370  66.611  1.00  0.00    -0.157 A  
HETATM   16  C   UNL     1      -8.650   8.235  65.538  1.00  0.00    -0.159 A  
HETATM   17  C   UNL     1      -8.462   9.597  65.747  1.00  0.00    -0.142 A  
HETATM   18  O   UNL     1      -8.656   7.823  64.233  1.00  0.00    -0.374 OA 
HETATM   19  C   UNL     1      -8.481  10.116  67.038  1.00  0.00    -0.129 A  
HETATM   20  H   UNL     1      -8.525   8.414  63.500  1.00  0.00     0.000 HD 
HETATM   21  C   UNL     1      -8.651   9.232  68.129  1.00  0.00    -0.125 A  
HETATM   22  C   UNL     1      -8.806   7.848  67.918  1.00  0.00    -0.123 A  
HETATM   23  O   UNL     1      -8.928   7.012  69.017  1.00  0.00    -0.134 OA 
BRANCH  19  24
HETATM   24  O   UNL     1      -8.452  11.452  67.336  1.00  0.00    -0.136 OA 
BRANCH  24  25
HETATM   25  C   UNL     1      -9.647  12.275  67.233  1.00  0.00    -0.187 C  
HETATM   26  O   UNL     1      -9.516  13.439  66.402  1.00  0.00    -0.262 OA 
HETATM   27  C   UNL     1     -10.686  14.258  66.294  1.00  0.00    -0.297 C  
HETATM   28  H   UNL     1     -11.974  13.175  70.426  1.00  0.00     0.000 HD 
HETATM   29  C   UNL     1     -11.174  14.680  67.695  1.00  0.00    -0.321 C  
HETATM   30  O   UNL     1     -10.509  11.350  69.344  1.00  0.00    -0.411 OA 
HETATM   31  C   UNL     1     -11.429  13.470  68.573  1.00  0.00    -0.310 C  
HETATM   32  O   UNL     1     -12.383  15.457  67.726  1.00  0.00    -0.211 OA 
HETATM   33  H   UNL     1     -12.684  15.717  68.588  1.00  0.00     0.000 HD 
HETATM   34  H   UNL     1     -10.842  11.533  70.214  1.00  0.00     0.000 HD 
HETATM   35  O   UNL     1     -11.814  13.934  69.876  1.00  0.00    -0.293 OA 
HETATM   36  C   UNL     1     -10.192  12.575  68.654  1.00  0.00    -0.154 C  
BRANCH  27  37
HETATM   37  C   UNL     1     -10.383  15.589  65.572  1.00  0.00    -0.394 C  
BRANCH  37  38
HETATM   38  O   UNL     1      -9.047  16.076  65.598  1.00  0.00    -0.357 OA 
BRANCH  38  39
HETATM   39  C   UNL     1      -8.981  17.341  66.314  1.00  0.00    -0.217 C  
HETATM   40  C   UNL     1      -8.248  18.290  68.433  1.00  0.00    -0.311 C  
HETATM   41  O   UNL     1      -8.354  17.142  67.585  1.00  0.00    -0.189 OA 
HETATM   42  C   UNL     1      -9.596  19.010  68.627  1.00  0.00    -0.403 C  
HETATM   43  C   UNL     1      -7.120  19.209  67.979  1.00  0.00    -0.271 C  
HETATM   44  O   UNL     1     -10.485  18.171  69.384  1.00  0.00    -0.399 OA 
HETATM   45  C   UNL     1     -10.274  19.315  67.292  1.00  0.00    -0.412 C  
HETATM   46  O   UNL     1      -9.616  20.375  66.591  1.00  0.00    -0.546 OA 
HETATM   47  C   UNL     1     -10.370  18.038  66.448  1.00  0.00    -0.379 C  
HETATM   48  H   UNL     1     -11.317  18.615  69.504  1.00  0.00     0.000 HD 
HETATM   49  H   UNL     1     -10.037  20.565  65.761  1.00  0.00     0.000 HD 
HETATM   50  O   UNL     1     -10.922  18.328  65.154  1.00  0.00    -0.628 OA 
HETATM   51  H   UNL     1     -11.768  18.752  65.236  1.00  0.00     0.000 HD 
ENDBRANCH  38  39
ENDBRANCH  37  38
ENDBRANCH  27  37
ENDBRANCH  24  25
ENDBRANCH  19  24
ENDBRANCH   7  11
ENDBRANCH   2   3
TORSDOF 7
ENDMDL
MODEL       79
REMARK 921   NORMALIZED FREE ENERGY PREDICTED BY IDOCK:   -6.06 KCAL/MOL
REMARK 922        TOTAL FREE ENERGY PREDICTED BY IDOCK:  -10.47 KCAL/MOL
REMARK 923 INTER-LIGAND FREE ENERGY PREDICTED BY IDOCK:   -9.28 KCAL/MOL
REMARK 924 INTRA-LIGAND FREE ENERGY PREDICTED BY IDOCK:   -1.19 KCAL/MOL
REMARK 927      BINDING AFFINITY PREDICTED BY RF-SCORE:    0.00 PKD
ROOT
HETATM    1  C   UNL     1      -9.501   1.471  67.867  1.00  0.00    -0.116 C  
HETATM    2  O   UNL     1      -9.603   2.259  69.050  1.00  0.00    -0.123 OA 
ENDROOT
BRANCH   2   3
HETATM    3  C   UNL     1      -9.271   3.582  68.901  1.00  0.00    -0.162 A  
HETATM    4  C   UNL     1      -9.182   4.313  70.083  1.00  0.00    -0.135 A  
HETATM    5  C   UNL     1      -8.875   5.673  70.074  1.00  0.00    -0.136 A  
HETATM    6  O   UNL     1      -9.419   3.712  71.290  1.00  0.00    -0.136 OA 
HETATM    7  C   UNL     1      -8.620   6.349  68.863  1.00  0.00    -0.123 A  
HETATM    8  H   UNL     1      -9.358   4.211  72.096  1.00  0.00     0.000 HD 
HETATM    9  C   UNL     1      -8.686   5.598  67.679  1.00  0.00    -0.107 A  
HETATM   10  C   UNL     1      -9.003   4.226  67.696  1.00  0.00    -0.135 A  
BRANCH   7  11
HETATM   11  C   UNL     1      -8.313   7.805  68.844  1.00  0.00    -0.128 C  
HETATM   12  C   UNL     1      -7.195   8.266  69.425  1.00  0.00    -0.059 C  
HETATM   13  C   UNL     1      -6.952   9.708  69.485  1.00  0.00    -0.059 C  
HETATM   14  O   UNL     1      -5.949  10.160  70.015  1.00  0.00    -0.045 OA 
HETATM   15  C   UNL     1      -7.968  10.581  68.901  1.00  0.00    -0.128 A  
HETATM   16  C   UNL     1      -7.851  11.965  68.986  1.00  0.00     0.101 A  
HETATM   17  C   UNL     1      -8.791  12.796  68.386  1.00  0.00    -0.117 A  
HETATM   18  O   UNL     1      -6.818  12.592  69.628  1.00  0.00    -0.331 OA 
HETATM   19  C   UNL     1      -9.856  12.250  67.675  1.00  0.00    -0.196 A  
HETATM   20  H   UNL     1      -6.739  13.537  69.685  1.00  0.00     0.000 HD 
HETATM   21  C   UNL     1      -9.987  10.843  67.612  1.00  0.00    -0.197 A  
HETATM   22  C   UNL     1      -9.054  10.003  68.250  1.00  0.00    -0.122 A  
HETATM   23  O   UNL     1      -9.243   8.630  68.197  1.00  0.00    -0.137 OA 
BRANCH  19  24
HETATM   24  O   UNL     1     -10.745  12.979  66.932  1.00  0.00    -0.259 OA 
BRANCH  24  25
HETATM   25  C   UNL     1     -10.410  14.307  66.442  1.00  0.00    -0.286 C  
HETATM   26  O   UNL     1     -10.457  15.350  67.429  1.00  0.00    -0.266 OA 
HETATM   27  C   UNL     1     -10.130  16.662  66.960  1.00  0.00    -0.281 C  
HETATM   28  H   UNL     1     -11.769  15.755  62.911  1.00  0.00     0.000 HD 
HETATM   29  C   UNL     1     -11.031  17.043  65.766  1.00  0.00     0.086 C  
HETATM   30  O   UNL     1     -10.960  13.637  64.140  1.00  0.00    -0.548 OA 
HETATM   31  C   UNL     1     -10.926  16.018  64.654  1.00  0.00    -0.278 C  
HETATM   32  O   UNL     1     -10.758  18.318  65.162  1.00  0.00    -0.586 OA 
HETATM   33  H   UNL     1     -11.313  18.553  64.428  1.00  0.00     0.000 HD 
HETATM   34  H   UNL     1     -11.466  13.823  63.358  1.00  0.00     0.000 HD 
HETATM   35  O   UNL     1     -11.835  16.397  63.608  1.00  0.00    -0.871 OA 
HETATM   36  C   UNL     1     -11.236  14.611  65.166  1.00  0.00    -0.374 C  
BRANCH  27  37
HETATM   37  C   UNL     1     -10.426  17.738  68.028  1.00  0.00    -0.394 C  
BRANCH  37  38
HETATM   38  O   UNL     1      -9.436  17.988  69.017  1.00  0.00    -0.224 OA 
BRANCH  38  39
HETATM   39  C   UNL     1      -8.271  18.624  68.422  1.00  0.00    -0.334 C  
HETATM   40  C   UNL     1      -7.581  19.845  66.431  1.00  0.00    -0.294 C  
HETATM   41  O   UNL     1      -8.632  19.211  67.168  1.00  0.00    -0.276 OA 
HETATM   42  C   UNL     1      -6.355  18.932  66.243  1.00  0.00    -0.185 C  
HETATM   43  C   UNL     1      -7.245  21.212  67.017  1.00  0.00    -0.223 C  
HETATM   44  O   UNL     1      -6.697  17.838  65.375  1.00  0.00    -0.299 OA 
HETATM   45  C   UNL     1      -5.880  18.338  67.569  1.00  0.00    -0.154 C  
HETATM   46  O   UNL     1      -5.238  19.316  68.391  1.00  0.00    -0.185 OA 
HETATM   47  C   UNL     1      -7.053  17.659  68.290  1.00  0.00    -0.223 C  
HETATM   48  H   UNL     1      -5.941  17.275  65.259  1.00  0.00     0.000 HD 
HETATM   49  H   UNL     1      -4.943  18.947  69.216  1.00  0.00     0.000 HD 
HETATM   50  O   UNL     1      -6.642  17.177  69.578  1.00  0.00    -0.236 OA 
HETATM   51  H   UNL     1      -5.900  16.589  69.498  1.00  0.00     0.000 HD 
ENDBRANCH  38  39
ENDBRANCH  37  38
ENDBRANCH  27  37
ENDBRANCH  24  25
ENDBRANCH  19  24
ENDBRANCH   7  11
ENDBRANCH   2   3
TORSDOF 7
ENDMDL
MODEL       80
REMARK 921   NORMALIZED FREE ENERGY PREDICTED BY IDOCK:   -6.02 KCAL/MOL
REMARK 922        TOTAL FREE ENERGY PREDICTED BY IDOCK:  -10.41 KCAL/MOL
REMARK 923 INTER-LIGAND FREE ENERGY PREDICTED BY IDOCK:   -9.57 KCAL/MOL
REMARK 924 INTRA-LIGAND FREE ENERGY PREDICTED BY IDOCK:   -0.84 KCAL/MOL
REMARK 927      BINDING AFFINITY PREDICTED BY RF-SCORE:    0.00 PKD
ROOT
HETATM    1  C   UNL     1      -9.924   1.707  64.137  1.00  0.00    -0.033 C  
HETATM    2  O   UNL     1      -8.853   2.266  64.892  1.00  0.00    -0.107 OA 
ENDROOT
BRANCH   2   3
HETATM    3  C   UNL     1      -9.042   3.559  65.307  1.00  0.00    -0.144 A  
HETATM    4  C   UNL     1      -8.340   4.526  64.591  1.00  0.00    -0.117 A  
HETATM    5  C   UNL     1      -8.424   5.877  64.922  1.00  0.00    -0.085 A  
HETATM    6  O   UNL     1      -7.526   4.165  63.552  1.00  0.00    -0.053 OA 
HETATM    7  C   UNL     1      -9.247   6.314  65.981  1.00  0.00    -0.103 A  
HETATM    8  H   UNL     1      -7.047   4.824  63.064  1.00  0.00     0.000 HD 
HETATM    9  C   UNL     1      -9.972   5.336  66.680  1.00  0.00    -0.227 A  
HETATM   10  C   UNL     1      -9.876   3.971  66.344  1.00  0.00    -0.178 A  
BRANCH   7  11
HETATM   11  C   UNL     1      -9.324   7.753  66.354  1.00  0.00    -0.181 C  
HETATM   12  C   UNL     1      -8.536   8.650  65.743  1.00  0.00    -0.165 C  
HETATM   13  C   UNL     1      -8.551  10.045  66.184  1.00  0.00    -0.133 C  
HETATM   14  O   UNL     1      -7.839  10.885  65.655  1.00  0.00    -0.118 OA 
HETATM   15  C   UNL     1      -9.439  10.386  67.294  1.00  0.00    -0.176 A  
HETATM   16  C   UNL     1      -9.455  11.672  67.825  1.00  0.00    -0.178 A  
HETATM   17  C   UNL     1     -10.336  12.008  68.847  1.00  0.00    -0.117 A  
HETATM   18  O   UNL     1      -8.644  12.678  67.376  1.00  0.00    -0.170 OA 
HETATM   19  C   UNL     1     -11.229  11.062  69.341  1.00  0.00    -0.268 A  
HETATM   20  H   UNL     1      -8.655  13.556  67.739  1.00  0.00     0.000 HD 
HETATM   21  C   UNL     1     -11.193   9.748  68.818  1.00  0.00    -0.070 A  
HETATM   22  C   UNL     1     -10.277   9.399  67.808  1.00  0.00    -0.222 A  
HETATM   23  O   UNL     1     -10.248   8.090  67.353  1.00  0.00    -0.212 OA 
BRANCH  19  24
HETATM   24  O   UNL     1     -12.227  11.334  70.237  1.00  0.00    -0.315 OA 
BRANCH  24  25
HETATM   25  C   UNL     1     -12.636  12.701  70.521  1.00  0.00    -0.100 C  
HETATM   26  O   UNL     1     -11.899  13.715  69.820  1.00  0.00    -0.294 OA 
HETATM   27  C   UNL     1     -12.291  15.065  70.091  1.00  0.00    -0.333 C  
HETATM   28  H   UNL     1     -13.475  14.011  74.261  1.00  0.00     0.000 HD 
HETATM   29  C   UNL     1     -12.233  15.344  71.608  1.00  0.00    -0.375 C  
HETATM   30  O   UNL     1     -13.631  11.998  72.658  1.00  0.00    -0.545 OA 
HETATM   31  C   UNL     1     -13.089  14.356  72.378  1.00  0.00    -0.415 C  
HETATM   32  O   UNL     1     -12.666  16.652  72.017  1.00  0.00    -0.068 OA 
HETATM   33  H   UNL     1     -12.631  16.823  72.950  1.00  0.00     0.000 HD 
HETATM   34  H   UNL     1     -13.668  12.129  73.598  1.00  0.00     0.000 HD 
HETATM   35  O   UNL     1     -12.938  14.630  73.779  1.00  0.00    -0.482 OA 
HETATM   36  C   UNL     1     -12.697  12.915  72.055  1.00  0.00    -0.044 C  
BRANCH  27  37
HETATM   37  C   UNL     1     -11.303  16.079  69.473  1.00  0.00    -0.344 C  
BRANCH  37  38
HETATM   38  O   UNL     1     -10.937  15.911  68.110  1.00  0.00    -0.309 OA 
BRANCH  38  39
HETATM   39  C   UNL     1      -9.561  16.334  67.898  1.00  0.00    -0.227 C  
HETATM   40  C   UNL     1      -8.079  18.231  68.259  1.00  0.00    -0.297 C  
HETATM   41  O   UNL     1      -9.376  17.651  68.426  1.00  0.00    -0.273 OA 
HETATM   42  C   UNL     1      -7.592  18.185  66.798  1.00  0.00    -0.223 C  
HETATM   43  C   UNL     1      -7.083  17.651  69.258  1.00  0.00    -0.120 C  
HETATM   44  O   UNL     1      -8.404  19.056  65.993  1.00  0.00    -0.449 OA 
HETATM   45  C   UNL     1      -7.697  16.779  66.209  1.00  0.00    -0.275 C  
HETATM   46  O   UNL     1      -6.703  15.902  66.746  1.00  0.00    -0.249 OA 
HETATM   47  C   UNL     1      -9.117  16.232  66.406  1.00  0.00    -0.301 C  
HETATM   48  H   UNL     1      -8.104  19.028  65.092  1.00  0.00     0.000 HD 
HETATM   49  H   UNL     1      -6.768  15.027  66.380  1.00  0.00     0.000 HD 
HETATM   50  O   UNL     1      -9.205  14.877  65.939  1.00  0.00    -0.479 OA 
HETATM   51  H   UNL     1      -8.934  14.815  65.031  1.00  0.00     0.000 HD 
ENDBRANCH  38  39
ENDBRANCH  37  38
ENDBRANCH  27  37
ENDBRANCH  24  25
ENDBRANCH  19  24
ENDBRANCH   7  11
ENDBRANCH   2   3
TORSDOF 7
ENDMDL
MODEL       81
REMARK 921   NORMALIZED FREE ENERGY PREDICTED BY IDOCK:   -6.01 KCAL/MOL
REMARK 922        TOTAL FREE ENERGY PREDICTED BY IDOCK:  -10.40 KCAL/MOL
REMARK 923 INTER-LIGAND FREE ENERGY PREDICTED BY IDOCK:   -8.88 KCAL/MOL
REMARK 924 INTRA-LIGAND FREE ENERGY PREDICTED BY IDOCK:   -1.52 KCAL/MOL
REMARK 927      BINDING AFFINITY PREDICTED BY RF-SCORE:    0.00 PKD
ROOT
HETATM    1  C   UNL     1      -9.152   2.005  66.665  1.00  0.00    -0.054 C  
HETATM    2  O   UNL     1      -8.504   3.120  66.057  1.00  0.00    -0.101 OA 
ENDROOT
BRANCH   2   3
HETATM    3  C   UNL     1      -9.032   4.346  66.372  1.00  0.00    -0.117 A  
HETATM    4  C   UNL     1      -8.116   5.392  66.443  1.00  0.00    -0.105 A  
HETATM    5  C   UNL     1      -8.516   6.686  66.775  1.00  0.00    -0.117 A  
HETATM    6  O   UNL     1      -6.786   5.167  66.208  1.00  0.00    -0.056 OA 
HETATM    7  C   UNL     1      -9.871   6.982  67.026  1.00  0.00    -0.239 A  
HETATM    8  H   UNL     1      -6.161   5.881  66.257  1.00  0.00     0.000 HD 
HETATM    9  C   UNL     1     -10.791   5.927  66.926  1.00  0.00    -0.376 A  
HETATM   10  C   UNL     1     -10.379   4.622  66.597  1.00  0.00    -0.205 A  
BRANCH   7  11
HETATM   11  C   UNL     1     -10.302   8.356  67.403  1.00  0.00    -0.285 C  
HETATM   12  C   UNL     1     -10.663   8.626  68.667  1.00  0.00    -0.092 C  
HETATM   13  C   UNL     1     -11.177   9.954  69.004  1.00  0.00    -0.087 C  
HETATM   14  O   UNL     1     -11.522  10.229  70.144  1.00  0.00    -0.266 OA 
HETATM   15  C   UNL     1     -11.276  10.928  67.920  1.00  0.00    -0.387 A  
HETATM   16  C   UNL     1     -11.828  12.186  68.140  1.00  0.00    -0.299 A  
HETATM   17  C   UNL     1     -11.875  13.130  67.121  1.00  0.00    -0.424 A  
HETATM   18  O   UNL     1     -12.328  12.583  69.350  1.00  0.00    -0.113 OA 
HETATM   19  C   UNL     1     -11.353  12.832  65.865  1.00  0.00    -0.324 A  
HETATM   20  H   UNL     1     -12.704  13.442  69.501  1.00  0.00     0.000 HD 
HETATM   21  C   UNL     1     -10.817  11.543  65.636  1.00  0.00    -0.310 A  
HETATM   22  C   UNL     1     -10.802  10.576  66.659  1.00  0.00    -0.096 A  
HETATM   23  O   UNL     1     -10.304   9.313  66.379  1.00  0.00    -0.251 OA 
BRANCH  19  24
HETATM   24  O   UNL     1     -11.222  13.737  64.847  1.00  0.00    -0.322 OA 
BRANCH  24  25
HETATM   25  C   UNL     1     -10.319  14.872  64.957  1.00  0.00    -0.370 C  
HETATM   26  O   UNL     1      -9.399  14.814  66.059  1.00  0.00    -0.284 OA 
HETATM   27  C   UNL     1      -8.504  15.926  66.178  1.00  0.00    -0.161 C  
HETATM   28  H   UNL     1     -11.529  18.703  64.434  1.00  0.00     0.000 HD 
HETATM   29  C   UNL     1      -9.299  17.247  66.241  1.00  0.00    -0.223 C  
HETATM   30  O   UNL     1     -11.857  16.271  63.643  1.00  0.00    -1.404 OA 
HETATM   31  C   UNL     1     -10.206  17.397  65.035  1.00  0.00     0.960 C  
HETATM   32  O   UNL     1      -8.509  18.446  66.299  1.00  0.00    -0.376 OA 
HETATM   33  H   UNL     1      -8.998  19.259  66.338  1.00  0.00     0.000 HD 
HETATM   34  H   UNL     1     -12.356  17.077  63.599  1.00  0.00     0.000 HD 
HETATM   35  O   UNL     1     -10.961  18.608  65.190  1.00  0.00    -0.543 OA 
HETATM   36  C   UNL     1     -11.132  16.190  64.885  1.00  0.00    -0.325 C  
BRANCH  27  37
HETATM   37  C   UNL     1      -7.718  15.882  67.506  1.00  0.00    -0.159 C  
BRANCH  37  38
HETATM   38  O   UNL     1      -6.346  15.516  67.460  1.00  0.00    -0.153 OA 
BRANCH  38  39
HETATM   39  C   UNL     1      -6.163  14.163  67.963  1.00  0.00    -0.145 C  
HETATM   40  C   UNL     1      -6.776  11.857  67.479  1.00  0.00    -0.111 C  
HETATM   41  O   UNL     1      -6.827  13.235  67.099  1.00  0.00    -0.120 OA 
HETATM   42  C   UNL     1      -7.229  11.626  68.934  1.00  0.00    -0.113 C  
HETATM   43  C   UNL     1      -5.418  11.244  67.154  1.00  0.00    -0.073 C  
HETATM   44  O   UNL     1      -8.634  11.907  69.051  1.00  0.00    -0.366 OA 
HETATM   45  C   UNL     1      -6.491  12.542  69.910  1.00  0.00     0.036 C  
HETATM   46  O   UNL     1      -5.130  12.141  70.091  1.00  0.00    -0.072 OA 
HETATM   47  C   UNL     1      -6.606  14.001  69.449  1.00  0.00    -0.118 C  
HETATM   48  H   UNL     1      -8.913  11.765  69.948  1.00  0.00     0.000 HD 
HETATM   49  H   UNL     1      -4.671  12.711  70.698  1.00  0.00     0.000 HD 
HETATM   50  O   UNL     1      -5.842  14.863  70.307  1.00  0.00    -0.132 OA 
HETATM   51  H   UNL     1      -6.112  14.764  71.212  1.00  0.00     0.000 HD 
ENDBRANCH  38  39
ENDBRANCH  37  38
ENDBRANCH  27  37
ENDBRANCH  24  25
ENDBRANCH  19  24
ENDBRANCH   7  11
ENDBRANCH   2   3
TORSDOF 7
ENDMDL
MODEL       82
REMARK 921   NORMALIZED FREE ENERGY PREDICTED BY IDOCK:   -5.98 KCAL/MOL
REMARK 922        TOTAL FREE ENERGY PREDICTED BY IDOCK:  -10.36 KCAL/MOL
REMARK 923 INTER-LIGAND FREE ENERGY PREDICTED BY IDOCK:   -9.28 KCAL/MOL
REMARK 924 INTRA-LIGAND FREE ENERGY PREDICTED BY IDOCK:   -1.08 KCAL/MOL
REMARK 927      BINDING AFFINITY PREDICTED BY RF-SCORE:    0.00 PKD
ROOT
HETATM    1  C   UNL     1      -7.843   5.196  65.801  1.00  0.00    -0.095 C  
HETATM    2  O   UNL     1      -7.263   6.303  65.116  1.00  0.00    -0.065 OA 
ENDROOT
BRANCH   2   3
HETATM    3  C   UNL     1      -8.007   7.456  65.132  1.00  0.00    -0.128 A  
HETATM    4  C   UNL     1      -7.745   8.352  64.100  1.00  0.00    -0.137 A  
HETATM    5  C   UNL     1      -8.414   9.572  64.010  1.00  0.00    -0.192 A  
HETATM    6  O   UNL     1      -6.800   8.063  63.153  1.00  0.00    -0.082 OA 
HETATM    7  C   UNL     1      -9.400   9.928  64.953  1.00  0.00    -0.329 A  
HETATM    8  H   UNL     1      -6.621   8.674  62.448  1.00  0.00     0.000 HD 
HETATM    9  C   UNL     1      -9.676   9.007  65.976  1.00  0.00    -0.339 A  
HETATM   10  C   UNL     1      -8.991   7.780  66.063  1.00  0.00    -0.185 A  
BRANCH   7  11
HETATM   11  C   UNL     1     -10.103  11.237  64.876  1.00  0.00    -0.281 C  
HETATM   12  C   UNL     1     -11.234  11.354  64.164  1.00  0.00    -0.327 C  
HETATM   13  C   UNL     1     -11.863  12.667  64.016  1.00  0.00    -0.431 C  
HETATM   14  O   UNL     1     -12.888  12.809  63.366  1.00  0.00    -0.667 OA 
HETATM   15  C   UNL     1     -11.204  13.801  64.660  1.00  0.00    -0.383 A  
HETATM   16  C   UNL     1     -11.694  15.094  64.503  1.00  0.00    -0.328 A  
HETATM   17  C   UNL     1     -11.097  16.165  65.158  1.00  0.00    -0.256 A  
HETATM   18  O   UNL     1     -12.784  15.393  63.732  1.00  0.00    -0.787 OA 
HETATM   19  C   UNL     1     -10.007  15.953  65.997  1.00  0.00    -0.334 A  
HETATM   20  H   UNL     1     -13.118  16.275  63.624  1.00  0.00     0.000 HD 
HETATM   21  C   UNL     1      -9.495  14.642  66.136  1.00  0.00    -0.308 A  
HETATM   22  C   UNL     1     -10.078  13.563  65.444  1.00  0.00    -0.262 A  
HETATM   23  O   UNL     1      -9.518  12.301  65.577  1.00  0.00    -0.154 OA 
BRANCH  19  24
HETATM   24  O   UNL     1      -9.446  16.914  66.794  1.00  0.00    -0.237 OA 
BRANCH  24  25
HETATM   25  C   UNL     1      -8.153  16.710  67.428  1.00  0.00    -0.167 C  
HETATM   26  O   UNL     1      -7.932  15.390  67.951  1.00  0.00    -0.126 OA 
HETATM   27  C   UNL     1      -6.663  15.177  68.578  1.00  0.00    -0.108 C  
HETATM   28  H   UNL     1      -6.475  19.427  69.921  1.00  0.00     0.000 HD 
HETATM   29  C   UNL     1      -6.436  16.216  69.696  1.00  0.00    -0.190 C  
HETATM   30  O   UNL     1      -7.913  19.129  67.802  1.00  0.00    -0.263 OA 
HETATM   31  C   UNL     1      -6.555  17.630  69.159  1.00  0.00    -0.251 C  
HETATM   32  O   UNL     1      -5.165  16.148  70.362  1.00  0.00    -0.157 OA 
HETATM   33  H   UNL     1      -5.026  16.787  71.050  1.00  0.00     0.000 HD 
HETATM   34  H   UNL     1      -7.755  19.824  68.430  1.00  0.00     0.000 HD 
HETATM   35  O   UNL     1      -6.401  18.541  70.258  1.00  0.00    -0.033 OA 
HETATM   36  C   UNL     1      -7.894  17.844  68.453  1.00  0.00    -0.286 C  
BRANCH  27  37
HETATM   37  C   UNL     1      -6.608  13.813  69.301  1.00  0.00    -0.113 C  
BRANCH  37  38
HETATM   38  O   UNL     1      -7.427  12.761  68.808  1.00  0.00    -0.111 OA 
BRANCH  38  39
HETATM   39  C   UNL     1      -7.178  11.534  69.548  1.00  0.00     0.070 C  
HETATM   40  C   UNL     1      -5.459   9.849  69.914  1.00  0.00    -0.037 C  
HETATM   41  O   UNL     1      -5.848  11.076  69.288  1.00  0.00    -0.041 OA 
HETATM   42  C   UNL     1      -6.460   8.708  69.655  1.00  0.00    -0.039 C  
HETATM   43  C   UNL     1      -5.136  10.061  71.389  1.00  0.00    -0.073 C  
HETATM   44  O   UNL     1      -6.428   8.345  68.264  1.00  0.00    -0.057 OA 
HETATM   45  C   UNL     1      -7.892   9.121  69.992  1.00  0.00    -0.099 C  
HETATM   46  O   UNL     1      -8.101   9.213  71.404  1.00  0.00    -0.318 OA 
HETATM   47  C   UNL     1      -8.244  10.429  69.271  1.00  0.00    -0.158 C  
HETATM   48  H   UNL     1      -7.046   7.641  68.104  1.00  0.00     0.000 HD 
HETATM   49  H   UNL     1      -8.992   9.470  71.614  1.00  0.00     0.000 HD 
HETATM   50  O   UNL     1      -9.554  10.878  69.650  1.00  0.00    -0.416 OA 
HETATM   51  H   UNL     1     -10.204  10.205  69.482  1.00  0.00     0.000 HD 
ENDBRANCH  38  39
ENDBRANCH  37  38
ENDBRANCH  27  37
ENDBRANCH  24  25
ENDBRANCH  19  24
ENDBRANCH   7  11
ENDBRANCH   2   3
TORSDOF 7
ENDMDL
MODEL       83
REMARK 921   NORMALIZED FREE ENERGY PREDICTED BY IDOCK:   -5.95 KCAL/MOL
REMARK 922        TOTAL FREE ENERGY PREDICTED BY IDOCK:  -10.31 KCAL/MOL
REMARK 923 INTER-LIGAND FREE ENERGY PREDICTED BY IDOCK:   -7.92 KCAL/MOL
REMARK 924 INTRA-LIGAND FREE ENERGY PREDICTED BY IDOCK:   -2.39 KCAL/MOL
REMARK 927      BINDING AFFINITY PREDICTED BY RF-SCORE:    0.00 PKD
ROOT
HETATM    1  C   UNL     1     -11.861  15.373  64.490  1.00  0.00    -0.256 C  
HETATM    2  O   UNL     1     -12.568  14.142  64.364  1.00  0.00    -0.658 OA 
ENDROOT
BRANCH   2   3
HETATM    3  C   UNL     1     -11.801  13.012  64.485  1.00  0.00    -0.377 A  
HETATM    4  C   UNL     1     -11.779  12.434  65.752  1.00  0.00    -0.414 A  
HETATM    5  C   UNL     1     -11.022  11.295  66.018  1.00  0.00    -0.237 A  
HETATM    6  O   UNL     1     -12.491  12.992  66.780  1.00  0.00    -0.324 OA 
HETATM    7  C   UNL     1     -10.269  10.673  65.001  1.00  0.00    -0.380 A  
HETATM    8  H   UNL     1     -12.476  12.599  67.644  1.00  0.00     0.000 HD 
HETATM    9  C   UNL     1     -10.318  11.246  63.720  1.00  0.00    -0.453 A  
HETATM   10  C   UNL     1     -11.080  12.401  63.461  1.00  0.00    -0.521 A  
BRANCH   7  11
HETATM   11  C   UNL     1      -9.441   9.469  65.283  1.00  0.00    -0.258 C  
HETATM   12  C   UNL     1      -8.201   9.372  64.779  1.00  0.00    -0.145 C  
HETATM   13  C   UNL     1      -7.432   8.143  64.981  1.00  0.00    -0.087 C  
HETATM   14  O   UNL     1      -6.305   8.019  64.528  1.00  0.00    -0.055 OA 
HETATM   15  C   UNL     1      -8.077   7.067  65.731  1.00  0.00    -0.123 A  
HETATM   16  C   UNL     1      -7.446   5.838  65.900  1.00  0.00    -0.078 A  
HETATM   17  C   UNL     1      -8.037   4.833  66.657  1.00  0.00    -0.107 A  
HETATM   18  O   UNL     1      -6.219   5.547  65.368  1.00  0.00    -0.032 OA 
HETATM   19  C   UNL     1      -9.267   5.051  67.272  1.00  0.00    -0.121 A  
HETATM   20  H   UNL     1      -5.788   4.709  65.484  1.00  0.00     0.000 HD 
HETATM   21  C   UNL     1      -9.919   6.291  67.077  1.00  0.00    -0.201 A  
HETATM   22  C   UNL     1      -9.335   7.296  66.282  1.00  0.00    -0.108 A  
HETATM   23  O   UNL     1     -10.028   8.481  66.084  1.00  0.00    -0.239 OA 
BRANCH  19  24
HETATM   24  O   UNL     1      -9.857   4.183  68.150  1.00  0.00    -0.117 OA 
BRANCH  24  25
HETATM   25  C   UNL     1      -9.565   4.233  69.573  1.00  0.00    -0.204 C  
HETATM   26  O   UNL     1      -8.867   5.410  70.011  1.00  0.00    -0.122 OA 
HETATM   27  C   UNL     1      -8.573   5.471  71.411  1.00  0.00    -0.131 C  
HETATM   28  H   UNL     1      -8.208   1.032  71.653  1.00  0.00     0.000 HD 
HETATM   29  C   UNL     1      -7.788   4.217  71.848  1.00  0.00    -0.080 C  
HETATM   30  O   UNL     1      -9.761   1.787  69.737  1.00  0.00    -0.034 OA 
HETATM   31  C   UNL     1      -8.546   2.950  71.499  1.00  0.00    -0.065 C  
HETATM   32  O   UNL     1      -7.486   4.128  73.250  1.00  0.00    -0.072 OA 
HETATM   33  H   UNL     1      -7.003   3.356  73.519  1.00  0.00     0.000 HD 
HETATM   34  H   UNL     1      -9.350   0.973  70.005  1.00  0.00     0.000 HD 
HETATM   35  O   UNL     1      -7.733   1.825  71.871  1.00  0.00    -0.039 OA 
HETATM   36  C   UNL     1      -8.895   2.905  70.012  1.00  0.00    -0.087 C  
BRANCH  27  37
HETATM   37  C   UNL     1      -7.633   6.651  71.743  1.00  0.00    -0.093 C  
BRANCH  37  38
HETATM   38  O   UNL     1      -8.217   7.862  72.204  1.00  0.00    -0.107 OA 
BRANCH  38  39
HETATM   39  C   UNL     1      -8.018   8.925  71.230  1.00  0.00    -0.129 C  
HETATM   40  C   UNL     1      -8.498   9.494  68.912  1.00  0.00    -0.123 C  
HETATM   41  O   UNL     1      -8.639   8.566  69.992  1.00  0.00    -0.128 OA 
HETATM   42  C   UNL     1      -7.032   9.892  68.660  1.00  0.00    -0.062 C  
HETATM   43  C   UNL     1      -9.438  10.683  69.080  1.00  0.00    -0.185 C  
HETATM   44  O   UNL     1      -6.303   8.757  68.163  1.00  0.00    -0.054 OA 
HETATM   45  C   UNL     1      -6.342  10.359  69.942  1.00  0.00    -0.095 C  
HETATM   46  O   UNL     1      -6.800  11.651  70.352  1.00  0.00    -0.439 OA 
HETATM   47  C   UNL     1      -6.517   9.308  71.045  1.00  0.00    -0.086 C  
HETATM   48  H   UNL     1      -5.398   9.003  68.008  1.00  0.00     0.000 HD 
HETATM   49  H   UNL     1      -6.372  11.941  71.149  1.00  0.00     0.000 HD 
HETATM   50  O   UNL     1      -5.953   9.773  72.281  1.00  0.00    -0.295 OA 
HETATM   51  H   UNL     1      -5.039  10.006  72.168  1.00  0.00     0.000 HD 
ENDBRANCH  38  39
ENDBRANCH  37  38
ENDBRANCH  27  37
ENDBRANCH  24  25
ENDBRANCH  19  24
ENDBRANCH   7  11
ENDBRANCH   2   3
TORSDOF 7
ENDMDL
MODEL       84
REMARK 921   NORMALIZED FREE ENERGY PREDICTED BY IDOCK:   -5.94 KCAL/MOL
REMARK 922        TOTAL FREE ENERGY PREDICTED BY IDOCK:  -10.31 KCAL/MOL
REMARK 923 INTER-LIGAND FREE ENERGY PREDICTED BY IDOCK:   -8.52 KCAL/MOL
REMARK 924 INTRA-LIGAND FREE ENERGY PREDICTED BY IDOCK:   -1.79 KCAL/MOL
REMARK 927      BINDING AFFINITY PREDICTED BY RF-SCORE:    0.00 PKD
ROOT
HETATM    1  C   UNL     1      -7.354   6.866  69.722  1.00  0.00    -0.085 C  
HETATM    2  O   UNL     1      -6.832   7.593  68.613  1.00  0.00    -0.062 OA 
ENDROOT
BRANCH   2   3
HETATM    3  C   UNL     1      -7.690   8.508  68.059  1.00  0.00    -0.103 A  
HETATM    4  C   UNL     1      -7.160   9.279  67.027  1.00  0.00    -0.086 A  
HETATM    5  C   UNL     1      -7.916  10.261  66.391  1.00  0.00    -0.121 A  
HETATM    6  O   UNL     1      -5.863   9.101  66.625  1.00  0.00    -0.056 OA 
HETATM    7  C   UNL     1      -9.258  10.491  66.758  1.00  0.00    -0.175 A  
HETATM    8  H   UNL     1      -5.501   9.626  65.921  1.00  0.00     0.000 HD 
HETATM    9  C   UNL     1      -9.794   9.693  67.781  1.00  0.00    -0.192 A  
HETATM   10  C   UNL     1      -9.020   8.707  68.423  1.00  0.00    -0.142 A  
BRANCH   7  11
HETATM   11  C   UNL     1     -10.066  11.554  66.099  1.00  0.00    -0.229 C  
HETATM   12  C   UNL     1     -11.051  11.222  65.250  1.00  0.00    -0.146 C  
HETATM   13  C   UNL     1     -11.774  12.274  64.534  1.00  0.00    -0.353 C  
HETATM   14  O   UNL     1     -12.670  12.005  63.749  1.00  0.00    -0.608 OA 
HETATM   15  C   UNL     1     -11.367  13.655  64.785  1.00  0.00    -0.365 A  
HETATM   16  C   UNL     1     -11.949  14.708  64.087  1.00  0.00    -0.292 A  
HETATM   17  C   UNL     1     -11.598  16.024  64.363  1.00  0.00    -0.212 A  
HETATM   18  O   UNL     1     -12.902  14.530  63.121  1.00  0.00    -0.433 OA 
HETATM   19  C   UNL     1     -10.667  16.307  65.358  1.00  0.00    -0.327 A  
HETATM   20  H   UNL     1     -13.300  15.249  62.645  1.00  0.00     0.000 HD 
HETATM   21  C   UNL     1     -10.057  15.234  66.048  1.00  0.00    -0.340 A  
HETATM   22  C   UNL     1     -10.387  13.900  65.744  1.00  0.00    -0.316 A  
HETATM   23  O   UNL     1      -9.735  12.878  66.417  1.00  0.00    -0.254 OA 
BRANCH  19  24
HETATM   24  O   UNL     1     -10.366  17.567  65.801  1.00  0.00    -0.560 OA 
BRANCH  24  25
HETATM   25  C   UNL     1      -9.060  17.879  66.361  1.00  0.00    -0.235 C  
HETATM   26  O   UNL     1      -8.748  17.206  67.591  1.00  0.00    -0.210 OA 
HETATM   27  C   UNL     1      -7.466  17.505  68.153  1.00  0.00    -0.218 C  
HETATM   28  H   UNL     1      -7.567  21.643  66.489  1.00  0.00     0.000 HD 
HETATM   29  C   UNL     1      -7.309  19.028  68.347  1.00  0.00    -0.295 C  
HETATM   30  O   UNL     1      -8.986  19.993  65.106  1.00  0.00    -0.042 OA 
HETATM   31  C   UNL     1      -7.525  19.770  67.042  1.00  0.00    -0.238 C  
HETATM   32  O   UNL     1      -6.035  19.464  68.848  1.00  0.00    -0.220 OA 
HETATM   33  H   UNL     1      -5.939  20.401  68.967  1.00  0.00     0.000 HD 
HETATM   34  H   UNL     1      -8.875  20.935  65.143  1.00  0.00     0.000 HD 
HETATM   35  O   UNL     1      -7.432  21.178  67.306  1.00  0.00    -0.412 OA 
HETATM   36  C   UNL     1      -8.878  19.417  66.422  1.00  0.00    -0.359 C  
BRANCH  27  37
HETATM   37  C   UNL     1      -7.316  16.916  69.573  1.00  0.00     0.106 C  
BRANCH  37  38
HETATM   38  O   UNL     1      -8.208  15.881  69.966  1.00  0.00     0.265 OA 
BRANCH  38  39
HETATM   39  C   UNL     1      -7.530  14.594  69.951  1.00  0.00     0.118 C  
HETATM   40  C   UNL     1      -5.308  13.617  69.760  1.00  0.00    -0.090 C  
HETATM   41  O   UNL     1      -6.119  14.794  69.830  1.00  0.00    -0.111 OA 
HETATM   42  C   UNL     1      -5.788  12.631  68.677  1.00  0.00    -0.063 C  
HETATM   43  C   UNL     1      -5.136  12.983  71.136  1.00  0.00    -0.159 C  
HETATM   44  O   UNL     1      -5.577  13.204  67.376  1.00  0.00    -0.320 OA 
HETATM   45  C   UNL     1      -7.278  12.322  68.811  1.00  0.00    -0.098 C  
HETATM   46  O   UNL     1      -7.549  11.482  69.937  1.00  0.00    -0.185 OA 
HETATM   47  C   UNL     1      -8.083  13.628  68.859  1.00  0.00     0.093 C  
HETATM   48  H   UNL     1      -5.873  12.596  66.709  1.00  0.00     0.000 HD 
HETATM   49  H   UNL     1      -8.476  11.290  70.020  1.00  0.00     0.000 HD 
HETATM   50  O   UNL     1      -9.475  13.355  69.075  1.00  0.00    -0.390 OA 
HETATM   51  H   UNL     1      -9.812  12.767  68.410  1.00  0.00     0.000 HD 
ENDBRANCH  38  39
ENDBRANCH  37  38
ENDBRANCH  27  37
ENDBRANCH  24  25
ENDBRANCH  19  24
ENDBRANCH   7  11
ENDBRANCH   2   3
TORSDOF 7
ENDMDL
MODEL       85
REMARK 921   NORMALIZED FREE ENERGY PREDICTED BY IDOCK:   -5.94 KCAL/MOL
REMARK 922        TOTAL FREE ENERGY PREDICTED BY IDOCK:  -10.30 KCAL/MOL
REMARK 923 INTER-LIGAND FREE ENERGY PREDICTED BY IDOCK:   -8.94 KCAL/MOL
REMARK 924 INTRA-LIGAND FREE ENERGY PREDICTED BY IDOCK:   -1.36 KCAL/MOL
REMARK 927      BINDING AFFINITY PREDICTED BY RF-SCORE:    0.00 PKD
ROOT
HETATM    1  C   UNL     1      -5.793   4.933  64.859  1.00  0.00    -0.017 C  
HETATM    2  O   UNL     1      -5.309   6.240  64.558  1.00  0.00    -0.017 OA 
ENDROOT
BRANCH   2   3
HETATM    3  C   UNL     1      -6.216   7.254  64.736  1.00  0.00    -0.037 A  
HETATM    4  C   UNL     1      -6.720   7.819  63.567  1.00  0.00    -0.062 A  
HETATM    5  C   UNL     1      -7.631   8.873  63.604  1.00  0.00    -0.118 A  
HETATM    6  O   UNL     1      -6.309   7.362  62.343  1.00  0.00    -0.060 OA 
HETATM    7  C   UNL     1      -8.093   9.387  64.833  1.00  0.00    -0.128 A  
HETATM    8  H   UNL     1      -6.653   7.747  61.546  1.00  0.00     0.000 HD 
HETATM    9  C   UNL     1      -7.600   8.794  66.006  1.00  0.00    -0.093 A  
HETATM   10  C   UNL     1      -6.674   7.734  65.960  1.00  0.00    -0.049 A  
BRANCH   7  11
HETATM   11  C   UNL     1      -9.049  10.527  64.881  1.00  0.00    -0.205 C  
HETATM   12  C   UNL     1      -9.751  10.863  63.788  1.00  0.00    -0.354 C  
HETATM   13  C   UNL     1     -10.615  12.043  63.818  1.00  0.00    -0.430 C  
HETATM   14  O   UNL     1     -11.261  12.382  62.838  1.00  0.00    -0.090 OA 
HETATM   15  C   UNL     1     -10.657  12.809  65.062  1.00  0.00    -0.330 A  
HETATM   16  C   UNL     1     -11.392  13.988  65.149  1.00  0.00    -0.328 A  
HETATM   17  C   UNL     1     -11.473  14.688  66.347  1.00  0.00    -0.348 A  
HETATM   18  O   UNL     1     -12.088  14.516  64.096  1.00  0.00    -0.615 OA 
HETATM   19  C   UNL     1     -10.831  14.207  67.485  1.00  0.00    -0.275 A  
HETATM   20  H   UNL     1     -12.589  15.320  64.155  1.00  0.00     0.000 HD 
HETATM   21  C   UNL     1     -10.064  13.023  67.388  1.00  0.00    -0.231 A  
HETATM   22  C   UNL     1      -9.954  12.333  66.165  1.00  0.00    -0.243 A  
HETATM   23  O   UNL     1      -9.158  11.199  66.105  1.00  0.00    -0.189 OA 
BRANCH  19  24
HETATM   24  O   UNL     1     -10.971  14.742  68.737  1.00  0.00    -0.240 OA 
BRANCH  24  25
HETATM   25  C   UNL     1     -11.298  13.908  69.883  1.00  0.00    -0.111 C  
HETATM   26  O   UNL     1     -11.227  12.493  69.647  1.00  0.00    -0.154 OA 
HETATM   27  C   UNL     1     -11.547  11.661  70.767  1.00  0.00     0.423 C  
HETATM   28  H   UNL     1     -14.414  14.690  72.351  1.00  0.00     0.000 HD 
HETATM   29  C   UNL     1     -12.943  12.020  71.319  1.00  0.00    -0.217 C  
HETATM   30  O   UNL     1     -12.557  15.754  70.912  1.00  0.00    -0.444 OA 
HETATM   31  C   UNL     1     -13.024  13.491  71.682  1.00  0.00    -0.359 C  
HETATM   32  O   UNL     1     -13.356  11.296  72.489  1.00  0.00    -0.506 OA 
HETATM   33  H   UNL     1     -14.214  11.517  72.828  1.00  0.00     0.000 HD 
HETATM   34  H   UNL     1     -13.381  16.041  71.288  1.00  0.00     0.000 HD 
HETATM   35  O   UNL     1     -14.363  13.769  72.123  1.00  0.00    -0.500 OA 
HETATM   36  C   UNL     1     -12.643  14.377  70.497  1.00  0.00    -0.353 C  
BRANCH  27  37
HETATM   37  C   UNL     1     -11.662  10.176  70.359  1.00  0.00    -0.308 C  
BRANCH  37  38
HETATM   38  O   UNL     1     -10.927   9.736  69.225  1.00  0.00    -0.228 OA 
BRANCH  38  39
HETATM   39  C   UNL     1      -9.970   8.709  69.607  1.00  0.00    -0.191 C  
HETATM   40  C   UNL     1      -9.853   6.512  70.650  1.00  0.00    -0.183 C  
HETATM   41  O   UNL     1     -10.661   7.596  70.182  1.00  0.00    -0.233 OA 
HETATM   42  C   UNL     1      -8.733   6.975  71.601  1.00  0.00    -0.116 C  
HETATM   43  C   UNL     1      -9.358   5.653  69.491  1.00  0.00    -0.165 C  
HETATM   44  O   UNL     1      -9.311   7.455  72.827  1.00  0.00    -0.142 OA 
HETATM   45  C   UNL     1      -7.912   8.116  71.000  1.00  0.00    -0.095 C  
HETATM   46  O   UNL     1      -7.060   7.660  69.946  1.00  0.00    -0.060 OA 
HETATM   47  C   UNL     1      -8.842   9.247  70.541  1.00  0.00    -0.241 C  
HETATM   48  H   UNL     1      -8.621   7.741  73.414  1.00  0.00     0.000 HD 
HETATM   49  H   UNL     1      -6.550   8.369  69.572  1.00  0.00     0.000 HD 
HETATM   50  O   UNL     1      -8.093  10.285  69.892  1.00  0.00    -0.292 OA 
HETATM   51  H   UNL     1      -7.406  10.612  70.461  1.00  0.00     0.000 HD 
ENDBRANCH  38  39
ENDBRANCH  37  38
ENDBRANCH  27  37
ENDBRANCH  24  25
ENDBRANCH  19  24
ENDBRANCH   7  11
ENDBRANCH   2   3
TORSDOF 7
ENDMDL
MODEL       86
REMARK 921   NORMALIZED FREE ENERGY PREDICTED BY IDOCK:   -5.92 KCAL/MOL
REMARK 922        TOTAL FREE ENERGY PREDICTED BY IDOCK:  -10.28 KCAL/MOL
REMARK 923 INTER-LIGAND FREE ENERGY PREDICTED BY IDOCK:   -9.67 KCAL/MOL
REMARK 924 INTRA-LIGAND FREE ENERGY PREDICTED BY IDOCK:   -0.60 KCAL/MOL
REMARK 927      BINDING AFFINITY PREDICTED BY RF-SCORE:    0.00 PKD
ROOT
HETATM    1  C   UNL     1      -8.880   5.386  67.396  1.00  0.00    -0.105 C  
HETATM    2  O   UNL     1      -8.285   6.677  67.300  1.00  0.00    -0.118 OA 
ENDROOT
BRANCH   2   3
HETATM    3  C   UNL     1      -9.022   7.702  67.834  1.00  0.00    -0.128 A  
HETATM    4  C   UNL     1      -8.589   8.170  69.072  1.00  0.00    -0.133 A  
HETATM    5  C   UNL     1      -9.262   9.193  69.738  1.00  0.00    -0.179 A  
HETATM    6  O   UNL     1      -7.495   7.614  69.680  1.00  0.00    -0.087 OA 
HETATM    7  C   UNL     1     -10.393   9.808  69.164  1.00  0.00    -0.225 A  
HETATM    8  H   UNL     1      -7.200   7.932  70.524  1.00  0.00     0.000 HD 
HETATM    9  C   UNL     1     -10.808   9.349  67.904  1.00  0.00    -0.215 A  
HETATM   10  C   UNL     1     -10.127   8.309  67.241  1.00  0.00    -0.315 A  
BRANCH   7  11
HETATM   11  C   UNL     1     -11.130  10.886  69.879  1.00  0.00    -0.241 C  
HETATM   12  C   UNL     1     -12.137  10.577  70.710  1.00  0.00    -0.470 C  
HETATM   13  C   UNL     1     -12.917  11.648  71.331  1.00  0.00    -0.324 C  
HETATM   14  O   UNL     1     -13.845  11.401  72.085  1.00  0.00    -0.037 OA 
HETATM   15  C   UNL     1     -12.549  13.023  70.997  1.00  0.00    -0.386 A  
HETATM   16  C   UNL     1     -13.289  14.096  71.483  1.00  0.00    -0.351 A  
HETATM   17  C   UNL     1     -12.908  15.405  71.207  1.00  0.00    -0.519 A  
HETATM   18  O   UNL     1     -14.400  13.947  72.267  1.00  0.00    -0.576 OA 
HETATM   19  C   UNL     1     -11.767  15.658  70.452  1.00  0.00    -0.357 A  
HETATM   20  H   UNL     1     -14.905  14.680  72.599  1.00  0.00     0.000 HD 
HETATM   21  C   UNL     1     -11.031  14.565  69.937  1.00  0.00    -0.147 A  
HETATM   22  C   UNL     1     -11.437  13.240  70.187  1.00  0.00     0.035 A  
HETATM   23  O   UNL     1     -10.710  12.200  69.629  1.00  0.00     0.108 OA 
BRANCH  19  24
HETATM   24  O   UNL     1     -11.232  16.901  70.251  1.00  0.00    -0.038 OA 
BRANCH  24  25
HETATM   25  C   UNL     1     -10.827  17.344  68.926  1.00  0.00    -0.009 C  
HETATM   26  O   UNL     1     -10.296  16.316  68.075  1.00  0.00    -0.261 OA 
HETATM   27  C   UNL     1      -9.893  16.740  66.768  1.00  0.00    -0.276 C  
HETATM   28  H   UNL     1      -8.783  20.784  68.289  1.00  0.00     0.000 HD 
HETATM   29  C   UNL     1      -8.877  17.897  66.870  1.00  0.00    -0.253 C  
HETATM   30  O   UNL     1     -10.602  19.659  69.728  1.00  0.00    -0.252 OA 
HETATM   31  C   UNL     1      -9.444  19.052  67.674  1.00  0.00    -0.306 C  
HETATM   32  O   UNL     1      -8.442  18.455  65.620  1.00  0.00    -0.344 OA 
HETATM   33  H   UNL     1      -7.817  19.167  65.683  1.00  0.00     0.000 HD 
HETATM   34  H   UNL     1     -10.042  20.421  69.807  1.00  0.00     0.000 HD 
HETATM   35  O   UNL     1      -8.428  20.060  67.786  1.00  0.00    -0.307 OA 
HETATM   36  C   UNL     1      -9.911  18.589  69.054  1.00  0.00    -0.285 C  
BRANCH  27  37
HETATM   37  C   UNL     1      -9.135  15.623  66.017  1.00  0.00    -0.311 C  
BRANCH  37  38
HETATM   38  O   UNL     1      -9.568  15.285  64.706  1.00  0.00     0.074 OA 
BRANCH  38  39
HETATM   39  C   UNL     1     -10.192  13.970  64.701  1.00  0.00    -0.210 C  
HETATM   40  C   UNL     1     -12.355  12.894  64.401  1.00  0.00    -0.398 C  
HETATM   41  O   UNL     1     -11.586  14.100  64.404  1.00  0.00    -0.389 OA 
HETATM   42  C   UNL     1     -12.174  12.071  65.691  1.00  0.00     0.218 C  
HETATM   43  C   UNL     1     -12.120  12.094  63.124  1.00  0.00    -0.351 C  
HETATM   44  O   UNL     1     -12.753  12.781  66.799  1.00  0.00     0.021 OA 
HETATM   45  C   UNL     1     -10.698  11.838  66.013  1.00  0.00    -0.279 C  
HETATM   46  O   UNL     1     -10.104  10.889  65.123  1.00  0.00    -0.256 OA 
HETATM   47  C   UNL     1      -9.944  13.174  66.019  1.00  0.00    -0.280 C  
HETATM   48  H   UNL     1     -12.642  12.274  67.595  1.00  0.00     0.000 HD 
HETATM   49  H   UNL     1      -9.186  10.743  65.322  1.00  0.00     0.000 HD 
HETATM   50  O   UNL     1      -8.540  12.960  66.229  1.00  0.00    -0.406 OA 
HETATM   51  H   UNL     1      -8.389  12.475  67.032  1.00  0.00     0.000 HD 
ENDBRANCH  38  39
ENDBRANCH  37  38
ENDBRANCH  27  37
ENDBRANCH  24  25
ENDBRANCH  19  24
ENDBRANCH   7  11
ENDBRANCH   2   3
TORSDOF 7
ENDMDL
MODEL       87
REMARK 921   NORMALIZED FREE ENERGY PREDICTED BY IDOCK:   -5.92 KCAL/MOL
REMARK 922        TOTAL FREE ENERGY PREDICTED BY IDOCK:  -10.28 KCAL/MOL
REMARK 923 INTER-LIGAND FREE ENERGY PREDICTED BY IDOCK:   -9.21 KCAL/MOL
REMARK 924 INTRA-LIGAND FREE ENERGY PREDICTED BY IDOCK:   -1.06 KCAL/MOL
REMARK 927      BINDING AFFINITY PREDICTED BY RF-SCORE:    0.00 PKD
ROOT
HETATM    1  C   UNL     1      -8.542   5.362  68.466  1.00  0.00    -0.098 C  
HETATM    2  O   UNL     1      -9.949   5.577  68.508  1.00  0.00    -0.138 OA 
ENDROOT
BRANCH   2   3
HETATM    3  C   UNL     1     -10.337   6.835  68.894  1.00  0.00    -0.192 A  
HETATM    4  C   UNL     1     -11.103   6.896  70.055  1.00  0.00    -0.299 A  
HETATM    5  C   UNL     1     -11.582   8.109  70.546  1.00  0.00    -0.130 A  
HETATM    6  O   UNL     1     -11.425   5.752  70.735  1.00  0.00    -0.152 OA 
HETATM    7  C   UNL     1     -11.284   9.323  69.892  1.00  0.00    -0.145 A  
HETATM    8  H   UNL     1     -11.947   5.794  71.527  1.00  0.00     0.000 HD 
HETATM    9  C   UNL     1     -10.489   9.255  68.737  1.00  0.00    -0.233 A  
HETATM   10  C   UNL     1     -10.015   8.024  68.244  1.00  0.00    -0.210 A  
BRANCH   7  11
HETATM   11  C   UNL     1     -11.811  10.620  70.398  1.00  0.00    -0.349 C  
HETATM   12  C   UNL     1     -12.676  10.642  71.424  1.00  0.00    -0.545 C  
HETATM   13  C   UNL     1     -13.261  11.914  71.849  1.00  0.00    -0.362 C  
HETATM   14  O   UNL     1     -14.058  11.967  72.773  1.00  0.00     0.411 OA 
HETATM   15  C   UNL     1     -12.866  13.112  71.111  1.00  0.00    -0.349 A  
HETATM   16  C   UNL     1     -13.436  14.348  71.401  1.00  0.00    -0.351 A  
HETATM   17  C   UNL     1     -13.022  15.495  70.733  1.00  0.00    -0.490 A  
HETATM   18  O   UNL     1     -14.401  14.522  72.355  1.00  0.00    -0.463 OA 
HETATM   19  C   UNL     1     -12.015  15.423  69.775  1.00  0.00    -0.358 A  
HETATM   20  H   UNL     1     -14.789  15.366  72.553  1.00  0.00     0.000 HD 
HETATM   21  C   UNL     1     -11.456  14.162  69.463  1.00  0.00    -0.334 A  
HETATM   22  C   UNL     1     -11.900  12.996  70.114  1.00  0.00    -0.252 A  
HETATM   23  O   UNL     1     -11.354  11.775  69.749  1.00  0.00    -0.244 OA 
BRANCH  19  24
HETATM   24  O   UNL     1     -11.441  16.510  69.173  1.00  0.00    -0.237 OA 
BRANCH  24  25
HETATM   25  C   UNL     1     -10.283  16.369  68.304  1.00  0.00    -0.255 C  
HETATM   26  O   UNL     1      -9.939  15.017  67.962  1.00  0.00    -0.216 OA 
HETATM   27  C   UNL     1      -8.801  14.864  67.107  1.00  0.00    -0.217 C  
HETATM   28  H   UNL     1      -6.886  18.520  68.804  1.00  0.00     0.000 HD 
HETATM   29  C   UNL     1      -7.572  15.567  67.723  1.00  0.00    -0.145 C  
HETATM   30  O   UNL     1      -9.458  18.585  68.983  1.00  0.00    -0.271 OA 
HETATM   31  C   UNL     1      -7.861  17.029  68.000  1.00  0.00    -0.182 C  
HETATM   32  O   UNL     1      -6.376  15.540  66.928  1.00  0.00    -0.217 OA 
HETATM   33  H   UNL     1      -5.620  15.972  67.307  1.00  0.00     0.000 HD 
HETATM   34  H   UNL     1      -8.735  19.089  69.336  1.00  0.00     0.000 HD 
HETATM   35  O   UNL     1      -6.706  17.603  68.631  1.00  0.00    -0.199 OA 
HETATM   36  C   UNL     1      -9.102  17.192  68.879  1.00  0.00    -0.192 C  
BRANCH  27  37
HETATM   37  C   UNL     1      -8.378  13.384  66.982  1.00  0.00    -0.075 C  
BRANCH  37  38
HETATM   38  O   UNL     1      -9.376  12.387  67.155  1.00  0.00    -0.187 OA 
BRANCH  38  39
HETATM   39  C   UNL     1     -10.119  12.191  65.921  1.00  0.00    -0.245 C  
HETATM   40  C   UNL     1     -10.104  12.828  63.571  1.00  0.00     0.308 C  
HETATM   41  O   UNL     1      -9.471  12.888  64.852  1.00  0.00     0.170 OA 
HETATM   42  C   UNL     1     -11.591  13.229  63.625  1.00  0.00    -0.325 C  
HETATM   43  C   UNL     1      -9.854  11.485  62.894  1.00  0.00    -0.279 C  
HETATM   44  O   UNL     1     -11.701  14.628  63.937  1.00  0.00    -0.667 OA 
HETATM   45  C   UNL     1     -12.349  12.454  64.702  1.00  0.00    -0.441 C  
HETATM   46  O   UNL     1     -12.555  11.088  64.329  1.00  0.00     0.772 OA 
HETATM   47  C   UNL     1     -11.624  12.581  66.048  1.00  0.00    -0.406 C  
HETATM   48  H   UNL     1     -12.618  14.875  63.970  1.00  0.00     0.000 HD 
HETATM   49  H   UNL     1     -13.027  10.606  64.998  1.00  0.00     0.000 HD 
HETATM   50  O   UNL     1     -12.275  11.783  67.049  1.00  0.00    -0.425 OA 
HETATM   51  H   UNL     1     -13.192  12.021  67.126  1.00  0.00     0.000 HD 
ENDBRANCH  38  39
ENDBRANCH  37  38
ENDBRANCH  27  37
ENDBRANCH  24  25
ENDBRANCH  19  24
ENDBRANCH   7  11
ENDBRANCH   2   3
TORSDOF 7
ENDMDL
MODEL       88
REMARK 921   NORMALIZED FREE ENERGY PREDICTED BY IDOCK:   -5.88 KCAL/MOL
REMARK 922        TOTAL FREE ENERGY PREDICTED BY IDOCK:  -10.22 KCAL/MOL
REMARK 923 INTER-LIGAND FREE ENERGY PREDICTED BY IDOCK:   -9.23 KCAL/MOL
REMARK 924 INTRA-LIGAND FREE ENERGY PREDICTED BY IDOCK:   -0.99 KCAL/MOL
REMARK 927      BINDING AFFINITY PREDICTED BY RF-SCORE:    0.00 PKD
ROOT
HETATM    1  C   UNL     1      -7.193   6.074  67.629  1.00  0.00    -0.076 C  
HETATM    2  O   UNL     1      -6.711   7.045  66.705  1.00  0.00    -0.050 OA 
ENDROOT
BRANCH   2   3
HETATM    3  C   UNL     1      -7.574   8.078  66.439  1.00  0.00    -0.091 A  
HETATM    4  C   UNL     1      -6.980   9.254  65.988  1.00  0.00    -0.089 A  
HETATM    5  C   UNL     1      -7.739  10.387  65.702  1.00  0.00    -0.150 A  
HETATM    6  O   UNL     1      -5.622   9.330  65.834  1.00  0.00    -0.044 OA 
HETATM    7  C   UNL     1      -9.142  10.372  65.839  1.00  0.00    -0.192 A  
HETATM    8  H   UNL     1      -5.217  10.132  65.526  1.00  0.00     0.000 HD 
HETATM    9  C   UNL     1      -9.735   9.174  66.269  1.00  0.00    -0.344 A  
HETATM   10  C   UNL     1      -8.961   8.036  66.562  1.00  0.00    -0.188 A  
BRANCH   7  11
HETATM   11  C   UNL     1      -9.957  11.585  65.558  1.00  0.00    -0.242 C  
HETATM   12  C   UNL     1     -11.207  11.462  65.085  1.00  0.00    -0.146 C  
HETATM   13  C   UNL     1     -11.964  12.660  64.720  1.00  0.00    -0.402 C  
HETATM   14  O   UNL     1     -13.100  12.582  64.279  1.00  0.00    -0.759 OA 
HETATM   15  C   UNL     1     -11.297  13.949  64.890  1.00  0.00    -0.349 A  
HETATM   16  C   UNL     1     -11.917  15.130  64.493  1.00  0.00    -0.319 A  
HETATM   17  C   UNL     1     -11.303  16.360  64.702  1.00  0.00    -0.166 A  
HETATM   18  O   UNL     1     -13.153  15.167  63.908  1.00  0.00    -0.327 OA 
HETATM   19  C   UNL     1     -10.062  16.427  65.328  1.00  0.00     0.041 A  
HETATM   20  H   UNL     1     -13.577  15.973  63.637  1.00  0.00     0.000 HD 
HETATM   21  C   UNL     1      -9.422  15.223  65.707  1.00  0.00    -0.310 A  
HETATM   22  C   UNL     1     -10.028  13.976  65.463  1.00  0.00    -0.276 A  
HETATM   23  O   UNL     1      -9.347  12.820  65.813  1.00  0.00    -0.084 OA 
BRANCH  19  24
HETATM   24  O   UNL     1      -9.448  17.589  65.707  1.00  0.00    -0.519 OA 
BRANCH  24  25
HETATM   25  C   UNL     1      -8.235  17.576  66.510  1.00  0.00    -0.276 C  
HETATM   26  O   UNL     1      -8.174  16.542  67.506  1.00  0.00    -0.151 OA 
HETATM   27  C   UNL     1      -6.986  16.519  68.304  1.00  0.00    -0.143 C  
HETATM   28  H   UNL     1      -6.545  20.947  67.992  1.00  0.00     0.000 HD 
HETATM   29  C   UNL     1      -6.766  17.891  68.975  1.00  0.00    -0.248 C  
HETATM   30  O   UNL     1      -7.820  19.944  65.988  1.00  0.00    -0.330 OA 
HETATM   31  C   UNL     1      -6.716  19.002  67.944  1.00  0.00    -0.219 C  
HETATM   32  O   UNL     1      -5.566  18.017  69.756  1.00  0.00    -0.207 OA 
HETATM   33  H   UNL     1      -5.431  18.861  70.170  1.00  0.00     0.000 HD 
HETATM   34  H   UNL     1      -7.656  20.815  66.327  1.00  0.00     0.000 HD 
HETATM   35  O   UNL     1      -6.577  20.251  68.638  1.00  0.00    -0.299 OA 
HETATM   36  C   UNL     1      -7.967  18.999  67.066  1.00  0.00    -0.256 C  
BRANCH  27  37
HETATM   37  C   UNL     1      -7.111  15.527  69.480  1.00  0.00    -0.195 C  
BRANCH  37  38
HETATM   38  O   UNL     1      -7.881  14.349  69.284  1.00  0.00    -0.084 OA 
BRANCH  38  39
HETATM   39  C   UNL     1      -9.294  14.678  69.173  1.00  0.00    -0.048 C  
HETATM   40  C   UNL     1     -10.943  16.274  69.984  1.00  0.00    -0.355 C  
HETATM   41  O   UNL     1      -9.580  15.841  69.955  1.00  0.00    -0.226 OA 
HETATM   42  C   UNL     1     -11.917  15.142  70.363  1.00  0.00    -0.320 C  
HETATM   43  C   UNL     1     -11.318  17.002  68.698  1.00  0.00     0.161 C  
HETATM   44  O   UNL     1     -11.705  14.763  71.733  1.00  0.00    -0.385 OA 
HETATM   45  C   UNL     1     -11.704  13.898  69.501  1.00  0.00    -0.313 C  
HETATM   46  O   UNL     1     -12.178  14.088  68.165  1.00  0.00    -0.516 OA 
HETATM   47  C   UNL     1     -10.227  13.482  69.535  1.00  0.00     0.596 C  
HETATM   48  H   UNL     1     -12.305  14.064  71.967  1.00  0.00     0.000 HD 
HETATM   49  H   UNL     1     -12.046  13.315  67.629  1.00  0.00     0.000 HD 
HETATM   50  O   UNL     1      -9.996  12.370  68.658  1.00  0.00    -0.334 OA 
HETATM   51  H   UNL     1     -10.565  11.641  68.878  1.00  0.00     0.000 HD 
ENDBRANCH  38  39
ENDBRANCH  37  38
ENDBRANCH  27  37
ENDBRANCH  24  25
ENDBRANCH  19  24
ENDBRANCH   7  11
ENDBRANCH   2   3
TORSDOF 7
ENDMDL
MODEL       89
REMARK 921   NORMALIZED FREE ENERGY PREDICTED BY IDOCK:   -5.82 KCAL/MOL
REMARK 922        TOTAL FREE ENERGY PREDICTED BY IDOCK:  -10.13 KCAL/MOL
REMARK 923 INTER-LIGAND FREE ENERGY PREDICTED BY IDOCK:   -9.03 KCAL/MOL
REMARK 924 INTRA-LIGAND FREE ENERGY PREDICTED BY IDOCK:   -1.10 KCAL/MOL
REMARK 927      BINDING AFFINITY PREDICTED BY RF-SCORE:    0.00 PKD
ROOT
HETATM    1  C   UNL     1     -10.093   2.650  74.281  1.00  0.00    -0.124 C  
HETATM    2  O   UNL     1     -11.137   3.203  73.485  1.00  0.00    -0.213 OA 
ENDROOT
BRANCH   2   3
HETATM    3  C   UNL     1     -10.750   4.191  72.616  1.00  0.00    -0.072 A  
HETATM    4  C   UNL     1     -10.174   3.751  71.427  1.00  0.00     0.094 A  
HETATM    5  C   UNL     1      -9.716   4.650  70.466  1.00  0.00    -0.284 A  
HETATM    6  O   UNL     1     -10.023   2.412  71.183  1.00  0.00    -0.097 OA 
HETATM    7  C   UNL     1      -9.844   6.041  70.657  1.00  0.00    -0.222 A  
HETATM    8  H   UNL     1      -9.630   2.112  70.372  1.00  0.00     0.000 HD 
HETATM    9  C   UNL     1     -10.449   6.476  71.847  1.00  0.00    -0.233 A  
HETATM   10  C   UNL     1     -10.903   5.561  72.816  1.00  0.00    -0.308 A  
BRANCH   7  11
HETATM   11  C   UNL     1      -9.337   7.008  69.645  1.00  0.00    -0.149 C  
HETATM   12  C   UNL     1      -8.052   6.966  69.258  1.00  0.00    -0.120 C  
HETATM   13  C   UNL     1      -7.542   7.982  68.337  1.00  0.00    -0.108 C  
HETATM   14  O   UNL     1      -6.376   7.977  67.972  1.00  0.00    -0.049 OA 
HETATM   15  C   UNL     1      -8.479   9.009  67.888  1.00  0.00    -0.121 A  
HETATM   16  C   UNL     1      -8.053  10.055  67.074  1.00  0.00    -0.117 A  
HETATM   17  C   UNL     1      -8.956  11.003  66.606  1.00  0.00    -0.176 A  
HETATM   18  O   UNL     1      -6.756  10.208  66.668  1.00  0.00    -0.074 OA 
HETATM   19  C   UNL     1     -10.306  10.907  66.933  1.00  0.00    -0.238 A  
HETATM   20  H   UNL     1      -6.466  10.922  66.112  1.00  0.00     0.000 HD 
HETATM   21  C   UNL     1     -10.731   9.859  67.781  1.00  0.00    -0.332 A  
HETATM   22  C   UNL     1      -9.811   8.919  68.284  1.00  0.00    -0.167 A  
HETATM   23  O   UNL     1     -10.264   7.932  69.145  1.00  0.00    -0.206 OA 
BRANCH  19  24
HETATM   24  O   UNL     1     -11.288  11.702  66.405  1.00  0.00    -0.323 OA 
BRANCH  24  25
HETATM   25  C   UNL     1     -11.533  13.040  66.919  1.00  0.00    -0.339 C  
HETATM   26  O   UNL     1     -10.766  14.083  66.295  1.00  0.00    -0.285 OA 
HETATM   27  C   UNL     1     -10.999  15.405  66.792  1.00  0.00    -0.282 C  
HETATM   28  H   UNL     1     -11.902  13.844  70.872  1.00  0.00     0.000 HD 
HETATM   29  C   UNL     1     -10.779  15.449  68.318  1.00  0.00    -0.260 C  
HETATM   30  O   UNL     1     -12.397  12.113  69.027  1.00  0.00    -0.095 OA 
HETATM   31  C   UNL     1     -11.655  14.433  69.026  1.00  0.00    -0.296 C  
HETATM   32  O   UNL     1     -11.044  16.713  68.950  1.00  0.00    -0.308 OA 
HETATM   33  H   UNL     1     -10.908  16.740  69.889  1.00  0.00     0.000 HD 
HETATM   34  H   UNL     1     -12.337  12.105  69.975  1.00  0.00     0.000 HD 
HETATM   35  O   UNL     1     -11.353  14.481  70.429  1.00  0.00    -0.233 OA 
HETATM   36  C   UNL     1     -11.435  13.027  68.466  1.00  0.00    -0.304 C  
BRANCH  27  37
HETATM   37  C   UNL     1      -9.977  16.414  66.224  1.00  0.00    -0.323 C  
BRANCH  37  38
HETATM   38  O   UNL     1     -10.096  17.776  66.609  1.00  0.00    -0.317 OA 
BRANCH  38  39
HETATM   39  C   UNL     1      -8.782  18.387  66.733  1.00  0.00    -0.277 C  
HETATM   40  C   UNL     1      -6.755  18.815  65.453  1.00  0.00    -0.216 C  
HETATM   41  O   UNL     1      -8.088  18.294  65.485  1.00  0.00    -0.301 OA 
HETATM   42  C   UNL     1      -5.871  18.253  66.582  1.00  0.00    -0.150 C  
HETATM   43  C   UNL     1      -6.761  20.338  65.378  1.00  0.00    -0.318 C  
HETATM   44  O   UNL     1      -5.638  16.852  66.358  1.00  0.00    -0.341 OA 
HETATM   45  C   UNL     1      -6.535  18.398  67.950  1.00  0.00    -0.200 C  
HETATM   46  O   UNL     1      -6.538  19.757  68.399  1.00  0.00    -0.254 OA 
HETATM   47  C   UNL     1      -7.948  17.800  67.914  1.00  0.00    -0.233 C  
HETATM   48  H   UNL     1      -5.093  16.504  67.054  1.00  0.00     0.000 HD 
HETATM   49  H   UNL     1      -6.951  19.848  69.249  1.00  0.00     0.000 HD 
HETATM   50  O   UNL     1      -8.618  18.011  69.166  1.00  0.00    -0.063 OA 
HETATM   51  H   UNL     1      -8.110  17.654  69.885  1.00  0.00     0.000 HD 
ENDBRANCH  38  39
ENDBRANCH  37  38
ENDBRANCH  27  37
ENDBRANCH  24  25
ENDBRANCH  19  24
ENDBRANCH   7  11
ENDBRANCH   2   3
TORSDOF 7
ENDMDL
MODEL       90
REMARK 921   NORMALIZED FREE ENERGY PREDICTED BY IDOCK:   -5.82 KCAL/MOL
REMARK 922        TOTAL FREE ENERGY PREDICTED BY IDOCK:  -10.13 KCAL/MOL
REMARK 923 INTER-LIGAND FREE ENERGY PREDICTED BY IDOCK:   -8.06 KCAL/MOL
REMARK 924 INTRA-LIGAND FREE ENERGY PREDICTED BY IDOCK:   -2.07 KCAL/MOL
REMARK 927      BINDING AFFINITY PREDICTED BY RF-SCORE:    0.00 PKD
ROOT
HETATM    1  C   UNL     1     -12.137  15.938  69.252  1.00  0.00    -0.151 C  
HETATM    2  O   UNL     1     -11.081  15.132  69.768  1.00  0.00    -0.251 OA 
ENDROOT
BRANCH   2   3
HETATM    3  C   UNL     1     -10.606  14.172  68.912  1.00  0.00    -0.239 A  
HETATM    4  C   UNL     1     -11.001  12.867  69.195  1.00  0.00    -0.133 A  
HETATM    5  C   UNL     1     -10.571  11.793  68.418  1.00  0.00    -0.239 A  
HETATM    6  O   UNL     1     -11.810  12.606  70.268  1.00  0.00    -0.489 OA 
HETATM    7  C   UNL     1      -9.738  11.997  67.299  1.00  0.00    -0.190 A  
HETATM    8  H   UNL     1     -12.080  11.716  70.462  1.00  0.00     0.000 HD 
HETATM    9  C   UNL     1      -9.366  13.319  67.005  1.00  0.00    -0.242 A  
HETATM   10  C   UNL     1      -9.799  14.398  67.799  1.00  0.00    -0.221 A  
BRANCH   7  11
HETATM   11  C   UNL     1      -9.256  10.853  66.478  1.00  0.00    -0.171 C  
HETATM   12  C   UNL     1      -9.460  10.844  65.151  1.00  0.00    -0.268 C  
HETATM   13  C   UNL     1      -9.069   9.671  64.368  1.00  0.00    -0.229 C  
HETATM   14  O   UNL     1      -9.249   9.627  63.161  1.00  0.00    -0.252 OA 
HETATM   15  C   UNL     1      -8.474   8.551  65.094  1.00  0.00    -0.193 A  
HETATM   16  C   UNL     1      -8.148   7.369  64.436  1.00  0.00    -0.070 A  
HETATM   17  C   UNL     1      -7.535   6.323  65.116  1.00  0.00    -0.082 A  
HETATM   18  O   UNL     1      -8.379   7.165  63.103  1.00  0.00    -0.345 OA 
HETATM   19  C   UNL     1      -7.223   6.452  66.466  1.00  0.00    -0.073 A  
HETATM   20  H   UNL     1      -8.156   6.358  62.653  1.00  0.00     0.000 HD 
HETATM   21  C   UNL     1      -7.579   7.645  67.139  1.00  0.00    -0.104 A  
HETATM   22  C   UNL     1      -8.232   8.690  66.458  1.00  0.00    -0.107 A  
HETATM   23  O   UNL     1      -8.599   9.824  67.165  1.00  0.00    -0.127 OA 
BRANCH  19  24
HETATM   24  O   UNL     1      -6.493   5.543  67.183  1.00  0.00    -0.041 OA 
BRANCH  24  25
HETATM   25  C   UNL     1      -7.033   4.915  68.379  1.00  0.00    -0.057 C  
HETATM   26  O   UNL     1      -6.985   5.723  69.566  1.00  0.00    -0.059 OA 
HETATM   27  C   UNL     1      -7.512   5.116  70.750  1.00  0.00    -0.074 C  
HETATM   28  H   UNL     1      -6.282   1.058  69.365  1.00  0.00     0.000 HD 
HETATM   29  C   UNL     1      -6.811   3.769  71.018  1.00  0.00    -0.032 C  
HETATM   30  O   UNL     1      -6.692   2.682  67.405  1.00  0.00    -0.039 OA 
HETATM   31  C   UNL     1      -6.933   2.842  69.824  1.00  0.00    -0.034 C  
HETATM   32  O   UNL     1      -7.297   3.027  72.150  1.00  0.00    -0.047 OA 
HETATM   33  H   UNL     1      -6.866   2.198  72.314  1.00  0.00     0.000 HD 
HETATM   34  H   UNL     1      -6.309   1.820  67.510  1.00  0.00     0.000 HD 
HETATM   35  O   UNL     1      -6.205   1.639  70.114  1.00  0.00    -0.022 OA 
HETATM   36  C   UNL     1      -6.407   3.507  68.551  1.00  0.00    -0.033 C  
BRANCH  27  37
HETATM   37  C   UNL     1      -7.214   5.965  72.005  1.00  0.00    -0.092 C  
BRANCH  37  38
HETATM   38  O   UNL     1      -7.786   7.264  72.087  1.00  0.00    -0.088 OA 
BRANCH  38  39
HETATM   39  C   UNL     1      -9.216   7.206  71.823  1.00  0.00    -0.139 C  
HETATM   40  C   UNL     1     -10.863   7.803  70.132  1.00  0.00    -0.244 C  
HETATM   41  O   UNL     1      -9.489   7.749  70.528  1.00  0.00    -0.163 OA 
HETATM   42  C   UNL     1     -11.756   8.491  71.182  1.00  0.00    -0.281 C  
HETATM   43  C   UNL     1     -11.366   6.429  69.702  1.00  0.00    -0.479 C  
HETATM   44  O   UNL     1     -11.422   9.887  71.257  1.00  0.00    -0.365 OA 
HETATM   45  C   UNL     1     -11.559   7.893  72.574  1.00  0.00    -0.386 C  
HETATM   46  O   UNL     1     -12.143   6.592  72.682  1.00  0.00    -0.504 OA 
HETATM   47  C   UNL     1     -10.068   7.888  72.937  1.00  0.00    -0.310 C  
HETATM   48  H   UNL     1     -11.973  10.312  71.904  1.00  0.00     0.000 HD 
HETATM   49  H   UNL     1     -12.021   6.220  73.548  1.00  0.00     0.000 HD 
HETATM   50  O   UNL     1      -9.859   7.246  74.205  1.00  0.00    -0.397 OA 
HETATM   51  H   UNL     1     -10.379   7.662  74.883  1.00  0.00     0.000 HD 
ENDBRANCH  38  39
ENDBRANCH  37  38
ENDBRANCH  27  37
ENDBRANCH  24  25
ENDBRANCH  19  24
ENDBRANCH   7  11
ENDBRANCH   2   3
TORSDOF 7
ENDMDL
MODEL       91
REMARK 921   NORMALIZED FREE ENERGY PREDICTED BY IDOCK:   -5.79 KCAL/MOL
REMARK 922        TOTAL FREE ENERGY PREDICTED BY IDOCK:  -10.10 KCAL/MOL
REMARK 923 INTER-LIGAND FREE ENERGY PREDICTED BY IDOCK:   -7.93 KCAL/MOL
REMARK 924 INTRA-LIGAND FREE ENERGY PREDICTED BY IDOCK:   -2.17 KCAL/MOL
REMARK 927      BINDING AFFINITY PREDICTED BY RF-SCORE:    0.00 PKD
ROOT
HETATM    1  C   UNL     1     -11.508  15.525  65.842  1.00  0.00     0.082 C  
HETATM    2  O   UNL     1     -11.826  14.149  65.655  1.00  0.00    -0.351 OA 
ENDROOT
BRANCH   2   3
HETATM    3  C   UNL     1     -11.556  13.335  66.726  1.00  0.00    -0.365 A  
HETATM    4  C   UNL     1     -10.969  12.112  66.416  1.00  0.00    -0.288 A  
HETATM    5  C   UNL     1     -10.663  11.181  67.407  1.00  0.00    -0.294 A  
HETATM    6  O   UNL     1     -10.697  11.783  65.115  1.00  0.00    -0.275 OA 
HETATM    7  C   UNL     1     -10.917  11.461  68.765  1.00  0.00    -0.272 A  
HETATM    8  H   UNL     1     -10.296  10.948  64.903  1.00  0.00     0.000 HD 
HETATM    9  C   UNL     1     -11.484  12.707  69.072  1.00  0.00    -0.354 A  
HETATM   10  C   UNL     1     -11.797  13.639  68.064  1.00  0.00    -0.397 A  
BRANCH   7  11
HETATM   11  C   UNL     1     -10.613  10.463  69.827  1.00  0.00    -0.258 C  
HETATM   12  C   UNL     1     -11.590  10.017  70.631  1.00  0.00    -0.422 C  
HETATM   13  C   UNL     1     -11.263   9.111  71.733  1.00  0.00    -0.381 C  
HETATM   14  O   UNL     1     -12.128   8.693  72.488  1.00  0.00    -0.374 OA 
HETATM   15  C   UNL     1      -9.859   8.742  71.901  1.00  0.00    -0.395 A  
HETATM   16  C   UNL     1      -9.454   7.949  72.970  1.00  0.00    -0.271 A  
HETATM   17  C   UNL     1      -8.126   7.557  73.101  1.00  0.00    -0.148 A  
HETATM   18  O   UNL     1     -10.313   7.490  73.931  1.00  0.00    -0.385 OA 
HETATM   19  C   UNL     1      -7.185   7.941  72.150  1.00  0.00    -0.081 A  
HETATM   20  H   UNL     1     -10.037   6.948  74.660  1.00  0.00     0.000 HD 
HETATM   21  C   UNL     1      -7.595   8.769  71.079  1.00  0.00    -0.124 A  
HETATM   22  C   UNL     1      -8.932   9.195  70.966  1.00  0.00    -0.214 A  
HETATM   23  O   UNL     1      -9.281  10.039  69.923  1.00  0.00    -0.215 OA 
BRANCH  19  24
HETATM   24  O   UNL     1      -5.895   7.488  72.112  1.00  0.00    -0.037 OA 
BRANCH  24  25
HETATM   25  C   UNL     1      -5.521   6.339  71.303  1.00  0.00    -0.022 C  
HETATM   26  O   UNL     1      -5.648   6.525  69.884  1.00  0.00    -0.014 OA 
HETATM   27  C   UNL     1      -5.283   5.401  69.076  1.00  0.00     0.000 C  
HETATM   28  H   UNL     1      -6.587   2.546  72.247  1.00  0.00     0.000 HD 
HETATM   29  C   UNL     1      -6.084   4.153  69.504  1.00  0.00    -0.027 C  
HETATM   30  O   UNL     1      -5.882   4.831  73.212  1.00  0.00    -0.016 OA 
HETATM   31  C   UNL     1      -5.889   3.858  70.979  1.00  0.00    -0.013 C  
HETATM   32  O   UNL     1      -5.762   2.937  68.808  1.00  0.00    -0.021 OA 
HETATM   33  H   UNL     1      -6.255   2.170  69.071  1.00  0.00     0.000 HD 
HETATM   34  H   UNL     1      -6.322   4.056  73.540  1.00  0.00     0.000 HD 
HETATM   35  O   UNL     1      -6.710   2.731  71.323  1.00  0.00    -0.029 OA 
HETATM   36  C   UNL     1      -6.239   5.073  71.837  1.00  0.00    -0.030 C  
BRANCH  27  37
HETATM   37  C   UNL     1      -5.665   5.617  67.595  1.00  0.00    -0.013 C  
BRANCH  37  38
HETATM   38  O   UNL     1      -6.682   6.564  67.298  1.00  0.00    -0.056 OA 
BRANCH  38  39
HETATM   39  C   UNL     1      -7.994   5.940  67.370  1.00  0.00    -0.102 C  
HETATM   40  C   UNL     1      -9.209   3.973  66.605  1.00  0.00    -0.163 C  
HETATM   41  O   UNL     1      -7.975   4.696  66.663  1.00  0.00    -0.101 OA 
HETATM   42  C   UNL     1     -10.380   4.838  66.102  1.00  0.00    -0.300 C  
HETATM   43  C   UNL     1      -9.493   3.261  67.923  1.00  0.00    -0.219 C  
HETATM   44  O   UNL     1     -10.174   5.169  64.718  1.00  0.00    -0.160 OA 
HETATM   45  C   UNL     1     -10.493   6.149  66.879  1.00  0.00    -0.276 C  
HETATM   46  O   UNL     1     -10.993   5.941  68.203  1.00  0.00    -0.274 OA 
HETATM   47  C   UNL     1      -9.142   6.876  66.880  1.00  0.00    -0.139 C  
HETATM   48  H   UNL     1     -10.896   5.703  64.408  1.00  0.00     0.000 HD 
HETATM   49  H   UNL     1     -11.063   6.756  68.687  1.00  0.00     0.000 HD 
HETATM   50  O   UNL     1      -9.208   8.064  67.684  1.00  0.00    -0.133 OA 
HETATM   51  H   UNL     1      -9.907   8.635  67.385  1.00  0.00     0.000 HD 
ENDBRANCH  38  39
ENDBRANCH  37  38
ENDBRANCH  27  37
ENDBRANCH  24  25
ENDBRANCH  19  24
ENDBRANCH   7  11
ENDBRANCH   2   3
TORSDOF 7
ENDMDL
MODEL       92
REMARK 921   NORMALIZED FREE ENERGY PREDICTED BY IDOCK:   -5.63 KCAL/MOL
REMARK 922        TOTAL FREE ENERGY PREDICTED BY IDOCK:   -9.87 KCAL/MOL
REMARK 923 INTER-LIGAND FREE ENERGY PREDICTED BY IDOCK:   -9.05 KCAL/MOL
REMARK 924 INTRA-LIGAND FREE ENERGY PREDICTED BY IDOCK:   -0.82 KCAL/MOL
REMARK 927      BINDING AFFINITY PREDICTED BY RF-SCORE:    0.00 PKD
ROOT
HETATM    1  C   UNL     1      -7.728   1.503  65.130  1.00  0.00    -0.063 C  
HETATM    2  O   UNL     1      -8.916   2.276  64.984  1.00  0.00    -0.118 OA 
ENDROOT
BRANCH   2   3
HETATM    3  C   UNL     1      -8.790   3.606  65.297  1.00  0.00    -0.122 A  
HETATM    4  C   UNL     1      -9.960   4.356  65.211  1.00  0.00    -0.200 A  
HETATM    5  C   UNL     1      -9.968   5.723  65.480  1.00  0.00     0.453 A  
HETATM    6  O   UNL     1     -11.136   3.764  64.833  1.00  0.00    -0.567 OA 
HETATM    7  C   UNL     1      -8.790   6.390  65.875  1.00  0.00    -0.142 A  
HETATM    8  H   UNL     1     -11.934   4.276  64.774  1.00  0.00     0.000 HD 
HETATM    9  C   UNL     1      -7.621   5.621  65.986  1.00  0.00    -0.087 A  
HETATM   10  C   UNL     1      -7.619   4.241  65.705  1.00  0.00    -0.085 A  
BRANCH   7  11
HETATM   11  C   UNL     1      -8.786   7.854  66.143  1.00  0.00    -0.166 C  
HETATM   12  C   UNL     1      -7.763   8.612  65.722  1.00  0.00    -0.090 C  
HETATM   13  C   UNL     1      -7.722  10.032  66.075  1.00  0.00    -0.110 C  
HETATM   14  O   UNL     1      -6.800  10.748  65.715  1.00  0.00    -0.124 OA 
HETATM   15  C   UNL     1      -8.819  10.550  66.889  1.00  0.00    -0.143 A  
HETATM   16  C   UNL     1      -8.816  11.869  67.333  1.00  0.00    -0.171 A  
HETATM   17  C   UNL     1      -9.885  12.376  68.064  1.00  0.00    -0.205 A  
HETATM   18  O   UNL     1      -7.800  12.746  67.069  1.00  0.00    -0.343 OA 
HETATM   19  C   UNL     1     -10.984  11.570  68.347  1.00  0.00    -0.221 A  
HETATM   20  H   UNL     1      -7.797  13.646  67.372  1.00  0.00     0.000 HD 
HETATM   21  C   UNL     1     -10.974  10.223  67.917  1.00  0.00    -0.350 A  
HETATM   22  C   UNL     1      -9.876   9.701  67.208  1.00  0.00    -0.175 A  
HETATM   23  O   UNL     1      -9.889   8.364  66.841  1.00  0.00    -0.198 OA 
BRANCH  19  24
HETATM   24  O   UNL     1     -12.140  12.016  68.929  1.00  0.00    -0.274 OA 
BRANCH  24  25
HETATM   25  C   UNL     1     -12.280  13.394  69.373  1.00  0.00    -0.195 C  
HETATM   26  O   UNL     1     -11.610  14.368  68.557  1.00  0.00    -0.281 OA 
HETATM   27  C   UNL     1     -11.740  15.728  68.983  1.00  0.00    -0.396 C  
HETATM   28  H   UNL     1     -11.989  14.490  73.262  1.00  0.00     0.000 HD 
HETATM   29  C   UNL     1     -11.274  15.877  70.447  1.00  0.00    -0.378 C  
HETATM   30  O   UNL     1     -12.802  12.644  71.657  1.00  0.00    -0.340 OA 
HETATM   31  C   UNL     1     -12.037  14.938  71.361  1.00  0.00    -0.337 C  
HETATM   32  O   UNL     1     -11.415  17.189  71.015  1.00  0.00    -0.071 OA 
HETATM   33  H   UNL     1     -11.128  17.280  71.915  1.00  0.00     0.000 HD 
HETATM   34  H   UNL     1     -12.589  12.703  72.580  1.00  0.00     0.000 HD 
HETATM   35  O   UNL     1     -11.510  15.079  72.689  1.00  0.00    -0.337 OA 
HETATM   36  C   UNL     1     -11.932  13.490  70.881  1.00  0.00    -0.093 C  
BRANCH  27  37
HETATM   37  C   UNL     1     -10.810  16.666  68.183  1.00  0.00    -0.348 C  
BRANCH  37  38
HETATM   38  O   UNL     1     -10.130  17.696  68.889  1.00  0.00    -0.351 OA 
BRANCH  38  39
HETATM   39  C   UNL     1      -8.762  17.822  68.411  1.00  0.00    -0.292 C  
HETATM   40  C   UNL     1      -6.521  16.960  68.814  1.00  0.00    -0.178 C  
HETATM   41  O   UNL     1      -7.914  16.928  69.139  1.00  0.00    -0.213 OA 
HETATM   42  C   UNL     1      -5.934  18.384  68.859  1.00  0.00    -0.212 C  
HETATM   43  C   UNL     1      -6.242  16.221  67.510  1.00  0.00    -0.186 C  
HETATM   44  O   UNL     1      -5.926  18.858  70.216  1.00  0.00    -0.229 OA 
HETATM   45  C   UNL     1      -6.762  19.366  68.031  1.00  0.00    -0.241 C  
HETATM   46  O   UNL     1      -6.589  19.156  66.627  1.00  0.00    -0.188 OA 
HETATM   47  C   UNL     1      -8.237  19.290  68.448  1.00  0.00    -0.347 C  
HETATM   48  H   UNL     1      -5.564  19.736  70.244  1.00  0.00     0.000 HD 
HETATM   49  H   UNL     1      -7.104  19.766  66.112  1.00  0.00     0.000 HD 
HETATM   50  O   UNL     1      -9.041  20.141  67.617  1.00  0.00    -0.336 OA 
HETATM   51  H   UNL     1      -8.721  21.035  67.639  1.00  0.00     0.000 HD 
ENDBRANCH  38  39
ENDBRANCH  37  38
ENDBRANCH  27  37
ENDBRANCH  24  25
ENDBRANCH  19  24
ENDBRANCH   7  11
ENDBRANCH   2   3
TORSDOF 7
ENDMDL
MODEL       93
REMARK 921   NORMALIZED FREE ENERGY PREDICTED BY IDOCK:   -5.62 KCAL/MOL
REMARK 922        TOTAL FREE ENERGY PREDICTED BY IDOCK:   -9.86 KCAL/MOL
REMARK 923 INTER-LIGAND FREE ENERGY PREDICTED BY IDOCK:   -8.83 KCAL/MOL
REMARK 924 INTRA-LIGAND FREE ENERGY PREDICTED BY IDOCK:   -1.03 KCAL/MOL
REMARK 927      BINDING AFFINITY PREDICTED BY RF-SCORE:    0.00 PKD
ROOT
HETATM    1  C   UNL     1      -9.952   4.533  71.134  1.00  0.00    -0.187 C  
HETATM    2  O   UNL     1     -11.076   5.090  71.810  1.00  0.00    -0.027 OA 
ENDROOT
BRANCH   2   3
HETATM    3  C   UNL     1     -11.332   6.409  71.532  1.00  0.00    -0.294 A  
HETATM    4  C   UNL     1     -11.227   7.281  72.613  1.00  0.00    -0.313 A  
HETATM    5  C   UNL     1     -11.483   8.643  72.474  1.00  0.00    -0.287 A  
HETATM    6  O   UNL     1     -10.890   6.809  73.853  1.00  0.00    -0.502 OA 
HETATM    7  C   UNL     1     -11.833   9.190  71.223  1.00  0.00    -0.396 A  
HETATM    8  H   UNL     1     -10.818   7.404  74.591  1.00  0.00     0.000 HD 
HETATM    9  C   UNL     1     -11.910   8.309  70.133  1.00  0.00     0.319 A  
HETATM   10  C   UNL     1     -11.657   6.932  70.283  1.00  0.00    -0.362 A  
BRANCH   7  11
HETATM   11  C   UNL     1     -12.129  10.641  71.071  1.00  0.00    -0.368 C  
HETATM   12  C   UNL     1     -12.930  11.260  71.952  1.00  0.00    -0.471 C  
HETATM   13  C   UNL     1     -13.291  12.662  71.738  1.00  0.00    -0.310 C  
HETATM   14  O   UNL     1     -14.026  13.253  72.516  1.00  0.00    -0.701 OA 
HETATM   15  C   UNL     1     -12.753  13.318  70.549  1.00  0.00    -0.169 A  
HETATM   16  C   UNL     1     -13.112  14.625  70.231  1.00  0.00    -0.011 A  
HETATM   17  C   UNL     1     -12.559  15.265  69.128  1.00  0.00     0.176 A  
HETATM   18  O   UNL     1     -13.991  15.362  70.976  1.00  0.00    -0.735 OA 
HETATM   19  C   UNL     1     -11.623  14.610  68.333  1.00  0.00    -0.323 A  
HETATM   20  H   UNL     1     -14.236  16.254  70.760  1.00  0.00     0.000 HD 
HETATM   21  C   UNL     1     -11.280  13.273  68.643  1.00  0.00    -0.311 A  
HETATM   22  C   UNL     1     -11.866  12.613  69.739  1.00  0.00    -0.309 A  
HETATM   23  O   UNL     1     -11.532  11.289  69.982  1.00  0.00    -0.293 OA 
BRANCH  19  24
HETATM   24  O   UNL     1     -10.919  15.201  67.320  1.00  0.00    -0.313 OA 
BRANCH  24  25
HETATM   25  C   UNL     1      -9.465  15.250  67.338  1.00  0.00    -0.199 C  
HETATM   26  O   UNL     1      -8.812  13.971  67.350  1.00  0.00    -0.185 OA 
HETATM   27  C   UNL     1      -7.381  14.006  67.368  1.00  0.00    -0.114 C  
HETATM   28  H   UNL     1      -7.383  17.827  69.671  1.00  0.00     0.000 HD 
HETATM   29  C   UNL     1      -6.882  14.847  68.561  1.00  0.00    -0.106 C  
HETATM   30  O   UNL     1      -9.518  17.533  68.254  1.00  0.00    -0.275 OA 
HETATM   31  C   UNL     1      -7.467  16.246  68.525  1.00  0.00    -0.176 C  
HETATM   32  O   UNL     1      -5.458  15.012  68.655  1.00  0.00    -0.086 OA 
HETATM   33  H   UNL     1      -5.151  15.530  69.389  1.00  0.00     0.000 HD 
HETATM   34  H   UNL     1      -9.229  18.118  68.943  1.00  0.00     0.000 HD 
HETATM   35  O   UNL     1      -7.017  16.950  69.693  1.00  0.00    -0.158 OA 
HETATM   36  C   UNL     1      -8.994  16.207  68.464  1.00  0.00    -0.204 C  
BRANCH  27  37
HETATM   37  C   UNL     1      -6.781  12.602  67.606  1.00  0.00    -0.144 C  
BRANCH  37  38
HETATM   38  O   UNL     1      -6.667  12.142  68.945  1.00  0.00    -0.082 OA 
BRANCH  38  39
HETATM   39  C   UNL     1      -7.138  10.770  69.053  1.00  0.00    -0.091 C  
HETATM   40  C   UNL     1      -6.898   8.780  70.436  1.00  0.00    -0.045 C  
HETATM   41  O   UNL     1      -6.564  10.153  70.209  1.00  0.00    -0.107 OA 
HETATM   42  C   UNL     1      -6.648   7.897  69.198  1.00  0.00    -0.040 C  
HETATM   43  C   UNL     1      -8.301   8.642  71.015  1.00  0.00    -0.193 C  
HETATM   44  O   UNL     1      -5.235   7.813  68.944  1.00  0.00    -0.021 OA 
HETATM   45  C   UNL     1      -7.309   8.473  67.947  1.00  0.00    -0.093 C  
HETATM   46  O   UNL     1      -8.731   8.322  67.978  1.00  0.00    -0.134 OA 
HETATM   47  C   UNL     1      -6.889   9.937  67.758  1.00  0.00    -0.080 C  
HETATM   48  H   UNL     1      -5.081   7.268  68.181  1.00  0.00     0.000 HD 
HETATM   49  H   UNL     1      -9.142   8.680  67.200  1.00  0.00     0.000 HD 
HETATM   50  O   UNL     1      -7.573  10.518  66.638  1.00  0.00    -0.109 OA 
HETATM   51  H   UNL     1      -7.421  10.011  65.849  1.00  0.00     0.000 HD 
ENDBRANCH  38  39
ENDBRANCH  37  38
ENDBRANCH  27  37
ENDBRANCH  24  25
ENDBRANCH  19  24
ENDBRANCH   7  11
ENDBRANCH   2   3
TORSDOF 7
ENDMDL
MODEL       94
REMARK 921   NORMALIZED FREE ENERGY PREDICTED BY IDOCK:   -5.61 KCAL/MOL
REMARK 922        TOTAL FREE ENERGY PREDICTED BY IDOCK:   -9.84 KCAL/MOL
REMARK 923 INTER-LIGAND FREE ENERGY PREDICTED BY IDOCK:   -7.99 KCAL/MOL
REMARK 924 INTRA-LIGAND FREE ENERGY PREDICTED BY IDOCK:   -1.84 KCAL/MOL
REMARK 927      BINDING AFFINITY PREDICTED BY RF-SCORE:    0.00 PKD
ROOT
HETATM    1  C   UNL     1     -12.947   5.226  72.877  1.00  0.00     1.188 C  
HETATM    2  O   UNL     1     -11.526   5.119  72.862  1.00  0.00    -0.299 OA 
ENDROOT
BRANCH   2   3
HETATM    3  C   UNL     1     -10.879   6.036  72.073  1.00  0.00    -0.252 A  
HETATM    4  C   UNL     1      -9.672   6.513  72.576  1.00  0.00    -0.158 A  
HETATM    5  C   UNL     1      -8.923   7.465  71.887  1.00  0.00    -0.140 A  
HETATM    6  O   UNL     1      -9.200   6.071  73.783  1.00  0.00    -0.127 OA 
HETATM    7  C   UNL     1      -9.354   7.960  70.639  1.00  0.00    -0.158 A  
HETATM    8  H   UNL     1      -8.377   6.396  74.127  1.00  0.00     0.000 HD 
HETATM    9  C   UNL     1     -10.559   7.453  70.126  1.00  0.00    -0.240 A  
HETATM   10  C   UNL     1     -11.313   6.496  70.832  1.00  0.00    -0.393 A  
BRANCH   7  11
HETATM   11  C   UNL     1      -8.572   8.993  69.907  1.00  0.00    -0.140 C  
HETATM   12  C   UNL     1      -7.280   8.776  69.613  1.00  0.00    -0.055 C  
HETATM   13  C   UNL     1      -6.495   9.836  68.980  1.00  0.00    -0.045 C  
HETATM   14  O   UNL     1      -5.316   9.675  68.707  1.00  0.00    -0.037 OA 
HETATM   15  C   UNL     1      -7.176  11.100  68.706  1.00  0.00    -0.098 A  
HETATM   16  C   UNL     1      -6.482  12.184  68.178  1.00  0.00    -0.056 A  
HETATM   17  C   UNL     1      -7.141  13.369  67.870  1.00  0.00    -0.137 A  
HETATM   18  O   UNL     1      -5.141  12.155  67.910  1.00  0.00    -0.052 OA 
HETATM   19  C   UNL     1      -8.514  13.479  68.070  1.00  0.00    -0.176 A  
HETATM   20  H   UNL     1      -4.666  12.896  67.549  1.00  0.00     0.000 HD 
HETATM   21  C   UNL     1      -9.213  12.384  68.630  1.00  0.00     0.008 A  
HETATM   22  C   UNL     1      -8.539  11.198  68.976  1.00  0.00    -0.024 A  
HETATM   23  O   UNL     1      -9.256  10.165  69.560  1.00  0.00    -0.206 OA 
BRANCH  19  24
HETATM   24  O   UNL     1      -9.272  14.544  67.664  1.00  0.00    -0.187 OA 
BRANCH  24  25
HETATM   25  C   UNL     1     -10.357  14.379  66.709  1.00  0.00    -0.273 C  
HETATM   26  O   UNL     1     -10.324  13.157  65.954  1.00  0.00    -0.279 OA 
HETATM   27  C   UNL     1     -11.386  12.983  65.010  1.00  0.00    -0.296 C  
HETATM   28  H   UNL     1     -11.656  17.382  64.321  1.00  0.00     0.000 HD 
HETATM   29  C   UNL     1     -11.442  14.183  64.042  1.00  0.00    -0.040 C  
HETATM   30  O   UNL     1     -10.730  16.810  66.658  1.00  0.00    -0.236 OA 
HETATM   31  C   UNL     1     -11.587  15.489  64.799  1.00  0.00    -0.256 C  
HETATM   32  O   UNL     1     -12.511  14.158  63.081  1.00  0.00    -1.126 OA 
HETATM   33  H   UNL     1     -12.545  14.897  62.485  1.00  0.00     0.000 HD 
HETATM   34  H   UNL     1     -10.802  17.591  66.123  1.00  0.00     0.000 HD 
HETATM   35  O   UNL     1     -11.566  16.564  63.847  1.00  0.00    -1.175 OA 
HETATM   36  C   UNL     1     -10.475  15.654  65.836  1.00  0.00    -0.344 C  
BRANCH  27  37
HETATM   37  C   UNL     1     -11.142  11.761  64.099  1.00  0.00    -0.374 C  
BRANCH  37  38
HETATM   38  O   UNL     1     -10.847  10.514  64.715  1.00  0.00    -0.041 OA 
BRANCH  38  39
HETATM   39  C   UNL     1      -9.484  10.107  64.412  1.00  0.00    -0.308 C  
HETATM   40  C   UNL     1      -8.055   9.491  62.539  1.00  0.00    -0.131 C  
HETATM   41  O   UNL     1      -9.336   9.933  62.999  1.00  0.00    -0.283 OA 
HETATM   42  C   UNL     1      -7.565   8.227  63.271  1.00  0.00    -0.130 C  
HETATM   43  C   UNL     1      -7.045  10.633  62.541  1.00  0.00    -0.101 C  
HETATM   44  O   UNL     1      -8.401   7.112  62.918  1.00  0.00    -0.335 OA 
HETATM   45  C   UNL     1      -7.630   8.390  64.790  1.00  0.00    -0.102 C  
HETATM   46  O   UNL     1      -6.613   9.271  65.274  1.00  0.00    -0.071 OA 
HETATM   47  C   UNL     1      -9.034   8.844  65.210  1.00  0.00    -0.162 C  
HETATM   48  H   UNL     1      -8.099   6.332  63.369  1.00  0.00     0.000 HD 
HETATM   49  H   UNL     1      -6.653   9.373  66.218  1.00  0.00     0.000 HD 
HETATM   50  O   UNL     1      -9.084   9.089  66.623  1.00  0.00    -0.147 OA 
HETATM   51  H   UNL     1      -8.810   8.319  67.109  1.00  0.00     0.000 HD 
ENDBRANCH  38  39
ENDBRANCH  37  38
ENDBRANCH  27  37
ENDBRANCH  24  25
ENDBRANCH  19  24
ENDBRANCH   7  11
ENDBRANCH   2   3
TORSDOF 7
ENDMDL
MODEL       95
REMARK 921   NORMALIZED FREE ENERGY PREDICTED BY IDOCK:   -5.56 KCAL/MOL
REMARK 922        TOTAL FREE ENERGY PREDICTED BY IDOCK:   -9.76 KCAL/MOL
REMARK 923 INTER-LIGAND FREE ENERGY PREDICTED BY IDOCK:   -8.07 KCAL/MOL
REMARK 924 INTRA-LIGAND FREE ENERGY PREDICTED BY IDOCK:   -1.70 KCAL/MOL
REMARK 927      BINDING AFFINITY PREDICTED BY RF-SCORE:    0.00 PKD
ROOT
HETATM    1  C   UNL     1     -10.123   3.023  71.740  1.00  0.00    -0.042 C  
HETATM    2  O   UNL     1     -10.240   3.990  72.780  1.00  0.00    -0.153 OA 
ENDROOT
BRANCH   2   3
HETATM    3  C   UNL     1     -10.346   5.292  72.360  1.00  0.00    -0.209 A  
HETATM    4  C   UNL     1     -11.612   5.859  72.480  1.00  0.00    -0.277 A  
HETATM    5  C   UNL     1     -11.864   7.167  72.069  1.00  0.00    -0.333 A  
HETATM    6  O   UNL     1     -12.653   5.130  72.989  1.00  0.00    -0.358 OA 
HETATM    7  C   UNL     1     -10.833   7.969  71.539  1.00  0.00    -0.278 A  
HETATM    8  H   UNL     1     -13.517   5.516  73.071  1.00  0.00     0.000 HD 
HETATM    9  C   UNL     1      -9.554   7.399  71.445  1.00  0.00    -0.167 A  
HETATM   10  C   UNL     1      -9.310   6.074  71.856  1.00  0.00    -0.160 A  
BRANCH   7  11
HETATM   11  C   UNL     1     -11.100   9.359  71.077  1.00  0.00    -0.344 C  
HETATM   12  C   UNL     1     -12.022  10.110  71.698  1.00  0.00    -0.314 C  
HETATM   13  C   UNL     1     -12.344  11.439  71.177  1.00  0.00    -0.299 C  
HETATM   14  O   UNL     1     -13.185  12.143  71.713  1.00  0.00    -0.448 OA 
HETATM   15  C   UNL     1     -11.631  11.877  69.979  1.00  0.00    -0.301 A  
HETATM   16  C   UNL     1     -11.935  13.094  69.374  1.00  0.00    -0.291 A  
HETATM   17  C   UNL     1     -11.221  13.533  68.265  1.00  0.00    -0.305 A  
HETATM   18  O   UNL     1     -12.914  13.933  69.830  1.00  0.00    -0.208 OA 
HETATM   19  C   UNL     1     -10.178  12.767  67.754  1.00  0.00    -0.223 A  
HETATM   20  H   UNL     1     -13.121  14.763  69.417  1.00  0.00     0.000 HD 
HETATM   21  C   UNL     1      -9.888  11.519  68.354  1.00  0.00    -0.204 A  
HETATM   22  C   UNL     1     -10.634  11.058  69.455  1.00  0.00    -0.138 A  
HETATM   23  O   UNL     1     -10.344   9.811  69.987  1.00  0.00    -0.227 OA 
BRANCH  19  24
HETATM   24  O   UNL     1      -9.327  13.179  66.764  1.00  0.00    -0.235 OA 
BRANCH  24  25
HETATM   25  C   UNL     1      -8.451  12.240  66.081  1.00  0.00     0.318 C  
HETATM   26  O   UNL     1      -9.082  11.027  65.641  1.00  0.00    -0.198 OA 
HETATM   27  C   UNL     1      -8.230  10.094  64.968  1.00  0.00    -0.152 C  
HETATM   28  H   UNL     1      -4.703  11.397  67.369  1.00  0.00     0.000 HD 
HETATM   29  C   UNL     1      -7.013   9.748  65.850  1.00  0.00    -0.101 C  
HETATM   30  O   UNL     1      -6.477  13.255  67.141  1.00  0.00    -0.458 OA 
HETATM   31  C   UNL     1      -6.254  10.999  66.249  1.00  0.00    -0.126 C  
HETATM   32  O   UNL     1      -6.045   8.865  65.259  1.00  0.00    -0.058 OA 
HETATM   33  H   UNL     1      -5.297   8.652  65.803  1.00  0.00     0.000 HD 
HETATM   34  H   UNL     1      -5.695  13.115  67.661  1.00  0.00     0.000 HD 
HETATM   35  O   UNL     1      -5.179  10.613  67.119  1.00  0.00    -0.039 OA 
HETATM   36  C   UNL     1      -7.175  12.012  66.931  1.00  0.00    -0.040 C  
BRANCH  27  37
HETATM   37  C   UNL     1      -8.939   8.741  64.737  1.00  0.00     0.037 C  
BRANCH  37  38
HETATM   38  O   UNL     1      -8.186   7.550  64.927  1.00  0.00    -0.132 OA 
BRANCH  38  39
HETATM   39  C   UNL     1      -8.911   6.621  65.780  1.00  0.00    -0.077 C  
HETATM   40  C   UNL     1      -9.590   6.301  68.096  1.00  0.00    -0.115 C  
HETATM   41  O   UNL     1      -8.945   7.124  67.119  1.00  0.00    -0.122 OA 
HETATM   42  C   UNL     1      -9.059   4.855  68.098  1.00  0.00    -0.114 C  
HETATM   43  C   UNL     1     -11.108   6.399  67.982  1.00  0.00    -0.365 C  
HETATM   44  O   UNL     1      -7.699   4.843  68.563  1.00  0.00    -0.077 OA 
HETATM   45  C   UNL     1      -9.075   4.243  66.698  1.00  0.00    -0.129 C  
HETATM   46  O   UNL     1     -10.403   3.934  66.266  1.00  0.00    -0.371 OA 
HETATM   47  C   UNL     1      -8.348   5.168  65.712  1.00  0.00    -0.120 C  
HETATM   48  H   UNL     1      -7.371   3.951  68.564  1.00  0.00     0.000 HD 
HETATM   49  H   UNL     1     -10.413   3.554  65.396  1.00  0.00     0.000 HD 
HETATM   50  O   UNL     1      -8.434   4.649  64.376  1.00  0.00    -0.118 OA 
HETATM   51  H   UNL     1      -8.092   3.764  64.335  1.00  0.00     0.000 HD 
ENDBRANCH  38  39
ENDBRANCH  37  38
ENDBRANCH  27  37
ENDBRANCH  24  25
ENDBRANCH  19  24
ENDBRANCH   7  11
ENDBRANCH   2   3
TORSDOF 7
ENDMDL
MODEL       96
REMARK 921   NORMALIZED FREE ENERGY PREDICTED BY IDOCK:   -5.54 KCAL/MOL
REMARK 922        TOTAL FREE ENERGY PREDICTED BY IDOCK:   -9.74 KCAL/MOL
REMARK 923 INTER-LIGAND FREE ENERGY PREDICTED BY IDOCK:   -7.00 KCAL/MOL
REMARK 924 INTRA-LIGAND FREE ENERGY PREDICTED BY IDOCK:   -2.74 KCAL/MOL
REMARK 927      BINDING AFFINITY PREDICTED BY RF-SCORE:    0.00 PKD
ROOT
HETATM    1  C   UNL     1     -12.715  15.560  71.767  1.00  0.00    -0.424 C  
HETATM    2  O   UNL     1     -13.177  14.934  70.574  1.00  0.00    -0.309 OA 
ENDROOT
BRANCH   2   3
HETATM    3  C   UNL     1     -12.202  14.356  69.801  1.00  0.00    -0.321 A  
HETATM    4  C   UNL     1     -12.014  12.990  69.996  1.00  0.00    -0.312 A  
HETATM    5  C   UNL     1     -11.040  12.283  69.292  1.00  0.00    -0.220 A  
HETATM    6  O   UNL     1     -12.774  12.309  70.909  1.00  0.00    -0.289 OA 
HETATM    7  C   UNL     1     -10.227  12.928  68.338  1.00  0.00    -0.238 A  
HETATM    8  H   UNL     1     -12.646  11.377  71.042  1.00  0.00     0.000 HD 
HETATM    9  C   UNL     1     -10.441  14.299  68.128  1.00  0.00    -0.246 A  
HETATM   10  C   UNL     1     -11.422  15.007  68.848  1.00  0.00    -0.333 A  
BRANCH   7  11
HETATM   11  C   UNL     1      -9.170  12.184  67.598  1.00  0.00    -0.181 C  
HETATM   12  C   UNL     1      -7.897  12.608  67.636  1.00  0.00    -0.162 C  
HETATM   13  C   UNL     1      -6.885  11.927  66.829  1.00  0.00    -0.005 C  
HETATM   14  O   UNL     1      -5.719  12.293  66.834  1.00  0.00    -0.292 OA 
HETATM   15  C   UNL     1      -7.330  10.806  66.004  1.00  0.00    -0.114 A  
HETATM   16  C   UNL     1      -6.446  10.156  65.148  1.00  0.00    -0.121 A  
HETATM   17  C   UNL     1      -6.857   9.057  64.402  1.00  0.00    -0.085 A  
HETATM   18  O   UNL     1      -5.137  10.526  65.001  1.00  0.00    -0.098 OA 
HETATM   19  C   UNL     1      -8.161   8.581  64.516  1.00  0.00    -0.158 A  
HETATM   20  H   UNL     1      -4.534  10.082  64.416  1.00  0.00     0.000 HD 
HETATM   21  C   UNL     1      -9.064   9.259  65.367  1.00  0.00    -0.277 A  
HETATM   22  C   UNL     1      -8.657  10.393  66.095  1.00  0.00    -0.144 A  
HETATM   23  O   UNL     1      -9.586  11.052  66.886  1.00  0.00    -0.178 OA 
BRANCH  19  24
HETATM   24  O   UNL     1      -8.616   7.426  63.939  1.00  0.00     0.227 OA 
BRANCH  24  25
HETATM   25  C   UNL     1      -8.374   6.129  64.552  1.00  0.00    -0.021 C  
HETATM   26  O   UNL     1      -8.678   6.051  65.954  1.00  0.00    -0.148 OA 
HETATM   27  C   UNL     1      -8.444   4.780  66.569  1.00  0.00    -0.110 C  
HETATM   28  H   UNL     1      -5.068   3.918  63.783  1.00  0.00     0.000 HD 
HETATM   29  C   UNL     1      -6.986   4.332  66.334  1.00  0.00    -0.059 C  
HETATM   30  O   UNL     1      -6.795   5.537  62.761  1.00  0.00    -0.028 OA 
HETATM   31  C   UNL     1      -6.657   4.298  64.853  1.00  0.00    -0.044 C  
HETATM   32  O   UNL     1      -6.641   3.036  66.850  1.00  0.00    -0.036 OA 
HETATM   33  H   UNL     1      -5.744   2.762  66.705  1.00  0.00     0.000 HD 
HETATM   34  H   UNL     1      -5.921   5.240  62.539  1.00  0.00     0.000 HD 
HETATM   35  O   UNL     1      -5.273   3.941  64.710  1.00  0.00    -0.008 OA 
HETATM   36  C   UNL     1      -6.947   5.644  64.190  1.00  0.00    -0.051 C  
BRANCH  27  37
HETATM   37  C   UNL     1      -8.583   4.857  68.105  1.00  0.00    -0.102 C  
BRANCH  37  38
HETATM   38  O   UNL     1      -7.669   5.678  68.819  1.00  0.00    -0.086 OA 
BRANCH  38  39
HETATM   39  C   UNL     1      -8.383   6.704  69.564  1.00  0.00    -0.131 C  
HETATM   40  C   UNL     1     -10.627   7.317  70.282  1.00  0.00    -0.229 C  
HETATM   41  O   UNL     1      -9.776   6.380  69.615  1.00  0.00    -0.151 OA 
HETATM   42  C   UNL     1     -10.447   8.756  69.763  1.00  0.00    -0.219 C  
HETATM   43  C   UNL     1     -10.506   7.190  71.797  1.00  0.00    -0.219 C  
HETATM   44  O   UNL     1     -10.926   8.843  68.410  1.00  0.00    -0.451 OA 
HETATM   45  C   UNL     1      -8.979   9.180  69.762  1.00  0.00    -0.162 C  
HETATM   46  O   UNL     1      -8.492   9.416  71.086  1.00  0.00    -0.303 OA 
HETATM   47  C   UNL     1      -8.133   8.141  69.013  1.00  0.00    -0.115 C  
HETATM   48  H   UNL     1     -10.815   9.731  68.090  1.00  0.00     0.000 HD 
HETATM   49  H   UNL     1      -7.579   9.679  71.086  1.00  0.00     0.000 HD 
HETATM   50  O   UNL     1      -6.740   8.480  69.083  1.00  0.00    -0.046 OA 
HETATM   51  H   UNL     1      -6.588   9.356  68.747  1.00  0.00     0.000 HD 
ENDBRANCH  38  39
ENDBRANCH  37  38
ENDBRANCH  27  37
ENDBRANCH  24  25
ENDBRANCH  19  24
ENDBRANCH   7  11
ENDBRANCH   2   3
TORSDOF 7
ENDMDL
MODEL       97
REMARK 921   NORMALIZED FREE ENERGY PREDICTED BY IDOCK:   -5.53 KCAL/MOL
REMARK 922        TOTAL FREE ENERGY PREDICTED BY IDOCK:   -9.73 KCAL/MOL
REMARK 923 INTER-LIGAND FREE ENERGY PREDICTED BY IDOCK:   -7.30 KCAL/MOL
REMARK 924 INTRA-LIGAND FREE ENERGY PREDICTED BY IDOCK:   -2.43 KCAL/MOL
REMARK 927      BINDING AFFINITY PREDICTED BY RF-SCORE:    0.00 PKD
ROOT
HETATM    1  C   UNL     1      -5.457  20.066  68.144  1.00  0.00    -0.195 C  
HETATM    2  O   UNL     1      -6.658  19.589  68.744  1.00  0.00    -0.268 OA 
ENDROOT
BRANCH   2   3
HETATM    3  C   UNL     1      -7.320  18.619  68.036  1.00  0.00    -0.249 A  
HETATM    4  C   UNL     1      -8.597  18.961  67.600  1.00  0.00    -0.280 A  
HETATM    5  C   UNL     1      -9.388  18.060  66.889  1.00  0.00    -0.276 A  
HETATM    6  O   UNL     1      -9.118  20.196  67.881  1.00  0.00    -0.318 OA 
HETATM    7  C   UNL     1      -8.908  16.774  66.567  1.00  0.00    -0.311 A  
HETATM    8  H   UNL     1      -9.989  20.430  67.584  1.00  0.00     0.000 HD 
HETATM    9  C   UNL     1      -7.610  16.446  66.988  1.00  0.00    -0.240 A  
HETATM   10  C   UNL     1      -6.820  17.360  67.711  1.00  0.00    -0.176 A  
BRANCH   7  11
HETATM   11  C   UNL     1      -9.755  15.799  65.828  1.00  0.00    -0.337 C  
HETATM   12  C   UNL     1     -10.926  16.188  65.300  1.00  0.00    -0.280 C  
HETATM   13  C   UNL     1     -11.795  15.199  64.660  1.00  0.00    -0.332 C  
HETATM   14  O   UNL     1     -12.871  15.519  64.177  1.00  0.00    -0.445 OA 
HETATM   15  C   UNL     1     -11.330  13.814  64.640  1.00  0.00    -0.382 A  
HETATM   16  C   UNL     1     -12.131  12.801  64.121  1.00  0.00    -0.438 A  
HETATM   17  C   UNL     1     -11.667  11.492  64.055  1.00  0.00    -0.226 A  
HETATM   18  O   UNL     1     -13.389  13.018  63.629  1.00  0.00     0.226 OA 
HETATM   19  C   UNL     1     -10.383  11.180  64.494  1.00  0.00    -0.337 A  
HETATM   20  H   UNL     1     -13.935  12.327  63.275  1.00  0.00     0.000 HD 
HETATM   21  C   UNL     1      -9.581  12.207  65.044  1.00  0.00    -0.027 A  
HETATM   22  C   UNL     1     -10.064  13.525  65.143  1.00  0.00    -0.256 A  
HETATM   23  O   UNL     1      -9.259  14.492  65.727  1.00  0.00    -0.110 OA 
BRANCH  19  24
HETATM   24  O   UNL     1      -9.787   9.958  64.336  1.00  0.00    -0.236 OA 
BRANCH  24  25
HETATM   25  C   UNL     1      -9.028   9.343  65.414  1.00  0.00    -0.206 C  
HETATM   26  O   UNL     1      -9.537   9.590  66.735  1.00  0.00    -0.157 OA 
HETATM   27  C   UNL     1      -8.799   8.991  67.806  1.00  0.00    -0.124 C  
HETATM   28  H   UNL     1      -4.979   9.340  65.528  1.00  0.00     0.000 HD 
HETATM   29  C   UNL     1      -7.317   9.417  67.738  1.00  0.00    -0.083 C  
HETATM   30  O   UNL     1      -7.036   9.199  63.979  1.00  0.00    -0.088 OA 
HETATM   31  C   UNL     1      -6.711   9.074  66.390  1.00  0.00    -0.075 C  
HETATM   32  O   UNL     1      -6.454   8.829  68.725  1.00  0.00    -0.051 OA 
HETATM   33  H   UNL     1      -5.543   9.091  68.683  1.00  0.00     0.000 HD 
HETATM   34  H   UNL     1      -6.115   9.406  63.876  1.00  0.00     0.000 HD 
HETATM   35  O   UNL     1      -5.358   9.555  66.372  1.00  0.00    -0.043 OA 
HETATM   36  C   UNL     1      -7.524   9.681  65.247  1.00  0.00    -0.113 C  
BRANCH  27  37
HETATM   37  C   UNL     1      -9.284   9.493  69.183  1.00  0.00    -0.163 C  
BRANCH  37  38
HETATM   38  O   UNL     1      -8.711  10.687  69.699  1.00  0.00    -0.050 OA 
BRANCH  38  39
HETATM   39  C   UNL     1      -9.722  11.728  69.813  1.00  0.00     1.506 C  
HETATM   40  C   UNL     1     -12.137  12.038  69.837  1.00  0.00    -0.263 C  
HETATM   41  O   UNL     1     -11.025  11.139  69.776  1.00  0.00    -0.233 OA 
HETATM   42  C   UNL     1     -12.046  13.165  68.790  1.00  0.00    -0.191 C  
HETATM   43  C   UNL     1     -12.364  12.538  71.259  1.00  0.00    -0.152 C  
HETATM   44  O   UNL     1     -12.195  12.610  67.472  1.00  0.00    -0.389 OA 
HETATM   45  C   UNL     1     -10.696  13.880  68.841  1.00  0.00    -0.236 C  
HETATM   46  O   UNL     1     -10.579  14.713  69.997  1.00  0.00    -0.453 OA 
HETATM   47  C   UNL     1      -9.557  12.856  68.750  1.00  0.00     0.100 C  
HETATM   48  H   UNL     1     -12.139  13.305  66.826  1.00  0.00     0.000 HD 
HETATM   49  H   UNL     1      -9.740  15.158  70.029  1.00  0.00     0.000 HD 
HETATM   50  O   UNL     1      -8.283  13.505  68.888  1.00  0.00    -0.341 OA 
HETATM   51  H   UNL     1      -8.183  14.193  68.240  1.00  0.00     0.000 HD 
ENDBRANCH  38  39
ENDBRANCH  37  38
ENDBRANCH  27  37
ENDBRANCH  24  25
ENDBRANCH  19  24
ENDBRANCH   7  11
ENDBRANCH   2   3
TORSDOF 7
ENDMDL
MODEL       98
REMARK 921   NORMALIZED FREE ENERGY PREDICTED BY IDOCK:   -5.52 KCAL/MOL
REMARK 922        TOTAL FREE ENERGY PREDICTED BY IDOCK:   -9.71 KCAL/MOL
REMARK 923 INTER-LIGAND FREE ENERGY PREDICTED BY IDOCK:   -8.41 KCAL/MOL
REMARK 924 INTRA-LIGAND FREE ENERGY PREDICTED BY IDOCK:   -1.30 KCAL/MOL
REMARK 927      BINDING AFFINITY PREDICTED BY RF-SCORE:    0.00 PKD
ROOT
HETATM    1  C   UNL     1      -8.191   2.319  69.991  1.00  0.00    -0.041 C  
HETATM    2  O   UNL     1      -8.174   3.300  71.025  1.00  0.00    -0.060 OA 
ENDROOT
BRANCH   2   3
HETATM    3  C   UNL     1      -7.954   4.587  70.606  1.00  0.00    -0.061 A  
HETATM    4  C   UNL     1      -7.860   5.539  71.618  1.00  0.00    -0.112 A  
HETATM    5  C   UNL     1      -7.660   6.888  71.330  1.00  0.00    -0.087 A  
HETATM    6  O   UNL     1      -7.986   5.170  72.931  1.00  0.00    -0.100 OA 
HETATM    7  C   UNL     1      -7.522   7.331  69.999  1.00  0.00    -0.085 A  
HETATM    8  H   UNL     1      -7.922   5.819  73.621  1.00  0.00     0.000 HD 
HETATM    9  C   UNL     1      -7.591   6.361  68.986  1.00  0.00    -0.100 A  
HETATM   10  C   UNL     1      -7.800   5.001  69.285  1.00  0.00    -0.076 A  
BRANCH   7  11
HETATM   11  C   UNL     1      -7.330   8.773  69.683  1.00  0.00    -0.059 C  
HETATM   12  C   UNL     1      -6.243   9.421  70.128  1.00  0.00    -0.055 C  
HETATM   13  C   UNL     1      -6.113  10.860  69.894  1.00  0.00    -0.105 C  
HETATM   14  O   UNL     1      -5.141  11.481  70.293  1.00  0.00    -0.070 OA 
HETATM   15  C   UNL     1      -7.203  11.522  69.180  1.00  0.00    -0.084 A  
HETATM   16  C   UNL     1      -7.193  12.900  68.985  1.00  0.00     0.017 A  
HETATM   17  C   UNL     1      -8.204  13.522  68.261  1.00  0.00    -0.157 A  
HETATM   18  O   UNL     1      -6.203  13.717  69.459  1.00  0.00    -0.107 OA 
HETATM   19  C   UNL     1      -9.233  12.769  67.705  1.00  0.00    -0.192 A  
HETATM   20  H   UNL     1      -6.197  14.657  69.326  1.00  0.00     0.000 HD 
HETATM   21  C   UNL     1      -9.254  11.372  67.925  1.00  0.00    -0.164 A  
HETATM   22  C   UNL     1      -8.250  10.747  68.688  1.00  0.00    -0.139 A  
HETATM   23  O   UNL     1      -8.332   9.381  68.914  1.00  0.00    -0.115 OA 
BRANCH  19  24
HETATM   24  O   UNL     1     -10.187  13.267  66.859  1.00  0.00    -0.245 OA 
BRANCH  24  25
HETATM   25  C   UNL     1     -10.094  14.617  66.326  1.00  0.00    -0.294 C  
HETATM   26  O   UNL     1     -10.187  15.666  67.304  1.00  0.00    -0.256 OA 
HETATM   27  C   UNL     1     -10.097  17.000  66.792  1.00  0.00    -0.300 C  
HETATM   28  H   UNL     1     -11.994  15.781  62.943  1.00  0.00     0.000 HD 
HETATM   29  C   UNL     1     -11.159  17.225  65.696  1.00  0.00     0.306 C  
HETATM   30  O   UNL     1     -10.775  13.825  64.099  1.00  0.00    -0.576 OA 
HETATM   31  C   UNL     1     -11.024  16.199  64.586  1.00  0.00    -0.245 C  
HETATM   32  O   UNL     1     -11.131  18.511  65.055  1.00  0.00    -0.528 OA 
HETATM   33  H   UNL     1     -11.784  18.649  64.381  1.00  0.00     0.000 HD 
HETATM   34  H   UNL     1     -11.379  13.921  63.373  1.00  0.00     0.000 HD 
HETATM   35  O   UNL     1     -12.079  16.423  63.638  1.00  0.00    -0.734 OA 
HETATM   36  C   UNL     1     -11.079  14.775  65.140  1.00  0.00    -0.384 C  
BRANCH  27  37
HETATM   37  C   UNL     1     -10.431  18.048  67.876  1.00  0.00    -0.396 C  
BRANCH  37  38
HETATM   38  O   UNL     1      -9.424  18.984  68.235  1.00  0.00    -0.314 OA 
BRANCH  38  39
HETATM   39  C   UNL     1      -8.228  18.777  67.433  1.00  0.00    -0.263 C  
HETATM   40  C   UNL     1      -5.828  18.429  67.652  1.00  0.00    -0.157 C  
HETATM   41  O   UNL     1      -7.096  18.604  68.291  1.00  0.00    -0.239 OA 
HETATM   42  C   UNL     1      -5.530  19.528  66.615  1.00  0.00    -0.162 C  
HETATM   43  C   UNL     1      -5.677  17.013  67.107  1.00  0.00    -0.194 C  
HETATM   44  O   UNL     1      -5.343  20.786  67.288  1.00  0.00    -0.165 OA 
HETATM   45  C   UNL     1      -6.679  19.701  65.623  1.00  0.00    -0.276 C  
HETATM   46  O   UNL     1      -6.752  18.612  64.698  1.00  0.00    -0.303 OA 
HETATM   47  C   UNL     1      -7.999  19.904  66.379  1.00  0.00    -0.323 C  
HETATM   48  H   UNL     1      -5.159  21.464  66.648  1.00  0.00     0.000 HD 
HETATM   49  H   UNL     1      -7.466  18.718  64.081  1.00  0.00     0.000 HD 
HETATM   50  O   UNL     1      -9.101  19.976  65.461  1.00  0.00    -0.407 OA 
HETATM   51  H   UNL     1      -8.961  20.662  64.820  1.00  0.00     0.000 HD 
ENDBRANCH  38  39
ENDBRANCH  37  38
ENDBRANCH  27  37
ENDBRANCH  24  25
ENDBRANCH  19  24
ENDBRANCH   7  11
ENDBRANCH   2   3
TORSDOF 7
ENDMDL
MODEL       99
REMARK 921   NORMALIZED FREE ENERGY PREDICTED BY IDOCK:   -5.48 KCAL/MOL
REMARK 922        TOTAL FREE ENERGY PREDICTED BY IDOCK:   -9.65 KCAL/MOL
REMARK 923 INTER-LIGAND FREE ENERGY PREDICTED BY IDOCK:   -8.01 KCAL/MOL
REMARK 924 INTRA-LIGAND FREE ENERGY PREDICTED BY IDOCK:   -1.65 KCAL/MOL
REMARK 927      BINDING AFFINITY PREDICTED BY RF-SCORE:    0.00 PKD
ROOT
HETATM    1  C   UNL     1      -7.172   1.542  71.554  1.00  0.00    -0.031 C  
HETATM    2  O   UNL     1      -7.470   2.317  72.711  1.00  0.00    -0.038 OA 
ENDROOT
BRANCH   2   3
HETATM    3  C   UNL     1      -8.012   3.553  72.463  1.00  0.00    -0.069 A  
HETATM    4  C   UNL     1      -9.364   3.686  72.768  1.00  0.00    -0.108 A  
HETATM    5  C   UNL     1     -10.045   4.881  72.544  1.00  0.00    -0.233 A  
HETATM    6  O   UNL     1     -10.068   2.628  73.279  1.00  0.00    -0.104 OA 
HETATM    7  C   UNL     1      -9.377   6.008  72.022  1.00  0.00    -0.158 A  
HETATM    8  H   UNL     1     -10.990   2.719  73.486  1.00  0.00     0.000 HD 
HETATM    9  C   UNL     1      -8.008   5.873  71.742  1.00  0.00    -0.111 A  
HETATM   10  C   UNL     1      -7.329   4.660  71.965  1.00  0.00    -0.072 A  
BRANCH   7  11
HETATM   11  C   UNL     1     -10.102   7.281  71.759  1.00  0.00    -0.179 C  
HETATM   12  C   UNL     1     -11.180   7.604  72.489  1.00  0.00    -0.399 C  
HETATM   13  C   UNL     1     -11.942   8.810  72.159  1.00  0.00    -0.366 C  
HETATM   14  O   UNL     1     -12.933   9.128  72.798  1.00  0.00    -0.342 OA 
HETATM   15  C   UNL     1     -11.477   9.604  71.024  1.00  0.00    -0.444 A  
HETATM   16  C   UNL     1     -12.190  10.720  70.595  1.00  0.00    -0.379 A  
HETATM   17  C   UNL     1     -11.719  11.505  69.548  1.00  0.00    -0.413 A  
HETATM   18  O   UNL     1     -13.360  11.129  71.174  1.00  0.00    -0.146 OA 
HETATM   19  C   UNL     1     -10.516  11.191  68.924  1.00  0.00    -0.207 A  
HETATM   20  H   UNL     1     -13.846  11.891  70.882  1.00  0.00     0.000 HD 
HETATM   21  C   UNL     1      -9.807  10.042  69.343  1.00  0.00    -0.240 A  
HETATM   22  C   UNL     1     -10.301   9.228  70.380  1.00  0.00    -0.240 A  
HETATM   23  O   UNL     1      -9.594   8.088  70.732  1.00  0.00    -0.161 OA 
BRANCH  19  24
HETATM   24  O   UNL     1      -9.901  11.979  67.989  1.00  0.00    -0.187 OA 
BRANCH  24  25
HETATM   25  C   UNL     1      -9.201  11.399  66.853  1.00  0.00    -0.176 C  
HETATM   26  O   UNL     1      -9.430   9.995  66.649  1.00  0.00    -0.161 OA 
HETATM   27  C   UNL     1      -8.746   9.412  65.535  1.00  0.00    -0.163 C  
HETATM   28  H   UNL     1      -5.339  12.257  65.981  1.00  0.00     0.000 HD 
HETATM   29  C   UNL     1      -7.229   9.674  65.641  1.00  0.00    -0.097 C  
HETATM   30  O   UNL     1      -7.549  13.221  66.893  1.00  0.00    -0.370 OA 
HETATM   31  C   UNL     1      -6.938  11.159  65.750  1.00  0.00     0.192 C  
HETATM   32  O   UNL     1      -6.435   9.191  64.545  1.00  0.00    -0.074 OA 
HETATM   33  H   UNL     1      -5.502   9.353  64.611  1.00  0.00     0.000 HD 
HETATM   34  H   UNL     1      -6.631  13.460  66.932  1.00  0.00     0.000 HD 
HETATM   35  O   UNL     1      -5.521  11.327  65.913  1.00  0.00    -0.190 OA 
HETATM   36  C   UNL     1      -7.702  11.789  66.916  1.00  0.00    -0.129 C  
BRANCH  27  37
HETATM   37  C   UNL     1      -8.874   7.873  65.532  1.00  0.00    -0.031 C  
BRANCH  37  38
HETATM   38  O   UNL     1      -9.513   7.252  66.640  1.00  0.00    -0.166 OA 
BRANCH  38  39
HETATM   39  C   UNL     1      -9.109   5.859  66.744  1.00  0.00    -0.128 C  
HETATM   40  C   UNL     1      -7.121   4.453  66.776  1.00  0.00    -0.067 C  
HETATM   41  O   UNL     1      -7.681   5.769  66.722  1.00  0.00    -0.098 OA 
HETATM   42  C   UNL     1      -7.717   3.511  65.712  1.00  0.00    -0.082 C  
HETATM   43  C   UNL     1      -7.171   3.890  68.192  1.00  0.00    -0.059 C  
HETATM   44  O   UNL     1      -7.310   3.945  64.403  1.00  0.00    -0.064 OA 
HETATM   45  C   UNL     1      -9.245   3.511  65.745  1.00  0.00    -0.160 C  
HETATM   46  O   UNL     1      -9.752   2.818  66.888  1.00  0.00    -0.406 OA 
HETATM   47  C   UNL     1      -9.771   4.950  65.663  1.00  0.00    -0.145 C  
HETATM   48  H   UNL     1      -7.677   3.364  63.747  1.00  0.00     0.000 HD 
HETATM   49  H   UNL     1     -10.702   2.818  66.909  1.00  0.00     0.000 HD 
HETATM   50  O   UNL     1     -11.202   4.972  65.785  1.00  0.00    -0.804 OA 
HETATM   51  H   UNL     1     -11.605   4.419  65.126  1.00  0.00     0.000 HD 
ENDBRANCH  38  39
ENDBRANCH  37  38
ENDBRANCH  27  37
ENDBRANCH  24  25
ENDBRANCH  19  24
ENDBRANCH   7  11
ENDBRANCH   2   3
TORSDOF 7
ENDMDL
MODEL      100
REMARK 921   NORMALIZED FREE ENERGY PREDICTED BY IDOCK:   -5.43 KCAL/MOL
REMARK 922        TOTAL FREE ENERGY PREDICTED BY IDOCK:   -9.58 KCAL/MOL
REMARK 923 INTER-LIGAND FREE ENERGY PREDICTED BY IDOCK:   -8.49 KCAL/MOL
REMARK 924 INTRA-LIGAND FREE ENERGY PREDICTED BY IDOCK:   -1.09 KCAL/MOL
REMARK 927      BINDING AFFINITY PREDICTED BY RF-SCORE:    0.00 PKD
ROOT
HETATM    1  C   UNL     1      -9.429   3.133  70.513  1.00  0.00    -0.165 C  
HETATM    2  O   UNL     1     -10.248   3.772  71.488  1.00  0.00    -0.108 OA 
ENDROOT
BRANCH   2   3
HETATM    3  C   UNL     1     -10.534   5.090  71.239  1.00  0.00    -0.143 A  
HETATM    4  C   UNL     1     -10.700   5.891  72.367  1.00  0.00    -0.232 A  
HETATM    5  C   UNL     1     -11.015   7.243  72.256  1.00  0.00    -0.286 A  
HETATM    6  O   UNL     1     -10.577   5.356  73.621  1.00  0.00    -0.237 OA 
HETATM    7  C   UNL     1     -11.154   7.854  70.993  1.00  0.00    -0.268 A  
HETATM    8  H   UNL     1     -10.690   5.902  74.390  1.00  0.00     0.000 HD 
HETATM    9  C   UNL     1     -10.959   7.046  69.862  1.00  0.00    -0.296 A  
HETATM   10  C   UNL     1     -10.647   5.678  69.981  1.00  0.00    -0.388 A  
BRANCH   7  11
HETATM   11  C   UNL     1     -11.512   9.293  70.867  1.00  0.00    -0.303 C  
HETATM   12  C   UNL     1     -12.360   9.854  71.743  1.00  0.00    -0.456 C  
HETATM   13  C   UNL     1     -12.781  11.243  71.553  1.00  0.00    -0.376 C  
HETATM   14  O   UNL     1     -13.558  11.781  72.327  1.00  0.00    -0.328 OA 
HETATM   15  C   UNL     1     -12.247  11.950  70.391  1.00  0.00    -0.399 A  
HETATM   16  C   UNL     1     -12.659  13.247  70.095  1.00  0.00    -0.044 A  
HETATM   17  C   UNL     1     -12.112  13.937  69.019  1.00  0.00    -0.365 A  
HETATM   18  O   UNL     1     -13.587  13.925  70.836  1.00  0.00    -0.115 OA 
HETATM   19  C   UNL     1     -11.130  13.343  68.231  1.00  0.00    -0.262 A  
HETATM   20  H   UNL     1     -13.867  14.810  70.634  1.00  0.00     0.000 HD 
HETATM   21  C   UNL     1     -10.733  12.017  68.518  1.00  0.00    -0.261 A  
HETATM   22  C   UNL     1     -11.312  11.305  69.586  1.00  0.00    -0.287 A  
HETATM   23  O   UNL     1     -10.922   9.993  69.807  1.00  0.00    -0.243 OA 
BRANCH  19  24
HETATM   24  O   UNL     1     -10.433  13.990  67.247  1.00  0.00    -0.265 OA 
BRANCH  24  25
HETATM   25  C   UNL     1      -9.069  13.609  66.913  1.00  0.00    -0.240 C  
HETATM   26  O   UNL     1      -8.891  12.229  66.559  1.00  0.00    -0.197 OA 
HETATM   27  C   UNL     1      -7.553  11.841  66.229  1.00  0.00     0.262 C  
HETATM   28  H   UNL     1      -5.856  14.860  69.041  1.00  0.00     0.000 HD 
HETATM   29  C   UNL     1      -6.592  12.203  67.380  1.00  0.00    -0.147 C  
HETATM   30  O   UNL     1      -8.187  15.533  68.167  1.00  0.00    -0.140 OA 
HETATM   31  C   UNL     1      -6.671  13.681  67.714  1.00  0.00    -0.170 C  
HETATM   32  O   UNL     1      -5.202  11.921  67.144  1.00  0.00    -0.092 OA 
HETATM   33  H   UNL     1      -4.611  12.144  67.853  1.00  0.00     0.000 HD 
HETATM   34  H   UNL     1      -7.598  15.835  68.848  1.00  0.00     0.000 HD 
HETATM   35  O   UNL     1      -5.806  13.935  68.832  1.00  0.00    -0.079 OA 
HETATM   36  C   UNL     1      -8.107  14.101  68.026  1.00  0.00    -0.149 C  
BRANCH  27  37
HETATM   37  C   UNL     1      -7.424  10.309  66.083  1.00  0.00    -0.121 C  
BRANCH  37  38
HETATM   38  O   UNL     1      -8.615   9.534  66.088  1.00  0.00    -0.127 OA 
BRANCH  38  39
HETATM   39  C   UNL     1      -8.354   8.198  65.576  1.00  0.00    -0.153 C  
HETATM   40  C   UNL     1      -7.052   6.198  66.059  1.00  0.00    -0.067 C  
HETATM   41  O   UNL     1      -7.444   7.518  66.447  1.00  0.00    -0.081 OA 
HETATM   42  C   UNL     1      -6.528   6.136  64.611  1.00  0.00    -0.034 C  
HETATM   43  C   UNL     1      -8.152   5.185  66.358  1.00  0.00    -0.108 C  
HETATM   44  O   UNL     1      -5.282   6.846  64.520  1.00  0.00    -0.026 OA 
HETATM   45  C   UNL     1      -7.502   6.782  63.627  1.00  0.00    -0.084 C  
HETATM   46  O   UNL     1      -8.665   5.974  63.421  1.00  0.00    -0.334 OA 
HETATM   47  C   UNL     1      -7.860   8.198  64.096  1.00  0.00    -0.142 C  
HETATM   48  H   UNL     1      -4.959   6.808  63.627  1.00  0.00     0.000 HD 
HETATM   49  H   UNL     1      -9.271   6.376  62.809  1.00  0.00     0.000 HD 
HETATM   50  O   UNL     1      -8.845   8.783  63.230  1.00  0.00    -0.431 OA 
HETATM   51  H   UNL     1      -8.544   8.784  62.329  1.00  0.00     0.000 HD 
ENDBRANCH  38  39
ENDBRANCH  37  38
ENDBRANCH  27  37
ENDBRANCH  24  25
ENDBRANCH  19  24
ENDBRANCH   7  11
ENDBRANCH   2   3
TORSDOF 7
ENDMDL
MODEL      101
REMARK 921   NORMALIZED FREE ENERGY PREDICTED BY IDOCK:   -5.32 KCAL/MOL
REMARK 922        TOTAL FREE ENERGY PREDICTED BY IDOCK:   -9.44 KCAL/MOL
REMARK 923 INTER-LIGAND FREE ENERGY PREDICTED BY IDOCK:   -8.09 KCAL/MOL
REMARK 924 INTRA-LIGAND FREE ENERGY PREDICTED BY IDOCK:   -1.35 KCAL/MOL
REMARK 927      BINDING AFFINITY PREDICTED BY RF-SCORE:    0.00 PKD
ROOT
HETATM    1  C   UNL     1      -9.774  21.215  67.197  1.00  0.00     0.205 C  
HETATM    2  O   UNL     1      -8.992  20.048  66.955  1.00  0.00    -0.321 OA 
ENDROOT
BRANCH   2   3
HETATM    3  C   UNL     1      -9.576  18.865  67.328  1.00  0.00    -0.307 A  
HETATM    4  C   UNL     1      -8.967  18.205  68.392  1.00  0.00    -0.293 A  
HETATM    5  C   UNL     1      -9.446  16.981  68.857  1.00  0.00    -0.235 A  
HETATM    6  O   UNL     1      -7.861  18.738  68.997  1.00  0.00    -0.278 OA 
HETATM    7  C   UNL     1     -10.582  16.381  68.278  1.00  0.00    -0.318 A  
HETATM    8  H   UNL     1      -7.445  18.288  69.723  1.00  0.00     0.000 HD 
HETATM    9  C   UNL     1     -11.206  17.066  67.223  1.00  0.00     0.260 A  
HETATM   10  C   UNL     1     -10.712  18.299  66.754  1.00  0.00    -0.247 A  
BRANCH   7  11
HETATM   11  C   UNL     1     -11.086  15.064  68.754  1.00  0.00    -0.261 C  
HETATM   12  C   UNL     1     -11.757  14.979  69.913  1.00  0.00    -0.343 C  
HETATM   13  C   UNL     1     -12.163  13.667  70.419  1.00  0.00    -0.363 C  
HETATM   14  O   UNL     1     -12.767  13.554  71.475  1.00  0.00    -0.352 OA 
HETATM   15  C   UNL     1     -11.798  12.500  69.619  1.00  0.00    -0.382 A  
HETATM   16  C   UNL     1     -12.077  11.213  70.068  1.00  0.00    -0.359 A  
HETATM   17  C   UNL     1     -11.776  10.105  69.283  1.00  0.00    -0.065 A  
HETATM   18  O   UNL     1     -12.673  10.952  71.272  1.00  0.00    -0.380 OA 
HETATM   19  C   UNL     1     -11.205  10.273  68.025  1.00  0.00    -0.235 A  
HETATM   20  H   UNL     1     -12.863  10.073  71.579  1.00  0.00     0.000 HD 
HETATM   21  C   UNL     1     -10.899  11.580  67.582  1.00  0.00    -0.277 A  
HETATM   22  C   UNL     1     -11.171  12.699  68.392  1.00  0.00    -0.279 A  
HETATM   23  O   UNL     1     -10.818  13.959  67.935  1.00  0.00    -0.239 OA 
BRANCH  19  24
HETATM   24  O   UNL     1     -11.008   9.261  67.124  1.00  0.00    -0.138 OA 
BRANCH  24  25
HETATM   25  C   UNL     1     -10.020   8.221  67.361  1.00  0.00    -0.209 C  
HETATM   26  O   UNL     1     -10.214   7.459  68.563  1.00  0.00    -0.174 OA 
HETATM   27  C   UNL     1      -9.247   6.431  68.808  1.00  0.00    -0.127 C  
HETATM   28  H   UNL     1      -6.052   8.782  66.766  1.00  0.00     0.000 HD 
HETATM   29  C   UNL     1      -7.823   7.024  68.799  1.00  0.00    -0.118 C  
HETATM   30  O   UNL     1      -8.409   9.367  65.898  1.00  0.00    -0.116 OA 
HETATM   31  C   UNL     1      -7.540   7.747  67.497  1.00  0.00    -0.109 C  
HETATM   32  O   UNL     1      -6.754   6.079  68.972  1.00  0.00    -0.055 OA 
HETATM   33  H   UNL     1      -5.877   6.444  68.967  1.00  0.00     0.000 HD 
HETATM   34  H   UNL     1      -7.537   9.732  65.810  1.00  0.00     0.000 HD 
HETATM   35  O   UNL     1      -6.230   8.329  67.583  1.00  0.00    -0.050 OA 
HETATM   36  C   UNL     1      -8.596   8.817  67.217  1.00  0.00    -0.121 C  
BRANCH  27  37
HETATM   37  C   UNL     1      -9.407   5.825  70.219  1.00  0.00    -0.156 C  
BRANCH  37  38
HETATM   38  O   UNL     1      -9.048   4.463  70.407  1.00  0.00    -0.093 OA 
BRANCH  38  39
HETATM   39  C   UNL     1      -9.349   4.041  71.767  1.00  0.00    -0.132 C  
HETATM   40  C   UNL     1     -11.094   4.182  73.458  1.00  0.00    -0.270 C  
HETATM   41  O   UNL     1     -10.660   4.484  72.129  1.00  0.00    -0.164 OA 
HETATM   42  C   UNL     1     -10.081   4.630  74.529  1.00  0.00    -0.231 C  
HETATM   43  C   UNL     1     -11.513   2.721  73.583  1.00  0.00    -0.202 C  
HETATM   44  O   UNL     1     -10.021   6.067  74.563  1.00  0.00    -0.245 OA 
HETATM   45  C   UNL     1      -8.673   4.117  74.229  1.00  0.00    -0.095 C  
HETATM   46  O   UNL     1      -8.558   2.710  74.466  1.00  0.00    -0.069 OA 
HETATM   47  C   UNL     1      -8.270   4.495  72.798  1.00  0.00    -0.099 C  
HETATM   48  H   UNL     1      -9.396   6.343  75.223  1.00  0.00     0.000 HD 
HETATM   49  H   UNL     1      -7.683   2.391  74.280  1.00  0.00     0.000 HD 
HETATM   50  O   UNL     1      -6.987   3.940  72.471  1.00  0.00    -0.043 OA 
HETATM   51  H   UNL     1      -6.330   4.216  73.099  1.00  0.00     0.000 HD 
ENDBRANCH  38  39
ENDBRANCH  37  38
ENDBRANCH  27  37
ENDBRANCH  24  25
ENDBRANCH  19  24
ENDBRANCH   7  11
ENDBRANCH   2   3
TORSDOF 7
ENDMDL
MODEL      102
REMARK 921   NORMALIZED FREE ENERGY PREDICTED BY IDOCK:   -5.32 KCAL/MOL
REMARK 922        TOTAL FREE ENERGY PREDICTED BY IDOCK:   -9.43 KCAL/MOL
REMARK 923 INTER-LIGAND FREE ENERGY PREDICTED BY IDOCK:   -7.81 KCAL/MOL
REMARK 924 INTRA-LIGAND FREE ENERGY PREDICTED BY IDOCK:   -1.62 KCAL/MOL
REMARK 927      BINDING AFFINITY PREDICTED BY RF-SCORE:    0.00 PKD
ROOT
HETATM    1  C   UNL     1      -7.130   2.342  68.550  1.00  0.00    -0.044 C  
HETATM    2  O   UNL     1      -8.548   2.457  68.630  1.00  0.00    -0.064 OA 
ENDROOT
BRANCH   2   3
HETATM    3  C   UNL     1      -9.018   3.707  68.944  1.00  0.00    -0.126 A  
HETATM    4  C   UNL     1      -9.720   3.800  70.143  1.00  0.00    -0.147 A  
HETATM    5  C   UNL     1     -10.270   5.007  70.570  1.00  0.00    -0.316 A  
HETATM    6  O   UNL     1      -9.907   2.692  70.925  1.00  0.00    -0.111 OA 
HETATM    7  C   UNL     1     -10.111   6.184  69.811  1.00  0.00    -0.229 A  
HETATM    8  H   UNL     1     -10.386   2.755  71.743  1.00  0.00     0.000 HD 
HETATM    9  C   UNL     1      -9.379   6.087  68.617  1.00  0.00    -0.121 A  
HETATM   10  C   UNL     1      -8.832   4.862  68.188  1.00  0.00    -0.113 A  
BRANCH   7  11
HETATM   11  C   UNL     1     -10.714   7.472  70.249  1.00  0.00    -0.238 C  
HETATM   12  C   UNL     1     -11.300   7.566  71.453  1.00  0.00    -0.284 C  
HETATM   13  C   UNL     1     -11.974   8.807  71.835  1.00  0.00    -0.365 C  
HETATM   14  O   UNL     1     -12.524   8.922  72.920  1.00  0.00    -0.233 OA 
HETATM   15  C   UNL     1     -11.977   9.893  70.858  1.00  0.00    -0.434 A  
HETATM   16  C   UNL     1     -12.664  11.077  71.111  1.00  0.00    -0.419 A  
HETATM   17  C   UNL     1     -12.624  12.130  70.203  1.00  0.00     0.022 A  
HETATM   18  O   UNL     1     -13.387  11.294  72.251  1.00  0.00    -0.625 OA 
HETATM   19  C   UNL     1     -11.879  12.018  69.032  1.00  0.00    -0.315 A  
HETATM   20  H   UNL     1     -13.855  12.103  72.424  1.00  0.00     0.000 HD 
HETATM   21  C   UNL     1     -11.204  10.804  68.765  1.00  0.00    -0.331 A  
HETATM   22  C   UNL     1     -11.274   9.726  69.668  1.00  0.00    -0.178 A  
HETATM   23  O   UNL     1     -10.630   8.540  69.347  1.00  0.00    -0.221 OA 
BRANCH  19  24
HETATM   24  O   UNL     1     -11.661  13.043  68.153  1.00  0.00    -0.297 OA 
BRANCH  24  25
HETATM   25  C   UNL     1     -10.317  13.525  67.873  1.00  0.00    -0.249 C  
HETATM   26  O   UNL     1      -9.368  12.508  67.514  1.00  0.00    -0.177 OA 
HETATM   27  C   UNL     1      -8.041  12.969  67.236  1.00  0.00    -0.161 C  
HETATM   28  H   UNL     1      -8.470  16.328  70.141  1.00  0.00     0.000 HD 
HETATM   29  C   UNL     1      -7.496  13.782  68.430  1.00  0.00    -0.119 C  
HETATM   30  O   UNL     1     -10.737  15.568  69.177  1.00  0.00    -0.226 OA 
HETATM   31  C   UNL     1      -8.420  14.935  68.772  1.00  0.00    -0.172 C  
HETATM   32  O   UNL     1      -6.191  14.356  68.249  1.00  0.00    -0.098 OA 
HETATM   33  H   UNL     1      -5.857  14.855  68.983  1.00  0.00     0.000 HD 
HETATM   34  H   UNL     1     -10.449  16.131  69.885  1.00  0.00     0.000 HD 
HETATM   35  O   UNL     1      -7.891  15.605  69.927  1.00  0.00    -0.079 OA 
HETATM   36  C   UNL     1      -9.846  14.445  69.028  1.00  0.00    -0.101 C  
BRANCH  27  37
HETATM   37  C   UNL     1      -7.051  11.794  67.084  1.00  0.00    -0.146 C  
BRANCH  37  38
HETATM   38  O   UNL     1      -7.524  10.481  67.353  1.00  0.00    -0.092 OA 
BRANCH  38  39
HETATM   39  C   UNL     1      -6.958   9.532  66.406  1.00  0.00    -0.088 C  
HETATM   40  C   UNL     1      -7.114   8.852  64.074  1.00  0.00    -0.094 C  
HETATM   41  O   UNL     1      -7.538   9.738  65.114  1.00  0.00    -0.113 OA 
HETATM   42  C   UNL     1      -7.240   7.368  64.469  1.00  0.00    -0.073 C  
HETATM   43  C   UNL     1      -5.732   9.234  63.554  1.00  0.00    -0.082 C  
HETATM   44  O   UNL     1      -8.630   7.021  64.596  1.00  0.00    -0.347 OA 
HETATM   45  C   UNL     1      -6.567   7.079  65.811  1.00  0.00    -0.052 C  
HETATM   46  O   UNL     1      -5.141   7.105  65.707  1.00  0.00    -0.022 OA 
HETATM   47  C   UNL     1      -7.085   8.051  66.878  1.00  0.00    -0.081 C  
HETATM   48  H   UNL     1      -8.708   6.106  64.840  1.00  0.00     0.000 HD 
HETATM   49  H   UNL     1      -4.722   6.926  66.540  1.00  0.00     0.000 HD 
HETATM   50  O   UNL     1      -6.395   7.851  68.121  1.00  0.00    -0.047 OA 
HETATM   51  H   UNL     1      -6.473   6.949  68.409  1.00  0.00     0.000 HD 
ENDBRANCH  38  39
ENDBRANCH  37  38
ENDBRANCH  27  37
ENDBRANCH  24  25
ENDBRANCH  19  24
ENDBRANCH   7  11
ENDBRANCH   2   3
TORSDOF 7
ENDMDL
MODEL      103
REMARK 921   NORMALIZED FREE ENERGY PREDICTED BY IDOCK:   -5.30 KCAL/MOL
REMARK 922        TOTAL FREE ENERGY PREDICTED BY IDOCK:   -9.41 KCAL/MOL
REMARK 923 INTER-LIGAND FREE ENERGY PREDICTED BY IDOCK:   -7.64 KCAL/MOL
REMARK 924 INTRA-LIGAND FREE ENERGY PREDICTED BY IDOCK:   -1.77 KCAL/MOL
REMARK 927      BINDING AFFINITY PREDICTED BY RF-SCORE:    0.00 PKD
ROOT
HETATM    1  C   UNL     1     -12.060  15.772  64.040  1.00  0.00     0.206 C  
HETATM    2  O   UNL     1     -12.861  14.594  64.018  1.00  0.00    -0.690 OA 
ENDROOT
BRANCH   2   3
HETATM    3  C   UNL     1     -12.181  13.420  64.215  1.00  0.00    -0.392 A  
HETATM    4  C   UNL     1     -11.946  13.078  65.544  1.00  0.00    -0.424 A  
HETATM    5  C   UNL     1     -11.245  11.922  65.884  1.00  0.00    -0.373 A  
HETATM    6  O   UNL     1     -12.382  13.890  66.556  1.00  0.00    -0.445 OA 
HETATM    7  C   UNL     1     -10.771  11.044  64.888  1.00  0.00    -0.278 A  
HETATM    8  H   UNL     1     -12.222  13.657  67.463  1.00  0.00     0.000 HD 
HETATM    9  C   UNL     1     -11.035  11.382  63.551  1.00  0.00    -0.406 A  
HETATM   10  C   UNL     1     -11.738  12.556  63.216  1.00  0.00    -0.478 A  
BRANCH   7  11
HETATM   11  C   UNL     1     -10.003   9.819  65.242  1.00  0.00    -0.181 C  
HETATM   12  C   UNL     1      -8.787   9.610  64.714  1.00  0.00    -0.242 C  
HETATM   13  C   UNL     1      -8.083   8.358  64.993  1.00  0.00    -0.147 C  
HETATM   14  O   UNL     1      -6.979   8.133  64.521  1.00  0.00    -0.072 OA 
HETATM   15  C   UNL     1      -8.764   7.384  65.843  1.00  0.00    -0.161 A  
HETATM   16  C   UNL     1      -8.198   6.137  66.092  1.00  0.00    -0.119 A  
HETATM   17  C   UNL     1      -8.821   5.230  66.943  1.00  0.00    -0.110 A  
HETATM   18  O   UNL     1      -7.007   5.734  65.553  1.00  0.00    -0.064 OA 
HETATM   19  C   UNL     1     -10.016   5.567  67.571  1.00  0.00    -0.160 A  
HETATM   20  H   UNL     1      -6.620   4.883  65.723  1.00  0.00     0.000 HD 
HETATM   21  C   UNL     1     -10.603   6.824  67.296  1.00  0.00    -0.390 A  
HETATM   22  C   UNL     1      -9.989   7.728  66.408  1.00  0.00    -0.094 A  
HETATM   23  O   UNL     1     -10.620   8.932  66.135  1.00  0.00     0.070 OA 
BRANCH  19  24
HETATM   24  O   UNL     1     -10.627   4.806  68.531  1.00  0.00     0.108 OA 
BRANCH  24  25
HETATM   25  C   UNL     1     -10.293   4.955  69.939  1.00  0.00    -0.150 C  
HETATM   26  O   UNL     1     -10.010   6.300  70.359  1.00  0.00    -0.174 OA 
HETATM   27  C   UNL     1      -9.680   6.460  71.743  1.00  0.00    -0.159 C  
HETATM   28  H   UNL     1      -7.826   2.405  71.894  1.00  0.00     0.000 HD 
HETATM   29  C   UNL     1      -8.496   5.545  72.119  1.00  0.00    -0.126 C  
HETATM   30  O   UNL     1      -9.643   2.587  70.073  1.00  0.00    -0.103 OA 
HETATM   31  C   UNL     1      -8.799   4.096  71.789  1.00  0.00    -0.114 C  
HETATM   32  O   UNL     1      -8.107   5.566  73.502  1.00  0.00    -0.112 OA 
HETATM   33  H   UNL     1      -7.378   5.003  73.733  1.00  0.00     0.000 HD 
HETATM   34  H   UNL     1      -8.969   1.960  70.307  1.00  0.00     0.000 HD 
HETATM   35  O   UNL     1      -7.636   3.312  72.100  1.00  0.00    -0.054 OA 
HETATM   36  C   UNL     1      -9.192   3.933  70.320  1.00  0.00    -0.145 C  
BRANCH  27  37
HETATM   37  C   UNL     1      -9.177   7.888  72.046  1.00  0.00    -0.155 C  
BRANCH  37  38
HETATM   38  O   UNL     1     -10.141   8.926  72.162  1.00  0.00    -0.325 OA 
BRANCH  38  39
HETATM   39  C   UNL     1     -10.366   9.558  70.871  1.00  0.00    -0.302 C  
HETATM   40  C   UNL     1      -9.507  11.340  69.451  1.00  0.00     0.357 C  
HETATM   41  O   UNL     1      -9.396  10.590  70.665  1.00  0.00     0.790 OA 
HETATM   42  C   UNL     1     -10.922  11.907  69.232  1.00  0.00    -0.151 C  
HETATM   43  C   UNL     1      -8.971  10.548  68.263  1.00  0.00    -0.139 C  
HETATM   44  O   UNL     1     -11.196  12.915  70.220  1.00  0.00    -0.370 OA 
HETATM   45  C   UNL     1     -11.994  10.826  69.365  1.00  0.00    -0.281 C  
HETATM   46  O   UNL     1     -11.993   9.935  68.246  1.00  0.00    -0.255 OA 
HETATM   47  C   UNL     1     -11.825  10.080  70.695  1.00  0.00    -0.325 C  
HETATM   48  H   UNL     1     -12.069  13.264  70.085  1.00  0.00     0.000 HD 
HETATM   49  H   UNL     1     -12.660   9.262  68.329  1.00  0.00     0.000 HD 
HETATM   50  O   UNL     1     -12.768   9.002  70.793  1.00  0.00    -0.500 OA 
HETATM   51  H   UNL     1     -13.657   9.320  70.686  1.00  0.00     0.000 HD 
ENDBRANCH  38  39
ENDBRANCH  37  38
ENDBRANCH  27  37
ENDBRANCH  24  25
ENDBRANCH  19  24
ENDBRANCH   7  11
ENDBRANCH   2   3
TORSDOF 7
ENDMDL
MODEL      104
REMARK 921   NORMALIZED FREE ENERGY PREDICTED BY IDOCK:   -5.29 KCAL/MOL
REMARK 922        TOTAL FREE ENERGY PREDICTED BY IDOCK:   -9.39 KCAL/MOL
REMARK 923 INTER-LIGAND FREE ENERGY PREDICTED BY IDOCK:   -8.81 KCAL/MOL
REMARK 924 INTRA-LIGAND FREE ENERGY PREDICTED BY IDOCK:   -0.58 KCAL/MOL
REMARK 927      BINDING AFFINITY PREDICTED BY RF-SCORE:    0.00 PKD
ROOT
HETATM    1  C   UNL     1      -9.197   3.679  67.812  1.00  0.00    -0.184 C  
HETATM    2  O   UNL     1     -10.035   4.392  66.906  1.00  0.00    -0.213 OA 
ENDROOT
BRANCH   2   3
HETATM    3  C   UNL     1     -10.162   5.734  67.160  1.00  0.00    -0.207 A  
HETATM    4  C   UNL     1      -9.654   6.581  66.178  1.00  0.00     0.024 A  
HETATM    5  C   UNL     1      -9.698   7.966  66.320  1.00  0.00    -0.170 A  
HETATM    6  O   UNL     1      -9.075   6.065  65.050  1.00  0.00    -0.366 OA 
HETATM    7  C   UNL     1     -10.283   8.559  67.458  1.00  0.00    -0.307 A  
HETATM    8  H   UNL     1      -8.729   6.642  64.380  1.00  0.00     0.000 HD 
HETATM    9  C   UNL     1     -10.817   7.699  68.431  1.00  0.00    -0.011 A  
HETATM   10  C   UNL     1     -10.762   6.300  68.283  1.00  0.00    -0.356 A  
BRANCH   7  11
HETATM   11  C   UNL     1     -10.314  10.038  67.627  1.00  0.00    -0.224 C  
HETATM   12  C   UNL     1     -11.372  10.743  67.197  1.00  0.00    -0.110 C  
HETATM   13  C   UNL     1     -11.349  12.203  67.280  1.00  0.00    -0.334 C  
HETATM   14  O   UNL     1     -12.291  12.875  66.889  1.00  0.00    -0.384 OA 
HETATM   15  C   UNL     1     -10.147  12.823  67.833  1.00  0.00    -0.231 A  
HETATM   16  C   UNL     1     -10.013  14.208  67.875  1.00  0.00    -0.231 A  
HETATM   17  C   UNL     1      -8.891  14.796  68.448  1.00  0.00    -0.181 A  
HETATM   18  O   UNL     1     -10.961  15.066  67.390  1.00  0.00    -0.298 OA 
HETATM   19  C   UNL     1      -7.892  14.004  69.005  1.00  0.00     0.023 A  
HETATM   20  H   UNL     1     -10.870  16.012  67.418  1.00  0.00     0.000 HD 
HETATM   21  C   UNL     1      -8.017  12.597  68.938  1.00  0.00     0.176 A  
HETATM   22  C   UNL     1      -9.136  12.001  68.326  1.00  0.00    -0.190 A  
HETATM   23  O   UNL     1      -9.200  10.618  68.247  1.00  0.00    -0.143 OA 
BRANCH  19  24
HETATM   24  O   UNL     1      -6.827  14.488  69.717  1.00  0.00    -0.154 OA 
BRANCH  24  25
HETATM   25  C   UNL     1      -6.114  15.683  69.291  1.00  0.00    -0.122 C  
HETATM   26  O   UNL     1      -6.654  16.921  69.778  1.00  0.00    -0.201 OA 
HETATM   27  C   UNL     1      -5.962  18.104  69.366  1.00  0.00    -0.242 C  
HETATM   28  H   UNL     1      -4.783  16.213  65.501  1.00  0.00     0.000 HD 
HETATM   29  C   UNL     1      -5.864  18.158  67.827  1.00  0.00    -0.154 C  
HETATM   30  O   UNL     1      -5.167  14.476  67.368  1.00  0.00    -0.329 OA 
HETATM   31  C   UNL     1      -5.199  16.910  67.279  1.00  0.00    -0.142 C  
HETATM   32  O   UNL     1      -5.132  19.271  67.288  1.00  0.00    -0.157 OA 
HETATM   33  H   UNL     1      -5.072  19.303  66.341  1.00  0.00     0.000 HD 
HETATM   34  H   UNL     1      -5.046  14.453  66.426  1.00  0.00     0.000 HD 
HETATM   35  O   UNL     1      -5.201  16.994  65.845  1.00  0.00    -0.272 OA 
HETATM   36  C   UNL     1      -5.915  15.646  67.754  1.00  0.00    -0.151 C  
BRANCH  27  37
HETATM   37  C   UNL     1      -6.740  19.382  69.750  1.00  0.00    -0.179 C  
BRANCH  37  38
HETATM   38  O   UNL     1      -7.323  20.149  68.705  1.00  0.00    -0.239 OA 
BRANCH  38  39
HETATM   39  C   UNL     1      -8.335  19.371  68.007  1.00  0.00    -0.319 C  
HETATM   40  C   UNL     1      -8.971  18.649  65.770  1.00  0.00     0.466 C  
HETATM   41  O   UNL     1      -8.041  19.345  66.607  1.00  0.00    -0.267 OA 
HETATM   42  C   UNL     1     -10.424  19.112  65.986  1.00  0.00    -0.467 C  
HETATM   43  C   UNL     1      -8.784  17.139  65.875  1.00  0.00    -0.009 C  
HETATM   44  O   UNL     1     -10.573  20.464  65.522  1.00  0.00    -0.310 OA 
HETATM   45  C   UNL     1     -10.815  19.085  67.464  1.00  0.00    -0.391 C  
HETATM   46  O   UNL     1     -10.990  17.748  67.944  1.00  0.00    -0.308 OA 
HETATM   47  C   UNL     1      -9.787  19.865  68.293  1.00  0.00    -0.399 C  
HETATM   48  H   UNL     1     -11.470  20.750  65.655  1.00  0.00     0.000 HD 
HETATM   49  H   UNL     1     -11.233  17.731  68.862  1.00  0.00     0.000 HD 
HETATM   50  O   UNL     1     -10.092  19.771  69.693  1.00  0.00    -0.550 OA 
HETATM   51  H   UNL     1     -10.976  20.072  69.867  1.00  0.00     0.000 HD 
ENDBRANCH  38  39
ENDBRANCH  37  38
ENDBRANCH  27  37
ENDBRANCH  24  25
ENDBRANCH  19  24
ENDBRANCH   7  11
ENDBRANCH   2   3
TORSDOF 7
ENDMDL
MODEL      105
REMARK 921   NORMALIZED FREE ENERGY PREDICTED BY IDOCK:   -5.18 KCAL/MOL
REMARK 922        TOTAL FREE ENERGY PREDICTED BY IDOCK:   -9.22 KCAL/MOL
REMARK 923 INTER-LIGAND FREE ENERGY PREDICTED BY IDOCK:   -9.21 KCAL/MOL
REMARK 924 INTRA-LIGAND FREE ENERGY PREDICTED BY IDOCK:   -0.01 KCAL/MOL
REMARK 927      BINDING AFFINITY PREDICTED BY RF-SCORE:    0.00 PKD
ROOT
HETATM    1  C   UNL     1     -10.302   3.823  74.523  1.00  0.00    -0.213 C  
HETATM    2  O   UNL     1     -11.234   4.095  73.480  1.00  0.00    -0.266 OA 
ENDROOT
BRANCH   2   3
HETATM    3  C   UNL     1     -10.853   5.071  72.594  1.00  0.00    -0.226 A  
HETATM    4  C   UNL     1     -10.121   4.629  71.494  1.00  0.00    -0.185 A  
HETATM    5  C   UNL     1      -9.652   5.519  70.530  1.00  0.00    -0.225 A  
HETATM    6  O   UNL     1      -9.824   3.301  71.347  1.00  0.00    -0.171 OA 
HETATM    7  C   UNL     1      -9.926   6.899  70.624  1.00  0.00    -0.198 A  
HETATM    8  H   UNL     1      -9.326   2.999  70.597  1.00  0.00     0.000 HD 
HETATM    9  C   UNL     1     -10.686   7.332  71.722  1.00  0.00    -0.243 A  
HETATM   10  C   UNL     1     -11.151   6.428  72.696  1.00  0.00    -0.294 A  
BRANCH   7  11
HETATM   11  C   UNL     1      -9.409   7.858  69.610  1.00  0.00    -0.153 C  
HETATM   12  C   UNL     1      -8.221   7.644  69.025  1.00  0.00    -0.127 C  
HETATM   13  C   UNL     1      -7.679   8.642  68.101  1.00  0.00    -0.102 C  
HETATM   14  O   UNL     1      -6.597   8.482  67.559  1.00  0.00    -0.057 OA 
HETATM   15  C   UNL     1      -8.479   9.843  67.872  1.00  0.00    -0.121 A  
HETATM   16  C   UNL     1      -8.000  10.876  67.070  1.00  0.00    -0.132 A  
HETATM   17  C   UNL     1      -8.783  11.995  66.810  1.00  0.00    -0.192 A  
HETATM   18  O   UNL     1      -6.768  10.853  66.476  1.00  0.00    -0.115 OA 
HETATM   19  C   UNL     1     -10.068  12.089  67.338  1.00  0.00    -0.194 A  
HETATM   20  H   UNL     1      -6.441  11.557  65.929  1.00  0.00     0.000 HD 
HETATM   21  C   UNL     1     -10.542  11.051  68.173  1.00  0.00    -0.226 A  
HETATM   22  C   UNL     1      -9.736   9.935  68.464  1.00  0.00    -0.154 A  
HETATM   23  O   UNL     1     -10.225   8.960  69.320  1.00  0.00    -0.198 OA 
BRANCH  19  24
HETATM   24  O   UNL     1     -10.963  13.076  67.022  1.00  0.00    -0.258 OA 
BRANCH  24  25
HETATM   25  C   UNL     1     -11.399  14.045  68.015  1.00  0.00    -0.293 C  
HETATM   26  O   UNL     1     -10.564  15.207  68.140  1.00  0.00    -0.238 OA 
HETATM   27  C   UNL     1     -10.982  16.170  69.114  1.00  0.00    -0.309 C  
HETATM   28  H   UNL     1     -12.751  12.980  71.682  1.00  0.00     0.000 HD 
HETATM   29  C   UNL     1     -11.138  15.499  70.495  1.00  0.00    -0.345 C  
HETATM   30  O   UNL     1     -12.691  12.315  69.191  1.00  0.00     0.444 OA 
HETATM   31  C   UNL     1     -12.101  14.329  70.428  1.00  0.00    -0.339 C  
HETATM   32  O   UNL     1     -11.617  16.350  71.550  1.00  0.00    -0.564 OA 
HETATM   33  H   UNL     1     -11.713  15.937  72.399  1.00  0.00     0.000 HD 
HETATM   34  H   UNL     1     -12.860  11.871  70.014  1.00  0.00     0.000 HD 
HETATM   35  O   UNL     1     -12.148  13.713  71.724  1.00  0.00    -0.001 OA 
HETATM   36  C   UNL     1     -11.675  13.322  69.358  1.00  0.00    -0.325 C  
BRANCH  27  37
HETATM   37  C   UNL     1      -9.911  17.261  69.332  1.00  0.00     0.024 C  
BRANCH  37  38
HETATM   38  O   UNL     1      -8.576  16.977  68.934  1.00  0.00    -0.258 OA 
BRANCH  38  39
HETATM   39  C   UNL     1      -8.096  17.990  68.007  1.00  0.00    -0.257 C  
HETATM   40  C   UNL     1      -7.432  20.331  67.926  1.00  0.00    -0.256 C  
HETATM   41  O   UNL     1      -7.870  19.217  68.709  1.00  0.00    -0.339 OA 
HETATM   42  C   UNL     1      -8.336  20.591  66.705  1.00  0.00    -0.137 C  
HETATM   43  C   UNL     1      -5.951  20.214  67.580  1.00  0.00    -0.220 C  
HETATM   44  O   UNL     1      -9.627  21.039  67.149  1.00  0.00    -0.686 OA 
HETATM   45  C   UNL     1      -8.547  19.325  65.875  1.00  0.00     0.018 C  
HETATM   46  O   UNL     1      -7.371  18.967  65.142  1.00  0.00    -0.355 OA 
HETATM   47  C   UNL     1      -9.035  18.182  66.776  1.00  0.00    -0.282 C  
HETATM   48  H   UNL     1     -10.185  21.199  66.397  1.00  0.00     0.000 HD 
HETATM   49  H   UNL     1      -7.502  18.180  64.626  1.00  0.00     0.000 HD 
HETATM   50  O   UNL     1      -9.150  16.963  66.026  1.00  0.00    -0.448 OA 
HETATM   51  H   UNL     1      -9.721  17.080  65.277  1.00  0.00     0.000 HD 
ENDBRANCH  38  39
ENDBRANCH  37  38
ENDBRANCH  27  37
ENDBRANCH  24  25
ENDBRANCH  19  24
ENDBRANCH   7  11
ENDBRANCH   2   3
TORSDOF 7
ENDMDL
MODEL      106
REMARK 921   NORMALIZED FREE ENERGY PREDICTED BY IDOCK:   -5.17 KCAL/MOL
REMARK 922        TOTAL FREE ENERGY PREDICTED BY IDOCK:   -9.22 KCAL/MOL
REMARK 923 INTER-LIGAND FREE ENERGY PREDICTED BY IDOCK:   -7.84 KCAL/MOL
REMARK 924 INTRA-LIGAND FREE ENERGY PREDICTED BY IDOCK:   -1.38 KCAL/MOL
REMARK 927      BINDING AFFINITY PREDICTED BY RF-SCORE:    0.00 PKD
ROOT
HETATM    1  C   UNL     1      -6.969  21.113  67.423  1.00  0.00    -0.299 C  
HETATM    2  O   UNL     1      -6.276  19.931  67.814  1.00  0.00    -0.200 OA 
ENDROOT
BRANCH   2   3
HETATM    3  C   UNL     1      -7.053  18.806  67.921  1.00  0.00    -0.237 A  
HETATM    4  C   UNL     1      -6.452  17.620  67.504  1.00  0.00    -0.161 A  
HETATM    5  C   UNL     1      -7.138  16.408  67.539  1.00  0.00    -0.170 A  
HETATM    6  O   UNL     1      -5.169  17.624  67.026  1.00  0.00    -0.119 OA 
HETATM    7  C   UNL     1      -8.460  16.337  68.022  1.00  0.00    -0.174 A  
HETATM    8  H   UNL     1      -4.759  16.816  66.742  1.00  0.00     0.000 HD 
HETATM    9  C   UNL     1      -9.049  17.532  68.465  1.00  0.00    -0.277 A  
HETATM   10  C   UNL     1      -8.352  18.755  68.420  1.00  0.00    -0.373 A  
BRANCH   7  11
HETATM   11  C   UNL     1      -9.206  15.049  68.041  1.00  0.00    -0.183 C  
HETATM   12  C   UNL     1     -10.545  15.048  68.132  1.00  0.00    -0.248 C  
HETATM   13  C   UNL     1     -11.261  13.777  68.247  1.00  0.00    -0.273 C  
HETATM   14  O   UNL     1     -12.478  13.742  68.341  1.00  0.00    -0.102 OA 
HETATM   15  C   UNL     1     -10.457  12.557  68.265  1.00  0.00    -0.243 A  
HETATM   16  C   UNL     1     -11.054  11.313  68.451  1.00  0.00    -0.240 A  
HETATM   17  C   UNL     1     -10.295  10.149  68.416  1.00  0.00    -0.210 A  
HETATM   18  O   UNL     1     -12.397  11.150  68.651  1.00  0.00    -0.670 OA 
HETATM   19  C   UNL     1      -8.926  10.212  68.176  1.00  0.00    -0.122 A  
HETATM   20  H   UNL     1     -12.805  10.301  68.778  1.00  0.00     0.000 HD 
HETATM   21  C   UNL     1      -8.318  11.478  68.014  1.00  0.00    -0.146 A  
HETATM   22  C   UNL     1      -9.080  12.659  68.084  1.00  0.00    -0.204 A  
HETATM   23  O   UNL     1      -8.437  13.881  67.960  1.00  0.00    -0.153 OA 
BRANCH  19  24
HETATM   24  O   UNL     1      -8.124   9.120  67.980  1.00  0.00    -0.104 OA 
BRANCH  24  25
HETATM   25  C   UNL     1      -8.620   7.929  67.309  1.00  0.00    -0.128 C  
HETATM   26  O   UNL     1      -8.520   6.714  68.069  1.00  0.00    -0.116 OA 
HETATM   27  C   UNL     1      -9.005   5.534  67.420  1.00  0.00    -0.107 C  
HETATM   28  H   UNL     1      -7.857   7.123  63.412  1.00  0.00     0.000 HD 
HETATM   29  C   UNL     1      -8.303   5.347  66.059  1.00  0.00    -0.120 C  
HETATM   30  O   UNL     1      -8.333   9.001  65.113  1.00  0.00    -0.139 OA 
HETATM   31  C   UNL     1      -8.478   6.571  65.180  1.00  0.00    -0.047 C  
HETATM   32  O   UNL     1      -8.750   4.227  65.277  1.00  0.00    -0.118 OA 
HETATM   33  H   UNL     1      -8.318   4.111  64.439  1.00  0.00     0.000 HD 
HETATM   34  H   UNL     1      -7.952   8.945  64.246  1.00  0.00     0.000 HD 
HETATM   35  O   UNL     1      -7.748   6.356  63.962  1.00  0.00    -0.093 OA 
HETATM   36  C   UNL     1      -7.998   7.836  65.891  1.00  0.00    -0.107 C  
BRANCH  27  37
HETATM   37  C   UNL     1      -8.652   4.260  68.217  1.00  0.00    -0.095 C  
BRANCH  37  38
HETATM   38  O   UNL     1      -9.648   3.702  69.064  1.00  0.00    -0.171 OA 
BRANCH  38  39
HETATM   39  C   UNL     1      -9.668   4.389  70.346  1.00  0.00    -0.214 C  
HETATM   40  C   UNL     1     -10.793   6.206  71.513  1.00  0.00    -0.261 C  
HETATM   41  O   UNL     1     -10.673   5.407  70.331  1.00  0.00    -0.274 OA 
HETATM   42  C   UNL     1      -9.448   6.810  71.959  1.00  0.00    -0.141 C  
HETATM   43  C   UNL     1     -11.524   5.450  72.617  1.00  0.00    -0.305 C  
HETATM   44  O   UNL     1      -9.015   7.784  70.995  1.00  0.00    -0.140 OA 
HETATM   45  C   UNL     1      -8.356   5.747  72.066  1.00  0.00    -0.122 C  
HETATM   46  O   UNL     1      -8.546   4.901  73.203  1.00  0.00    -0.107 OA 
HETATM   47  C   UNL     1      -8.272   4.948  70.759  1.00  0.00    -0.094 C  
HETATM   48  H   UNL     1      -8.185   8.157  71.270  1.00  0.00     0.000 HD 
HETATM   49  H   UNL     1      -7.867   4.240  73.270  1.00  0.00     0.000 HD 
HETATM   50  O   UNL     1      -7.312   3.886  70.878  1.00  0.00    -0.037 OA 
HETATM   51  H   UNL     1      -6.461   4.227  71.129  1.00  0.00     0.000 HD 
ENDBRANCH  38  39
ENDBRANCH  37  38
ENDBRANCH  27  37
ENDBRANCH  24  25
ENDBRANCH  19  24
ENDBRANCH   7  11
ENDBRANCH   2   3
TORSDOF 7
ENDMDL
MODEL      107
REMARK 921   NORMALIZED FREE ENERGY PREDICTED BY IDOCK:   -5.17 KCAL/MOL
REMARK 922        TOTAL FREE ENERGY PREDICTED BY IDOCK:   -9.21 KCAL/MOL
REMARK 923 INTER-LIGAND FREE ENERGY PREDICTED BY IDOCK:   -9.27 KCAL/MOL
REMARK 924 INTRA-LIGAND FREE ENERGY PREDICTED BY IDOCK:    0.06 KCAL/MOL
REMARK 927      BINDING AFFINITY PREDICTED BY RF-SCORE:    0.00 PKD
ROOT
HETATM    1  C   UNL     1      -8.266   6.172  65.661  1.00  0.00    -0.141 C  
HETATM    2  O   UNL     1      -7.477   7.022  66.489  1.00  0.00    -0.078 OA 
ENDROOT
BRANCH   2   3
HETATM    3  C   UNL     1      -8.183   7.939  67.226  1.00  0.00    -0.122 A  
HETATM    4  C   UNL     1      -9.162   7.410  68.063  1.00  0.00    -0.132 A  
HETATM    5  C   UNL     1      -9.966   8.232  68.850  1.00  0.00    -0.193 A  
HETATM    6  O   UNL     1      -9.373   6.058  68.115  1.00  0.00    -0.116 OA 
HETATM    7  C   UNL     1      -9.797   9.631  68.842  1.00  0.00    -0.179 A  
HETATM    8  H   UNL     1     -10.040   5.697  68.686  1.00  0.00     0.000 HD 
HETATM    9  C   UNL     1      -8.790  10.155  68.015  1.00  0.00    -0.125 A  
HETATM   10  C   UNL     1      -7.986   9.318  67.218  1.00  0.00    -0.106 A  
BRANCH   7  11
HETATM   11  C   UNL     1     -10.667  10.517  69.663  1.00  0.00    -0.259 C  
HETATM   12  C   UNL     1     -11.438   9.996  70.629  1.00  0.00    -0.425 C  
HETATM   13  C   UNL     1     -12.361  10.862  71.364  1.00  0.00    -0.298 C  
HETATM   14  O   UNL     1     -13.083  10.417  72.244  1.00  0.00    -0.397 OA 
HETATM   15  C   UNL     1     -12.394  12.274  70.990  1.00  0.00    -0.320 A  
HETATM   16  C   UNL     1     -13.299  13.148  71.585  1.00  0.00    -0.308 A  
HETATM   17  C   UNL     1     -13.295  14.501  71.265  1.00  0.00    -0.430 A  
HETATM   18  O   UNL     1     -14.216  12.754  72.521  1.00  0.00    -0.553 OA 
HETATM   19  C   UNL     1     -12.371  15.003  70.354  1.00  0.00    -0.348 A  
HETATM   20  H   UNL     1     -14.833  13.351  72.928  1.00  0.00     0.000 HD 
HETATM   21  C   UNL     1     -11.470  14.108  69.731  1.00  0.00    -0.309 A  
HETATM   22  C   UNL     1     -11.497  12.733  70.028  1.00  0.00    -0.006 A  
HETATM   23  O   UNL     1     -10.624  11.886  69.364  1.00  0.00    -0.061 OA 
BRANCH  19  24
HETATM   24  O   UNL     1     -12.193  16.333  70.085  1.00  0.00    -0.029 OA 
BRANCH  24  25
HETATM   25  C   UNL     1     -11.290  16.778  69.036  1.00  0.00     0.031 C  
HETATM   26  O   UNL     1     -10.984  15.793  68.036  1.00  0.00    -0.307 OA 
HETATM   27  C   UNL     1     -10.095  16.218  66.998  1.00  0.00    -0.270 C  
HETATM   28  H   UNL     1      -7.976  18.988  69.781  1.00  0.00     0.000 HD 
HETATM   29  C   UNL     1      -8.783  16.757  67.605  1.00  0.00    -0.204 C  
HETATM   30  O   UNL     1     -10.418  18.559  70.492  1.00  0.00     0.641 OA 
HETATM   31  C   UNL     1      -9.056  17.878  68.590  1.00  0.00    -0.257 C  
HETATM   32  O   UNL     1      -7.828  17.276  66.665  1.00  0.00    -0.212 OA 
HETATM   33  H   UNL     1      -7.021  17.607  67.039  1.00  0.00     0.000 HD 
HETATM   34  H   UNL     1      -9.652  18.961  70.883  1.00  0.00     0.000 HD 
HETATM   35  O   UNL     1      -7.805  18.285  69.164  1.00  0.00    -0.163 OA 
HETATM   36  C   UNL     1     -10.038  17.434  69.675  1.00  0.00     0.165 C  
BRANCH  27  37
HETATM   37  C   UNL     1      -9.653  15.036  66.108  1.00  0.00    -0.314 C  
BRANCH  37  38
HETATM   38  O   UNL     1     -10.287  14.874  64.847  1.00  0.00    -0.400 OA 
BRANCH  38  39
HETATM   39  C   UNL     1     -10.924  13.569  64.761  1.00  0.00    -0.373 C  
HETATM   40  C   UNL     1     -10.417  11.193  64.915  1.00  0.00    -0.308 C  
HETATM   41  O   UNL     1      -9.955  12.544  65.004  1.00  0.00    -0.255 OA 
HETATM   42  C   UNL     1     -11.158  10.904  63.596  1.00  0.00     0.390 C  
HETATM   43  C   UNL     1     -11.202  10.796  66.161  1.00  0.00     0.203 C  
HETATM   44  O   UNL     1     -10.229  10.965  62.499  1.00  0.00    -0.704 OA 
HETATM   45  C   UNL     1     -12.258  11.930  63.327  1.00  0.00    -0.374 C  
HETATM   46  O   UNL     1     -13.381  11.745  64.194  1.00  0.00    -0.521 OA 
HETATM   47  C   UNL     1     -11.686  13.350  63.418  1.00  0.00    -0.160 C  
HETATM   48  H   UNL     1     -10.686  10.788  61.685  1.00  0.00     0.000 HD 
HETATM   49  H   UNL     1     -14.066  12.383  64.028  1.00  0.00     0.000 HD 
HETATM   50  O   UNL     1     -12.728  14.325  63.258  1.00  0.00    -0.940 OA 
HETATM   51  H   UNL     1     -13.192  14.192  62.440  1.00  0.00     0.000 HD 
ENDBRANCH  38  39
ENDBRANCH  37  38
ENDBRANCH  27  37
ENDBRANCH  24  25
ENDBRANCH  19  24
ENDBRANCH   7  11
ENDBRANCH   2   3
TORSDOF 7
ENDMDL
MODEL      108
REMARK 921   NORMALIZED FREE ENERGY PREDICTED BY IDOCK:   -5.02 KCAL/MOL
REMARK 922        TOTAL FREE ENERGY PREDICTED BY IDOCK:   -9.01 KCAL/MOL
REMARK 923 INTER-LIGAND FREE ENERGY PREDICTED BY IDOCK:   -7.48 KCAL/MOL
REMARK 924 INTRA-LIGAND FREE ENERGY PREDICTED BY IDOCK:   -1.53 KCAL/MOL
REMARK 927      BINDING AFFINITY PREDICTED BY RF-SCORE:    0.00 PKD
ROOT
HETATM    1  C   UNL     1     -12.484   4.293  73.020  1.00  0.00     0.849 C  
HETATM    2  O   UNL     1     -11.082   4.053  72.924  1.00  0.00    -0.116 OA 
ENDROOT
BRANCH   2   3
HETATM    3  C   UNL     1     -10.355   5.061  72.343  1.00  0.00    -0.206 A  
HETATM    4  C   UNL     1     -10.059   6.141  73.170  1.00  0.00    -0.188 A  
HETATM    5  C   UNL     1      -9.346   7.242  72.700  1.00  0.00    -0.176 A  
HETATM    6  O   UNL     1     -10.487   6.155  74.471  1.00  0.00    -0.325 OA 
HETATM    7  C   UNL     1      -8.877   7.287  71.372  1.00  0.00    -0.130 A  
HETATM    8  H   UNL     1     -10.286   6.892  75.036  1.00  0.00     0.000 HD 
HETATM    9  C   UNL     1      -9.156   6.182  70.552  1.00  0.00    -0.159 A  
HETATM   10  C   UNL     1      -9.883   5.076  71.032  1.00  0.00    -0.266 A  
BRANCH   7  11
HETATM   11  C   UNL     1      -8.133   8.469  70.856  1.00  0.00    -0.127 C  
HETATM   12  C   UNL     1      -6.925   8.774  71.354  1.00  0.00    -0.093 C  
HETATM   13  C   UNL     1      -6.247   9.992  70.909  1.00  0.00    -0.050 C  
HETATM   14  O   UNL     1      -5.150  10.303  71.349  1.00  0.00    -0.071 OA 
HETATM   15  C   UNL     1      -6.943  10.827  69.933  1.00  0.00    -0.127 A  
HETATM   16  C   UNL     1      -6.402  12.040  69.519  1.00  0.00    -0.123 A  
HETATM   17  C   UNL     1      -7.040  12.809  68.552  1.00  0.00    -0.101 A  
HETATM   18  O   UNL     1      -5.223  12.539  70.001  1.00  0.00    -0.081 OA 
HETATM   19  C   UNL     1      -8.225  12.364  67.972  1.00  0.00    -0.168 A  
HETATM   20  H   UNL     1      -4.854  13.367  69.718  1.00  0.00     0.000 HD 
HETATM   21  C   UNL     1      -8.786  11.144  68.414  1.00  0.00    -0.157 A  
HETATM   22  C   UNL     1      -8.158  10.383  69.418  1.00  0.00    -0.155 A  
HETATM   23  O   UNL     1      -8.764   9.213  69.850  1.00  0.00    -0.137 OA 
BRANCH  19  24
HETATM   24  O   UNL     1      -8.846  12.975  66.916  1.00  0.00    -0.214 OA 
BRANCH  24  25
HETATM   25  C   UNL     1      -9.846  12.277  66.122  1.00  0.00    -0.243 C  
HETATM   26  O   UNL     1      -9.363  11.717  64.891  1.00  0.00    -0.144 OA 
HETATM   27  C   UNL     1     -10.337  11.028  64.099  1.00  0.00    -0.369 C  
HETATM   28  H   UNL     1     -13.591  13.712  65.551  1.00  0.00     0.000 HD 
HETATM   29  C   UNL     1     -11.538  11.952  63.807  1.00  0.00    -0.462 C  
HETATM   30  O   UNL     1     -11.652  13.517  67.240  1.00  0.00    -0.323 OA 
HETATM   31  C   UNL     1     -12.146  12.481  65.092  1.00  0.00    -0.446 C  
HETATM   32  O   UNL     1     -12.618  11.355  63.070  1.00  0.00    -0.919 OA 
HETATM   33  H   UNL     1     -13.357  11.923  62.890  1.00  0.00     0.000 HD 
HETATM   34  H   UNL     1     -12.418  14.070  67.138  1.00  0.00     0.000 HD 
HETATM   35  O   UNL     1     -13.210  13.381  64.746  1.00  0.00    -0.590 OA 
HETATM   36  C   UNL     1     -11.095  13.180  65.955  1.00  0.00    -0.278 C  
BRANCH  27  37
HETATM   37  C   UNL     1      -9.781  10.662  62.706  1.00  0.00    -0.242 C  
BRANCH  37  38
HETATM   38  O   UNL     1      -9.280   9.347  62.510  1.00  0.00    -0.243 OA 
BRANCH  38  39
HETATM   39  C   UNL     1      -8.110   9.119  63.344  1.00  0.00    -0.162 C  
HETATM   40  C   UNL     1      -5.706   8.762  63.192  1.00  0.00    -0.073 C  
HETATM   41  O   UNL     1      -6.943   9.027  62.522  1.00  0.00    -0.094 OA 
HETATM   42  C   UNL     1      -5.786   7.535  64.120  1.00  0.00    -0.037 C  
HETATM   43  C   UNL     1      -5.170  10.015  63.876  1.00  0.00    -0.097 C  
HETATM   44  O   UNL     1      -5.948   6.344  63.331  1.00  0.00    -0.022 OA 
HETATM   45  C   UNL     1      -6.976   7.621  65.075  1.00  0.00    -0.058 C  
HETATM   46  O   UNL     1      -6.765   8.595  66.101  1.00  0.00    -0.066 OA 
HETATM   47  C   UNL     1      -8.265   7.885  64.286  1.00  0.00    -0.038 C  
HETATM   48  H   UNL     1      -5.997   5.587  63.903  1.00  0.00     0.000 HD 
HETATM   49  H   UNL     1      -7.505   8.649  66.695  1.00  0.00     0.000 HD 
HETATM   50  O   UNL     1      -9.376   8.059  65.177  1.00  0.00    -0.247 OA 
HETATM   51  H   UNL     1      -9.471   7.307  65.750  1.00  0.00     0.000 HD 
ENDBRANCH  38  39
ENDBRANCH  37  38
ENDBRANCH  27  37
ENDBRANCH  24  25
ENDBRANCH  19  24
ENDBRANCH   7  11
ENDBRANCH   2   3
TORSDOF 7
ENDMDL
MODEL      109
REMARK 921   NORMALIZED FREE ENERGY PREDICTED BY IDOCK:   -4.96 KCAL/MOL
REMARK 922        TOTAL FREE ENERGY PREDICTED BY IDOCK:   -8.93 KCAL/MOL
REMARK 923 INTER-LIGAND FREE ENERGY PREDICTED BY IDOCK:   -6.58 KCAL/MOL
REMARK 924 INTRA-LIGAND FREE ENERGY PREDICTED BY IDOCK:   -2.34 KCAL/MOL
REMARK 927      BINDING AFFINITY PREDICTED BY RF-SCORE:    0.00 PKD
ROOT
HETATM    1  C   UNL     1     -14.019   9.411  72.407  1.00  0.00    -0.282 C  
HETATM    2  O   UNL     1     -12.943   8.734  73.049  1.00  0.00    -0.286 OA 
ENDROOT
BRANCH   2   3
HETATM    3  C   UNL     1     -12.185   7.933  72.232  1.00  0.00    -0.287 A  
HETATM    4  C   UNL     1     -11.135   7.264  72.855  1.00  0.00    -0.325 A  
HETATM    5  C   UNL     1     -10.274   6.436  72.137  1.00  0.00    -0.207 A  
HETATM    6  O   UNL     1     -10.910   7.423  74.196  1.00  0.00    -0.505 OA 
HETATM    7  C   UNL     1     -10.455   6.230  70.754  1.00  0.00    -0.273 A  
HETATM    8  H   UNL     1     -10.194   6.967  74.621  1.00  0.00     0.000 HD 
HETATM    9  C   UNL     1     -11.531   6.887  70.139  1.00  0.00    -0.354 A  
HETATM   10  C   UNL     1     -12.393   7.728  70.870  1.00  0.00    -0.124 A  
BRANCH   7  11
HETATM   11  C   UNL     1      -9.526   5.365  69.977  1.00  0.00    -0.160 C  
HETATM   12  C   UNL     1      -8.911   4.331  70.572  1.00  0.00    -0.132 C  
HETATM   13  C   UNL     1      -7.927   3.547  69.824  1.00  0.00    -0.049 C  
HETATM   14  O   UNL     1      -7.343   2.606  70.340  1.00  0.00    -0.037 OA 
HETATM   15  C   UNL     1      -7.660   3.949  68.445  1.00  0.00    -0.062 A  
HETATM   16  C   UNL     1      -6.683   3.306  67.692  1.00  0.00    -0.042 A  
HETATM   17  C   UNL     1      -6.465   3.655  66.363  1.00  0.00    -0.037 A  
HETATM   18  O   UNL     1      -5.903   2.295  68.183  1.00  0.00    -0.022 OA 
HETATM   19  C   UNL     1      -7.238   4.645  65.763  1.00  0.00    -0.076 A  
HETATM   20  H   UNL     1      -5.236   1.855  67.668  1.00  0.00     0.000 HD 
HETATM   21  C   UNL     1      -8.213   5.315  66.539  1.00  0.00    -0.108 A  
HETATM   22  C   UNL     1      -8.409   4.986  67.893  1.00  0.00    -0.100 A  
HETATM   23  O   UNL     1      -9.347   5.696  68.627  1.00  0.00    -0.119 OA 
BRANCH  19  24
HETATM   24  O   UNL     1      -7.200   4.955  64.431  1.00  0.00    -0.053 OA 
BRANCH  24  25
HETATM   25  C   UNL     1      -6.857   6.294  63.977  1.00  0.00    -0.038 C  
HETATM   26  O   UNL     1      -6.109   7.083  64.916  1.00  0.00    -0.036 OA 
HETATM   27  C   UNL     1      -5.766   8.403  64.481  1.00  0.00    -0.059 C  
HETATM   28  H   UNL     1      -9.474   8.686  62.016  1.00  0.00     0.000 HD 
HETATM   29  C   UNL     1      -7.034   9.174  64.058  1.00  0.00    -0.089 C  
HETATM   30  O   UNL     1      -8.695   6.249  62.342  1.00  0.00    -0.337 OA 
HETATM   31  C   UNL     1      -7.798   8.421  62.985  1.00  0.00    -0.150 C  
HETATM   32  O   UNL     1      -6.816  10.496  63.539  1.00  0.00    -0.317 OA 
HETATM   33  H   UNL     1      -7.597  10.970  63.279  1.00  0.00     0.000 HD 
HETATM   34  H   UNL     1      -9.473   6.680  62.011  1.00  0.00     0.000 HD 
HETATM   35  O   UNL     1      -8.995   9.157  62.688  1.00  0.00    -0.212 OA 
HETATM   36  C   UNL     1      -8.128   6.998  63.436  1.00  0.00     0.000 C  
BRANCH  27  37
HETATM   37  C   UNL     1      -5.168   9.243  65.630  1.00  0.00    -0.039 C  
BRANCH  37  38
HETATM   38  O   UNL     1      -5.804  10.469  65.965  1.00  0.00    -0.081 OA 
BRANCH  38  39
HETATM   39  C   UNL     1      -6.667  10.295  67.122  1.00  0.00    -0.078 C  
HETATM   40  C   UNL     1      -7.539   8.567  68.600  1.00  0.00    -0.098 C  
HETATM   41  O   UNL     1      -6.697   8.914  67.497  1.00  0.00    -0.064 OA 
HETATM   42  C   UNL     1      -8.978   9.092  68.436  1.00  0.00    -0.133 C  
HETATM   43  C   UNL     1      -6.893   8.951  69.928  1.00  0.00    -0.046 C  
HETATM   44  O   UNL     1      -9.622   8.399  67.353  1.00  0.00    -0.145 OA 
HETATM   45  C   UNL     1      -9.005  10.585  68.111  1.00  0.00    -0.138 C  
HETATM   46  O   UNL     1      -8.663  11.383  69.247  1.00  0.00    -0.374 OA 
HETATM   47  C   UNL     1      -8.099  10.876  66.907  1.00  0.00    -0.137 C  
HETATM   48  H   UNL     1     -10.510   8.722  67.251  1.00  0.00     0.000 HD 
HETATM   49  H   UNL     1      -8.680  12.312  69.045  1.00  0.00     0.000 HD 
HETATM   50  O   UNL     1      -8.043  12.287  66.647  1.00  0.00    -0.372 OA 
HETATM   51  H   UNL     1      -8.915  12.641  66.517  1.00  0.00     0.000 HD 
ENDBRANCH  38  39
ENDBRANCH  37  38
ENDBRANCH  27  37
ENDBRANCH  24  25
ENDBRANCH  19  24
ENDBRANCH   7  11
ENDBRANCH   2   3
TORSDOF 7
ENDMDL
MODEL      110
REMARK 921   NORMALIZED FREE ENERGY PREDICTED BY IDOCK:   -4.95 KCAL/MOL
REMARK 922        TOTAL FREE ENERGY PREDICTED BY IDOCK:   -8.91 KCAL/MOL
REMARK 923 INTER-LIGAND FREE ENERGY PREDICTED BY IDOCK:   -7.28 KCAL/MOL
REMARK 924 INTRA-LIGAND FREE ENERGY PREDICTED BY IDOCK:   -1.63 KCAL/MOL
REMARK 927      BINDING AFFINITY PREDICTED BY RF-SCORE:    0.00 PKD
ROOT
HETATM    1  C   UNL     1     -13.254  11.859  63.008  1.00  0.00     0.739 C  
HETATM    2  O   UNL     1     -12.838  13.170  63.379  1.00  0.00    -0.607 OA 
ENDROOT
BRANCH   2   3
HETATM    3  C   UNL     1     -11.834  13.223  64.312  1.00  0.00    -0.417 A  
HETATM    4  C   UNL     1     -12.209  13.686  65.570  1.00  0.00    -0.443 A  
HETATM    5  C   UNL     1     -11.283  13.811  66.604  1.00  0.00    -0.327 A  
HETATM    6  O   UNL     1     -13.505  14.054  65.816  1.00  0.00    -0.669 OA 
HETATM    7  C   UNL     1      -9.934  13.448  66.414  1.00  0.00    -0.293 A  
HETATM    8  H   UNL     1     -13.761  14.370  66.674  1.00  0.00     0.000 HD 
HETATM    9  C   UNL     1      -9.570  12.956  65.151  1.00  0.00     0.147 A  
HETATM   10  C   UNL     1     -10.511  12.840  64.110  1.00  0.00    -0.437 A  
BRANCH   7  11
HETATM   11  C   UNL     1      -8.934  13.599  67.507  1.00  0.00    -0.209 C  
HETATM   12  C   UNL     1      -8.653  14.816  67.998  1.00  0.00    -0.166 C  
HETATM   13  C   UNL     1      -7.600  14.964  69.003  1.00  0.00    -0.151 C  
HETATM   14  O   UNL     1      -7.313  16.058  69.464  1.00  0.00    -0.221 OA 
HETATM   15  C   UNL     1      -6.895  13.752  69.416  1.00  0.00    -0.044 A  
HETATM   16  C   UNL     1      -5.828  13.817  70.308  1.00  0.00    -0.152 A  
HETATM   17  C   UNL     1      -5.192  12.659  70.740  1.00  0.00    -0.152 A  
HETATM   18  O   UNL     1      -5.358  14.992  70.828  1.00  0.00    -0.127 OA 
HETATM   19  C   UNL     1      -5.627  11.413  70.297  1.00  0.00    -0.130 A  
HETATM   20  H   UNL     1      -4.630  15.036  71.437  1.00  0.00     0.000 HD 
HETATM   21  C   UNL     1      -6.694  11.352  69.371  1.00  0.00    -0.122 A  
HETATM   22  C   UNL     1      -7.315  12.526  68.906  1.00  0.00    -0.022 A  
HETATM   23  O   UNL     1      -8.330  12.422  67.968  1.00  0.00    -0.152 OA 
BRANCH  19  24
HETATM   24  O   UNL     1      -5.163  10.217  70.774  1.00  0.00    -0.051 OA 
BRANCH  24  25
HETATM   25  C   UNL     1      -5.786   8.960  70.393  1.00  0.00    -0.030 C  
HETATM   26  O   UNL     1      -5.850   8.714  68.979  1.00  0.00    -0.038 OA 
HETATM   27  C   UNL     1      -6.461   7.479  68.591  1.00  0.00    -0.044 C  
HETATM   28  H   UNL     1      -9.167   7.565  72.137  1.00  0.00     0.000 HD 
HETATM   29  C   UNL     1      -7.877   7.371  69.194  1.00  0.00    -0.116 C  
HETATM   30  O   UNL     1      -6.970   8.851  72.547  1.00  0.00    -0.312 OA 
HETATM   31  C   UNL     1      -7.840   7.517  70.704  1.00  0.00    -0.095 C  
HETATM   32  O   UNL     1      -8.575   6.143  68.929  1.00  0.00    -0.120 OA 
HETATM   33  H   UNL     1      -9.446   6.076  69.300  1.00  0.00     0.000 HD 
HETATM   34  H   UNL     1      -7.805   8.764  72.991  1.00  0.00     0.000 HD 
HETATM   35  O   UNL     1      -9.190   7.474  71.191  1.00  0.00    -0.147 OA 
HETATM   36  C   UNL     1      -7.150   8.817  71.118  1.00  0.00    -0.089 C  
BRANCH  27  37
HETATM   37  C   UNL     1      -6.684   7.411  67.064  1.00  0.00    -0.069 C  
BRANCH  37  38
HETATM   38  O   UNL     1      -8.001   7.617  66.571  1.00  0.00    -0.102 OA 
BRANCH  38  39
HETATM   39  C   UNL     1      -7.964   7.981  65.163  1.00  0.00    -0.127 C  
HETATM   40  C   UNL     1      -6.411   8.235  63.304  1.00  0.00    -0.081 C  
HETATM   41  O   UNL     1      -6.625   7.870  64.671  1.00  0.00    -0.051 OA 
HETATM   42  C   UNL     1      -6.973   9.629  62.968  1.00  0.00    -0.105 C  
HETATM   43  C   UNL     1      -6.887   7.136  62.360  1.00  0.00    -0.064 C  
HETATM   44  O   UNL     1      -6.211  10.635  63.658  1.00  0.00    -0.347 OA 
HETATM   45  C   UNL     1      -8.431   9.774  63.404  1.00  0.00    -0.186 C  
HETATM   46  O   UNL     1      -9.315   9.028  62.562  1.00  0.00    -0.544 OA 
HETATM   47  C   UNL     1      -8.578   9.387  64.881  1.00  0.00    -0.176 C  
HETATM   48  H   UNL     1      -6.558  11.495  63.451  1.00  0.00     0.000 HD 
HETATM   49  H   UNL     1     -10.221   9.118  62.833  1.00  0.00     0.000 HD 
HETATM   50  O   UNL     1      -9.957   9.431  65.280  1.00  0.00    -0.434 OA 
HETATM   51  H   UNL     1     -10.331  10.287  65.109  1.00  0.00     0.000 HD 
ENDBRANCH  38  39
ENDBRANCH  37  38
ENDBRANCH  27  37
ENDBRANCH  24  25
ENDBRANCH  19  24
ENDBRANCH   7  11
ENDBRANCH   2   3
TORSDOF 7
ENDMDL
MODEL      111
REMARK 921   NORMALIZED FREE ENERGY PREDICTED BY IDOCK:   -4.95 KCAL/MOL
REMARK 922        TOTAL FREE ENERGY PREDICTED BY IDOCK:   -8.91 KCAL/MOL
REMARK 923 INTER-LIGAND FREE ENERGY PREDICTED BY IDOCK:   -8.72 KCAL/MOL
REMARK 924 INTRA-LIGAND FREE ENERGY PREDICTED BY IDOCK:   -0.19 KCAL/MOL
REMARK 927      BINDING AFFINITY PREDICTED BY RF-SCORE:    0.00 PKD
ROOT
HETATM    1  C   UNL     1     -10.456  19.907  69.843  1.00  0.00     0.661 C  
HETATM    2  O   UNL     1     -10.137  20.099  68.468  1.00  0.00    -0.390 OA 
ENDROOT
BRANCH   2   3
HETATM    3  C   UNL     1     -10.305  18.997  67.669  1.00  0.00    -0.423 A  
HETATM    4  C   UNL     1     -10.570  17.806  68.340  1.00  0.00    -0.291 A  
HETATM    5  C   UNL     1     -10.740  16.607  67.650  1.00  0.00    -0.306 A  
HETATM    6  O   UNL     1     -10.649  17.782  69.706  1.00  0.00    -0.227 OA 
HETATM    7  C   UNL     1     -10.672  16.566  66.243  1.00  0.00    -0.146 A  
HETATM    8  H   UNL     1     -10.830  16.970  70.164  1.00  0.00     0.000 HD 
HETATM    9  C   UNL     1     -10.430  17.775  65.573  1.00  0.00    -0.023 A  
HETATM   10  C   UNL     1     -10.253  18.982  66.277  1.00  0.00    -0.510 A  
BRANCH   7  11
HETATM   11  C   UNL     1     -10.829  15.285  65.500  1.00  0.00    -0.372 C  
HETATM   12  C   UNL     1     -11.787  15.160  64.569  1.00  0.00    -0.335 C  
HETATM   13  C   UNL     1     -11.996  13.867  63.915  1.00  0.00    -0.334 C  
HETATM   14  O   UNL     1     -12.865  13.718  63.070  1.00  0.00    -0.471 OA 
HETATM   15  C   UNL     1     -11.134  12.762  64.329  1.00  0.00    -0.410 A  
HETATM   16  C   UNL     1     -11.319  11.483  63.814  1.00  0.00    -0.329 A  
HETATM   17  C   UNL     1     -10.467  10.443  64.169  1.00  0.00     0.197 A  
HETATM   18  O   UNL     1     -12.312  11.169  62.926  1.00  0.00    -0.661 OA 
HETATM   19  C   UNL     1      -9.403  10.675  65.036  1.00  0.00    -0.217 A  
HETATM   20  H   UNL     1     -12.438  10.296  62.574  1.00  0.00     0.000 HD 
HETATM   21  C   UNL     1      -9.232  11.970  65.578  1.00  0.00     0.044 A  
HETATM   22  C   UNL     1     -10.116  13.014  65.246  1.00  0.00    -0.231 A  
HETATM   23  O   UNL     1      -9.937  14.257  65.833  1.00  0.00    -0.299 OA 
BRANCH  19  24
HETATM   24  O   UNL     1      -8.430   9.758  65.329  1.00  0.00    -0.132 OA 
BRANCH  24  25
HETATM   25  C   UNL     1      -8.620   8.761  66.371  1.00  0.00    -0.128 C  
HETATM   26  O   UNL     1      -8.185   9.159  67.681  1.00  0.00    -0.108 OA 
HETATM   27  C   UNL     1      -8.366   8.186  68.716  1.00  0.00    -0.126 C  
HETATM   28  H   UNL     1      -7.792   4.832  65.830  1.00  0.00     0.000 HD 
HETATM   29  C   UNL     1      -7.680   6.859  68.328  1.00  0.00    -0.113 C  
HETATM   30  O   UNL     1      -8.687   6.965  64.691  1.00  0.00    -0.349 OA 
HETATM   31  C   UNL     1      -8.194   6.348  66.995  1.00  0.00    -0.113 C  
HETATM   32  O   UNL     1      -7.844   5.778  69.260  1.00  0.00    -0.087 OA 
HETATM   33  H   UNL     1      -7.422   4.962  69.022  1.00  0.00     0.000 HD 
HETATM   34  H   UNL     1      -8.331   6.134  64.403  1.00  0.00     0.000 HD 
HETATM   35  O   UNL     1      -7.470   5.153  66.665  1.00  0.00    -0.085 OA 
HETATM   36  C   UNL     1      -8.037   7.403  65.900  1.00  0.00    -0.128 C  
BRANCH  27  37
HETATM   37  C   UNL     1      -7.670   8.614  70.026  1.00  0.00    -0.080 C  
BRANCH  37  38
HETATM   38  O   UNL     1      -8.455   9.254  71.023  1.00  0.00    -0.248 OA 
BRANCH  38  39
HETATM   39  C   UNL     1      -9.812   9.466  70.543  1.00  0.00    -0.270 C  
HETATM   40  C   UNL     1     -11.196  11.135  69.436  1.00  0.00    -0.270 C  
HETATM   41  O   UNL     1      -9.908  10.754  69.927  1.00  0.00     0.064 OA 
HETATM   42  C   UNL     1     -12.304  10.983  70.496  1.00  0.00    -0.373 C  
HETATM   43  C   UNL     1     -11.511  10.439  68.115  1.00  0.00    -0.194 C  
HETATM   44  O   UNL     1     -12.099  11.944  71.546  1.00  0.00    -0.011 OA 
HETATM   45  C   UNL     1     -12.294   9.594  71.133  1.00  0.00    -0.339 C  
HETATM   46  O   UNL     1     -12.782   8.593  70.234  1.00  0.00     0.014 OA 
HETATM   47  C   UNL     1     -10.889   9.265  71.653  1.00  0.00    -0.348 C  
HETATM   48  H   UNL     1     -12.782  11.851  72.200  1.00  0.00     0.000 HD 
HETATM   49  H   UNL     1     -12.777   7.729  70.629  1.00  0.00     0.000 HD 
HETATM   50  O   UNL     1     -10.843   7.927  72.172  1.00  0.00    -0.234 OA 
HETATM   51  H   UNL     1     -11.499   7.804  72.848  1.00  0.00     0.000 HD 
ENDBRANCH  38  39
ENDBRANCH  37  38
ENDBRANCH  27  37
ENDBRANCH  24  25
ENDBRANCH  19  24
ENDBRANCH   7  11
ENDBRANCH   2   3
TORSDOF 7
ENDMDL
MODEL      112
REMARK 921   NORMALIZED FREE ENERGY PREDICTED BY IDOCK:   -4.94 KCAL/MOL
REMARK 922        TOTAL FREE ENERGY PREDICTED BY IDOCK:   -8.90 KCAL/MOL
REMARK 923 INTER-LIGAND FREE ENERGY PREDICTED BY IDOCK:   -8.45 KCAL/MOL
REMARK 924 INTRA-LIGAND FREE ENERGY PREDICTED BY IDOCK:   -0.45 KCAL/MOL
REMARK 927      BINDING AFFINITY PREDICTED BY RF-SCORE:    0.00 PKD
ROOT
HETATM    1  C   UNL     1     -10.380  20.184  65.935  1.00  0.00    -0.340 C  
HETATM    2  O   UNL     1     -10.951  19.286  66.883  1.00  0.00    -0.427 OA 
ENDROOT
BRANCH   2   3
HETATM    3  C   UNL     1     -10.742  17.955  66.626  1.00  0.00    -0.130 A  
HETATM    4  C   UNL     1     -10.407  17.176  67.731  1.00  0.00    -0.347 A  
HETATM    5  C   UNL     1     -10.147  15.813  67.608  1.00  0.00    -0.247 A  
HETATM    6  O   UNL     1     -10.304  17.744  68.973  1.00  0.00    -0.359 OA 
HETATM    7  C   UNL     1     -10.238  15.170  66.356  1.00  0.00    -0.291 A  
HETATM    8  H   UNL     1     -10.075  17.214  69.727  1.00  0.00     0.000 HD 
HETATM    9  C   UNL     1     -10.602  15.956  65.252  1.00  0.00    -0.441 A  
HETATM   10  C   UNL     1     -10.857  17.334  65.384  1.00  0.00    -0.024 A  
BRANCH   7  11
HETATM   11  C   UNL     1      -9.940  13.718  66.213  1.00  0.00    -0.305 C  
HETATM   12  C   UNL     1     -10.311  13.061  65.103  1.00  0.00    -0.321 C  
HETATM   13  C   UNL     1     -10.099  11.616  65.013  1.00  0.00    -0.263 C  
HETATM   14  O   UNL     1     -10.434  10.987  64.021  1.00  0.00    -0.353 OA 
HETATM   15  C   UNL     1      -9.489  10.957  66.166  1.00  0.00    -0.230 A  
HETATM   16  C   UNL     1      -9.326   9.575  66.193  1.00  0.00    -0.198 A  
HETATM   17  C   UNL     1      -8.699   8.955  67.268  1.00  0.00    -0.125 A  
HETATM   18  O   UNL     1      -9.737   8.753  65.180  1.00  0.00    -0.348 OA 
HETATM   19  C   UNL     1      -8.209   9.714  68.327  1.00  0.00    -0.106 A  
HETATM   20  H   UNL     1      -9.625   7.810  65.198  1.00  0.00     0.000 HD 
HETATM   21  C   UNL     1      -8.400  11.115  68.310  1.00  0.00    -0.143 A  
HETATM   22  C   UNL     1      -9.066  11.739  67.238  1.00  0.00    -0.171 A  
HETATM   23  O   UNL     1      -9.267  13.110  67.281  1.00  0.00    -0.204 OA 
BRANCH  19  24
HETATM   24  O   UNL     1      -7.454   9.214  69.353  1.00  0.00    -0.073 OA 
BRANCH  24  25
HETATM   25  C   UNL     1      -7.915   8.090  70.152  1.00  0.00    -0.105 C  
HETATM   26  O   UNL     1      -8.915   7.268  69.529  1.00  0.00    -0.143 OA 
HETATM   27  C   UNL     1      -9.377   6.158  70.306  1.00  0.00    -0.160 C  
HETATM   28  H   UNL     1      -8.722   8.393  74.111  1.00  0.00     0.000 HD 
HETATM   29  C   UNL     1      -9.893   6.643  71.677  1.00  0.00    -0.166 C  
HETATM   30  O   UNL     1      -7.174   9.206  72.215  1.00  0.00    -0.323 OA 
HETATM   31  C   UNL     1      -8.825   7.427  72.416  1.00  0.00    -0.124 C  
HETATM   32  O   UNL     1     -10.329   5.613  72.579  1.00  0.00    -0.189 OA 
HETATM   33  H   UNL     1     -10.646   5.911  73.422  1.00  0.00     0.000 HD 
HETATM   34  H   UNL     1      -7.412   9.511  73.083  1.00  0.00     0.000 HD 
HETATM   35  O   UNL     1      -9.391   7.903  73.648  1.00  0.00    -0.278 OA 
HETATM   36  C   UNL     1      -8.303   8.587  71.569  1.00  0.00    -0.162 C  
BRANCH  27  37
HETATM   37  C   UNL     1     -10.598   5.475  69.652  1.00  0.00    -0.305 C  
BRANCH  37  38
HETATM   38  O   UNL     1     -10.714   5.525  68.237  1.00  0.00    -0.179 OA 
BRANCH  38  39
HETATM   39  C   UNL     1      -9.784   4.594  67.617  1.00  0.00    -0.161 C  
HETATM   40  C   UNL     1      -8.744   2.423  67.980  1.00  0.00    -0.105 C  
HETATM   41  O   UNL     1      -9.659   3.425  68.433  1.00  0.00    -0.166 OA 
HETATM   42  C   UNL     1      -7.346   2.992  67.671  1.00  0.00    -0.054 C  
HETATM   43  C   UNL     1      -9.340   1.607  66.838  1.00  0.00     0.054 C  
HETATM   44  O   UNL     1      -6.722   3.423  68.893  1.00  0.00    -0.042 OA 
HETATM   45  C   UNL     1      -7.418   4.200  66.738  1.00  0.00    -0.080 C  
HETATM   46  O   UNL     1      -7.745   3.819  65.398  1.00  0.00    -0.081 OA 
HETATM   47  C   UNL     1      -8.400   5.238  67.298  1.00  0.00    -0.107 C  
HETATM   48  H   UNL     1      -5.859   3.775  68.703  1.00  0.00     0.000 HD 
HETATM   49  H   UNL     1      -7.790   4.570  64.818  1.00  0.00     0.000 HD 
HETATM   50  O   UNL     1      -8.547   6.337  66.386  1.00  0.00    -0.123 OA 
HETATM   51  H   UNL     1      -7.704   6.730  66.191  1.00  0.00     0.000 HD 
ENDBRANCH  38  39
ENDBRANCH  37  38
ENDBRANCH  27  37
ENDBRANCH  24  25
ENDBRANCH  19  24
ENDBRANCH   7  11
ENDBRANCH   2   3
TORSDOF 7
ENDMDL
MODEL      113
REMARK 921   NORMALIZED FREE ENERGY PREDICTED BY IDOCK:   -4.89 KCAL/MOL
REMARK 922        TOTAL FREE ENERGY PREDICTED BY IDOCK:   -8.82 KCAL/MOL
REMARK 923 INTER-LIGAND FREE ENERGY PREDICTED BY IDOCK:   -8.32 KCAL/MOL
REMARK 924 INTRA-LIGAND FREE ENERGY PREDICTED BY IDOCK:   -0.50 KCAL/MOL
REMARK 927      BINDING AFFINITY PREDICTED BY RF-SCORE:    0.00 PKD
ROOT
HETATM    1  C   UNL     1      -9.774  20.143  69.878  1.00  0.00     0.553 C  
HETATM    2  O   UNL     1      -9.926  20.170  68.461  1.00  0.00    -0.351 OA 
ENDROOT
BRANCH   2   3
HETATM    3  C   UNL     1     -10.078  18.944  67.866  1.00  0.00    -0.371 A  
HETATM    4  C   UNL     1     -10.238  18.965  66.483  1.00  0.00    -0.414 A  
HETATM    5  C   UNL     1     -10.425  17.791  65.755  1.00  0.00    -0.199 A  
HETATM    6  O   UNL     1     -10.237  20.154  65.802  1.00  0.00    -0.482 OA 
HETATM    7  C   UNL     1     -10.434  16.536  66.397  1.00  0.00    -0.275 A  
HETATM    8  H   UNL     1     -10.346  20.168  64.859  1.00  0.00     0.000 HD 
HETATM    9  C   UNL     1     -10.246  16.522  67.788  1.00  0.00    -0.278 A  
HETATM   10  C   UNL     1     -10.064  17.713  68.517  1.00  0.00    -0.375 A  
BRANCH   7  11
HETATM   11  C   UNL     1     -10.655  15.280  65.630  1.00  0.00    -0.362 C  
HETATM   12  C   UNL     1     -11.660  15.200  64.744  1.00  0.00    -0.364 C  
HETATM   13  C   UNL     1     -11.927  13.930  64.067  1.00  0.00    -0.387 C  
HETATM   14  O   UNL     1     -12.840  13.821  63.262  1.00  0.00    -0.571 OA 
HETATM   15  C   UNL     1     -11.071  12.797  64.409  1.00  0.00    -0.386 A  
HETATM   16  C   UNL     1     -11.308  11.536  63.870  1.00  0.00    -0.312 A  
HETATM   17  C   UNL     1     -10.462  10.470  64.155  1.00  0.00    -0.013 A  
HETATM   18  O   UNL     1     -12.349  11.267  63.023  1.00  0.00    -0.856 OA 
HETATM   19  C   UNL     1      -9.352  10.656  64.973  1.00  0.00    -0.217 A  
HETATM   20  H   UNL     1     -12.511  10.407  62.655  1.00  0.00     0.000 HD 
HETATM   21  C   UNL     1      -9.127  11.932  65.541  1.00  0.00     0.073 A  
HETATM   22  C   UNL     1     -10.004  13.002  65.281  1.00  0.00    -0.170 A  
HETATM   23  O   UNL     1      -9.770  14.225  65.890  1.00  0.00    -0.303 OA 
BRANCH  19  24
HETATM   24  O   UNL     1      -8.386   9.712  65.194  1.00  0.00    -0.124 OA 
BRANCH  24  25
HETATM   25  C   UNL     1      -8.723   8.305  65.335  1.00  0.00    -0.113 C  
HETATM   26  O   UNL     1      -9.448   7.969  66.529  1.00  0.00    -0.190 OA 
HETATM   27  C   UNL     1      -9.786   6.586  66.680  1.00  0.00    -0.148 C  
HETATM   28  H   UNL     1      -6.116   5.324  64.481  1.00  0.00     0.000 HD 
HETATM   29  C   UNL     1      -8.518   5.712  66.588  1.00  0.00    -0.113 C  
HETATM   30  O   UNL     1      -6.912   7.678  63.793  1.00  0.00    -0.056 OA 
HETATM   31  C   UNL     1      -7.778   5.960  65.287  1.00  0.00    -0.095 C  
HETATM   32  O   UNL     1      -8.732   4.293  66.662  1.00  0.00    -0.111 OA 
HETATM   33  H   UNL     1      -7.951   3.756  66.605  1.00  0.00     0.000 HD 
HETATM   34  H   UNL     1      -6.135   7.151  63.653  1.00  0.00     0.000 HD 
HETATM   35  O   UNL     1      -6.579   5.169  65.296  1.00  0.00    -0.038 OA 
HETATM   36  C   UNL     1      -7.454   7.443  65.107  1.00  0.00    -0.086 C  
BRANCH  27  37
HETATM   37  C   UNL     1     -10.358   6.291  68.084  1.00  0.00    -0.195 C  
BRANCH  37  38
HETATM   38  O   UNL     1      -9.512   5.652  69.031  1.00  0.00    -0.120 OA 
BRANCH  38  39
HETATM   39  C   UNL     1      -8.440   6.547  69.439  1.00  0.00    -0.127 C  
HETATM   40  C   UNL     1      -6.403   6.589  70.772  1.00  0.00    -0.044 C  
HETATM   41  O   UNL     1      -7.503   5.835  70.253  1.00  0.00    -0.077 OA 
HETATM   42  C   UNL     1      -6.853   7.871  71.498  1.00  0.00    -0.052 C  
HETATM   43  C   UNL     1      -5.345   6.828  69.701  1.00  0.00    -0.014 C  
HETATM   44  O   UNL     1      -7.556   7.520  72.702  1.00  0.00    -0.077 OA 
HETATM   45  C   UNL     1      -7.797   8.709  70.638  1.00  0.00    -0.099 C  
HETATM   46  O   UNL     1      -7.107   9.356  69.565  1.00  0.00    -0.056 OA 
HETATM   47  C   UNL     1      -8.959   7.842  70.136  1.00  0.00    -0.146 C  
HETATM   48  H   UNL     1      -7.834   8.311  73.150  1.00  0.00     0.000 HD 
HETATM   49  H   UNL     1      -7.694   9.877  69.030  1.00  0.00     0.000 HD 
HETATM   50  O   UNL     1      -9.805   8.593  69.253  1.00  0.00    -0.180 OA 
HETATM   51  H   UNL     1     -10.122   9.382  69.678  1.00  0.00     0.000 HD 
ENDBRANCH  38  39
ENDBRANCH  37  38
ENDBRANCH  27  37
ENDBRANCH  24  25
ENDBRANCH  19  24
ENDBRANCH   7  11
ENDBRANCH   2   3
TORSDOF 7
ENDMDL
MODEL      114
REMARK 921   NORMALIZED FREE ENERGY PREDICTED BY IDOCK:   -4.83 KCAL/MOL
REMARK 922        TOTAL FREE ENERGY PREDICTED BY IDOCK:   -8.74 KCAL/MOL
REMARK 923 INTER-LIGAND FREE ENERGY PREDICTED BY IDOCK:   -8.18 KCAL/MOL
REMARK 924 INTRA-LIGAND FREE ENERGY PREDICTED BY IDOCK:   -0.56 KCAL/MOL
REMARK 927      BINDING AFFINITY PREDICTED BY RF-SCORE:    0.00 PKD
ROOT
HETATM    1  C   UNL     1     -10.179  20.582  69.198  1.00  0.00     0.322 C  
HETATM    2  O   UNL     1      -9.468  20.304  67.995  1.00  0.00    -0.305 OA 
ENDROOT
BRANCH   2   3
HETATM    3  C   UNL     1      -9.411  18.980  67.642  1.00  0.00    -0.306 A  
HETATM    4  C   UNL     1     -10.134  18.631  66.504  1.00  0.00    -0.394 A  
HETATM    5  C   UNL     1     -10.180  17.315  66.048  1.00  0.00    -0.314 A  
HETATM    6  O   UNL     1     -10.840  19.579  65.814  1.00  0.00    -0.453 OA 
HETATM    7  C   UNL     1      -9.473  16.293  66.714  1.00  0.00    -0.253 A  
HETATM    8  H   UNL     1     -11.333  19.342  65.037  1.00  0.00     0.000 HD 
HETATM    9  C   UNL     1      -8.726  16.657  67.845  1.00  0.00    -0.193 A  
HETATM   10  C   UNL     1      -8.690  17.988  68.304  1.00  0.00    -0.289 A  
BRANCH   7  11
HETATM   11  C   UNL     1      -9.536  14.881  66.246  1.00  0.00    -0.309 C  
HETATM   12  C   UNL     1     -10.162  14.580  65.098  1.00  0.00    -0.420 C  
HETATM   13  C   UNL     1     -10.301  13.179  64.697  1.00  0.00    -0.361 C  
HETATM   14  O   UNL     1     -10.873  12.871  63.662  1.00  0.00    -0.379 OA 
HETATM   15  C   UNL     1      -9.745  12.169  65.593  1.00  0.00    -0.223 A  
HETATM   16  C   UNL     1      -9.905  10.812  65.325  1.00  0.00    -0.272 A  
HETATM   17  C   UNL     1      -9.331   9.852  66.151  1.00  0.00    -0.232 A  
HETATM   18  O   UNL     1     -10.598  10.339  64.244  1.00  0.00    -0.296 OA 
HETATM   19  C   UNL     1      -8.573  10.238  67.252  1.00  0.00    -0.125 A  
HETATM   20  H   UNL     1     -10.706   9.414  64.061  1.00  0.00     0.000 HD 
HETATM   21  C   UNL     1      -8.434  11.616  67.538  1.00  0.00    -0.150 A  
HETATM   22  C   UNL     1      -9.044  12.587  66.722  1.00  0.00    -0.214 A  
HETATM   23  O   UNL     1      -8.916  13.925  67.062  1.00  0.00    -0.227 OA 
BRANCH  19  24
HETATM   24  O   UNL     1      -7.852   9.377  68.035  1.00  0.00    -0.091 OA 
BRANCH  24  25
HETATM   25  C   UNL     1      -7.714   7.972  67.684  1.00  0.00    -0.110 C  
HETATM   26  O   UNL     1      -8.935   7.215  67.711  1.00  0.00    -0.123 OA 
HETATM   27  C   UNL     1      -8.813   5.830  67.368  1.00  0.00    -0.106 C  
HETATM   28  H   UNL     1      -4.683   5.655  69.046  1.00  0.00     0.000 HD 
HETATM   29  C   UNL     1      -7.765   5.146  68.271  1.00  0.00    -0.083 C  
HETATM   30  O   UNL     1      -5.323   8.025  68.259  1.00  0.00    -0.030 OA 
HETATM   31  C   UNL     1      -6.427   5.855  68.188  1.00  0.00    -0.046 C  
HETATM   32  O   UNL     1      -7.503   3.763  67.984  1.00  0.00    -0.061 OA 
HETATM   33  H   UNL     1      -6.859   3.342  68.540  1.00  0.00     0.000 HD 
HETATM   34  H   UNL     1      -4.620   7.640  68.768  1.00  0.00     0.000 HD 
HETATM   35  O   UNL     1      -5.522   5.211  69.099  1.00  0.00    -0.007 OA 
HETATM   36  C   UNL     1      -6.566   7.342  68.514  1.00  0.00    -0.049 C  
BRANCH  27  37
HETATM   37  C   UNL     1     -10.123   5.059  67.641  1.00  0.00    -0.140 C  
BRANCH  37  38
HETATM   38  O   UNL     1     -10.224   4.319  68.850  1.00  0.00     0.055 OA 
BRANCH  38  39
HETATM   39  C   UNL     1     -10.128   5.207  69.999  1.00  0.00    -0.275 C  
HETATM   40  C   UNL     1      -9.349   5.254  72.305  1.00  0.00    -0.142 C  
HETATM   41  O   UNL     1      -9.484   4.526  71.081  1.00  0.00    -0.139 OA 
HETATM   42  C   UNL     1     -10.684   5.852  72.790  1.00  0.00    -0.239 C  
HETATM   43  C   UNL     1      -8.215   6.269  72.221  1.00  0.00    -0.108 C  
HETATM   44  O   UNL     1     -11.573   4.792  73.180  1.00  0.00    -0.305 OA 
HETATM   45  C   UNL     1     -11.377   6.657  71.691  1.00  0.00    -0.276 C  
HETATM   46  O   UNL     1     -10.715   7.900  71.443  1.00  0.00    -0.221 OA 
HETATM   47  C   UNL     1     -11.505   5.807  70.420  1.00  0.00     0.151 C  
HETATM   48  H   UNL     1     -12.396   5.161  73.479  1.00  0.00     0.000 HD 
HETATM   49  H   UNL     1     -11.146   8.400  70.760  1.00  0.00     0.000 HD 
HETATM   50  O   UNL     1     -12.072   6.580  69.351  1.00  0.00    -0.445 OA 
HETATM   51  H   UNL     1     -12.911   6.946  69.608  1.00  0.00     0.000 HD 
ENDBRANCH  38  39
ENDBRANCH  37  38
ENDBRANCH  27  37
ENDBRANCH  24  25
ENDBRANCH  19  24
ENDBRANCH   7  11
ENDBRANCH   2   3
TORSDOF 7
ENDMDL
MODEL      115
REMARK 921   NORMALIZED FREE ENERGY PREDICTED BY IDOCK:   -4.74 KCAL/MOL
REMARK 922        TOTAL FREE ENERGY PREDICTED BY IDOCK:   -8.62 KCAL/MOL
REMARK 923 INTER-LIGAND FREE ENERGY PREDICTED BY IDOCK:   -7.37 KCAL/MOL
REMARK 924 INTRA-LIGAND FREE ENERGY PREDICTED BY IDOCK:   -1.24 KCAL/MOL
REMARK 927      BINDING AFFINITY PREDICTED BY RF-SCORE:    0.00 PKD
ROOT
HETATM    1  C   UNL     1     -13.597   9.495  72.410  1.00  0.00    -0.382 C  
HETATM    2  O   UNL     1     -13.388   8.116  72.704  1.00  0.00    -0.038 OA 
ENDROOT
BRANCH   2   3
HETATM    3  C   UNL     1     -12.469   7.481  71.909  1.00  0.00    -0.303 A  
HETATM    4  C   UNL     1     -11.298   7.082  72.547  1.00  0.00    -0.263 A  
HETATM    5  C   UNL     1     -10.271   6.446  71.851  1.00  0.00    -0.219 A  
HETATM    6  O   UNL     1     -11.117   7.328  73.882  1.00  0.00    -0.497 OA 
HETATM    7  C   UNL     1     -10.397   6.163  70.476  1.00  0.00    -0.270 A  
HETATM    8  H   UNL     1     -10.318   7.056  74.318  1.00  0.00     0.000 HD 
HETATM    9  C   UNL     1     -11.592   6.545  69.845  1.00  0.00    -0.433 A  
HETATM   10  C   UNL     1     -12.621   7.193  70.554  1.00  0.00     0.024 A  
BRANCH   7  11
HETATM   11  C   UNL     1      -9.296   5.505  69.720  1.00  0.00    -0.142 C  
HETATM   12  C   UNL     1      -8.802   4.329  70.139  1.00  0.00    -0.130 C  
HETATM   13  C   UNL     1      -7.656   3.739  69.446  1.00  0.00    -0.052 C  
HETATM   14  O   UNL     1      -7.177   2.675  69.807  1.00  0.00    -0.043 OA 
HETATM   15  C   UNL     1      -7.101   4.484  68.318  1.00  0.00    -0.057 A  
HETATM   16  C   UNL     1      -5.964   4.031  67.656  1.00  0.00    -0.027 A  
HETATM   17  C   UNL     1      -5.466   4.712  66.551  1.00  0.00    -0.013 A  
HETATM   18  O   UNL     1      -5.286   2.899  68.019  1.00  0.00    -0.012 OA 
HETATM   19  C   UNL     1      -6.112   5.852  66.081  1.00  0.00    -0.032 A  
HETATM   20  H   UNL     1      -4.510   2.590  67.567  1.00  0.00     0.000 HD 
HETATM   21  C   UNL     1      -7.252   6.325  66.772  1.00  0.00    -0.074 A  
HETATM   22  C   UNL     1      -7.735   5.655  67.912  1.00  0.00    -0.093 A  
HETATM   23  O   UNL     1      -8.831   6.176  68.582  1.00  0.00    -0.115 OA 
BRANCH  19  24
HETATM   24  O   UNL     1      -5.787   6.504  64.923  1.00  0.00    -0.028 OA 
BRANCH  24  25
HETATM   25  C   UNL     1      -6.224   7.869  64.676  1.00  0.00    -0.048 C  
HETATM   26  O   UNL     1      -6.502   8.643  65.854  1.00  0.00    -0.056 OA 
HETATM   27  C   UNL     1      -6.934   9.989  65.624  1.00  0.00    -0.115 C  
HETATM   28  H   UNL     1      -8.899   8.833  61.790  1.00  0.00     0.000 HD 
HETATM   29  C   UNL     1      -8.167  10.004  64.697  1.00  0.00    -0.163 C  
HETATM   30  O   UNL     1      -6.944   7.267  62.402  1.00  0.00    -0.066 OA 
HETATM   31  C   UNL     1      -7.877   9.288  63.391  1.00  0.00    -0.131 C  
HETATM   32  O   UNL     1      -8.660  11.305  64.337  1.00  0.00    -0.366 OA 
HETATM   33  H   UNL     1      -9.418  11.314  63.767  1.00  0.00     0.000 HD 
HETATM   34  H   UNL     1      -7.651   7.263  61.768  1.00  0.00     0.000 HD 
HETATM   35  O   UNL     1      -9.081   9.281  62.608  1.00  0.00    -0.222 OA 
HETATM   36  C   UNL     1      -7.378   7.864  63.640  1.00  0.00    -0.103 C  
BRANCH  27  37
HETATM   37  C   UNL     1      -7.420  10.660  66.927  1.00  0.00    -0.115 C  
BRANCH  37  38
HETATM   38  O   UNL     1      -7.450  12.080  66.978  1.00  0.00    -0.148 OA 
BRANCH  38  39
HETATM   39  C   UNL     1      -8.774  12.548  67.357  1.00  0.00    -0.189 C  
HETATM   40  C   UNL     1     -11.084  11.794  67.514  1.00  0.00    -0.272 C  
HETATM   41  O   UNL     1      -9.719  11.482  67.217  1.00  0.00    -0.181 OA 
HETATM   42  C   UNL     1     -11.587  13.037  66.756  1.00  0.00    -0.368 C  
HETATM   43  C   UNL     1     -11.320  11.854  69.019  1.00  0.00    -0.337 C  
HETATM   44  O   UNL     1     -11.656  12.748  65.349  1.00  0.00    -0.326 OA 
HETATM   45  C   UNL     1     -10.649  14.230  66.937  1.00  0.00    -0.273 C  
HETATM   46  O   UNL     1     -10.742  14.785  68.253  1.00  0.00    -0.235 OA 
HETATM   47  C   UNL     1      -9.212  13.828  66.581  1.00  0.00    -0.223 C  
HETATM   48  H   UNL     1     -11.966  13.515  64.882  1.00  0.00     0.000 HD 
HETATM   49  H   UNL     1     -10.160  15.527  68.366  1.00  0.00     0.000 HD 
HETATM   50  O   UNL     1      -8.307  14.913  66.834  1.00  0.00    -0.237 OA 
HETATM   51  H   UNL     1      -8.574  15.693  66.362  1.00  0.00     0.000 HD 
ENDBRANCH  38  39
ENDBRANCH  37  38
ENDBRANCH  27  37
ENDBRANCH  24  25
ENDBRANCH  19  24
ENDBRANCH   7  11
ENDBRANCH   2   3
TORSDOF 7
ENDMDL
MODEL      116
REMARK 921   NORMALIZED FREE ENERGY PREDICTED BY IDOCK:   -4.71 KCAL/MOL
REMARK 922        TOTAL FREE ENERGY PREDICTED BY IDOCK:   -8.57 KCAL/MOL
REMARK 923 INTER-LIGAND FREE ENERGY PREDICTED BY IDOCK:   -7.65 KCAL/MOL
REMARK 924 INTRA-LIGAND FREE ENERGY PREDICTED BY IDOCK:   -0.93 KCAL/MOL
REMARK 927      BINDING AFFINITY PREDICTED BY RF-SCORE:    0.00 PKD
ROOT
HETATM    1  C   UNL     1      -7.050  20.501  65.533  1.00  0.00    -0.122 C  
HETATM    2  O   UNL     1      -8.313  19.958  65.161  1.00  0.00     0.040 OA 
ENDROOT
BRANCH   2   3
HETATM    3  C   UNL     1      -8.848  19.059  66.048  1.00  0.00    -0.043 A  
HETATM    4  C   UNL     1     -10.236  18.950  66.028  1.00  0.00    -0.387 A  
HETATM    5  C   UNL     1     -10.910  18.091  66.894  1.00  0.00    -0.089 A  
HETATM    6  O   UNL     1     -10.978  19.709  65.163  1.00  0.00    -0.373 OA 
HETATM    7  C   UNL     1     -10.202  17.282  67.806  1.00  0.00    -0.332 A  
HETATM    8  H   UNL     1     -11.925  19.635  65.149  1.00  0.00     0.000 HD 
HETATM    9  C   UNL     1      -8.802  17.378  67.802  1.00  0.00    -0.232 A  
HETATM   10  C   UNL     1      -8.129  18.254  66.929  1.00  0.00    -0.259 A  
BRANCH   7  11
HETATM   11  C   UNL     1     -10.916  16.378  68.749  1.00  0.00    -0.344 C  
HETATM   12  C   UNL     1     -11.411  16.861  69.900  1.00  0.00     0.660 C  
HETATM   13  C   UNL     1     -12.025  15.946  70.863  1.00  0.00    -0.394 C  
HETATM   14  O   UNL     1     -12.478  16.352  71.922  1.00  0.00    -0.290 OA 
HETATM   15  C   UNL     1     -12.057  14.528  70.511  1.00  0.00    -0.395 A  
HETATM   16  C   UNL     1     -12.552  13.583  71.405  1.00  0.00    -0.308 A  
HETATM   17  C   UNL     1     -12.630  12.241  71.050  1.00  0.00    -0.352 A  
HETATM   18  O   UNL     1     -13.008  13.902  72.655  1.00  0.00    -0.399 OA 
HETATM   19  C   UNL     1     -12.227  11.827  69.783  1.00  0.00    -0.203 A  
HETATM   20  H   UNL     1     -13.346  13.256  73.265  1.00  0.00     0.000 HD 
HETATM   21  C   UNL     1     -11.701  12.785  68.886  1.00  0.00    -0.370 A  
HETATM   22  C   UNL     1     -11.589  14.138  69.259  1.00  0.00    -0.304 A  
HETATM   23  O   UNL     1     -11.030  15.036  68.363  1.00  0.00    -0.246 OA 
BRANCH  19  24
HETATM   24  O   UNL     1     -12.400  10.562  69.292  1.00  0.00    -0.234 OA 
BRANCH  24  25
HETATM   25  C   UNL     1     -11.534   9.467  69.701  1.00  0.00     0.051 C  
HETATM   26  O   UNL     1     -10.896   8.760  68.626  1.00  0.00    -0.115 OA 
HETATM   27  C   UNL     1     -10.041   7.680  69.015  1.00  0.00    -0.198 C  
HETATM   28  H   UNL     1     -12.544   6.835  72.610  1.00  0.00     0.000 HD 
HETATM   29  C   UNL     1     -10.812   6.680  69.902  1.00  0.00    -0.278 C  
HETATM   30  O   UNL     1     -12.708   9.295  71.856  1.00  0.00    -0.340 OA 
HETATM   31  C   UNL     1     -11.412   7.371  71.111  1.00  0.00    -0.279 C  
HETATM   32  O   UNL     1     -10.044   5.578  70.412  1.00  0.00    -0.196 OA 
HETATM   33  H   UNL     1     -10.518   4.963  70.957  1.00  0.00     0.000 HD 
HETATM   34  H   UNL     1     -13.173   8.733  72.464  1.00  0.00     0.000 HD 
HETATM   35  O   UNL     1     -12.168   6.401  71.852  1.00  0.00    -0.346 OA 
HETATM   36  C   UNL     1     -12.293   8.550  70.694  1.00  0.00     0.178 C  
BRANCH  27  37
HETATM   37  C   UNL     1      -9.585   6.847  67.797  1.00  0.00    -0.122 C  
BRANCH  37  38
HETATM   38  O   UNL     1      -8.201   6.835  67.475  1.00  0.00    -0.120 OA 
BRANCH  38  39
HETATM   39  C   UNL     1      -7.906   7.835  66.461  1.00  0.00    -0.101 C  
HETATM   40  C   UNL     1      -8.522   8.486  64.197  1.00  0.00    -0.037 C  
HETATM   41  O   UNL     1      -8.722   7.606  65.307  1.00  0.00    -0.077 OA 
HETATM   42  C   UNL     1      -7.043   8.584  63.776  1.00  0.00    -0.092 C  
HETATM   43  C   UNL     1      -9.183   9.839  64.440  1.00  0.00    -0.301 C  
HETATM   44  O   UNL     1      -6.614   7.326  63.228  1.00  0.00    -0.051 OA 
HETATM   45  C   UNL     1      -6.135   8.905  64.962  1.00  0.00    -0.060 C  
HETATM   46  O   UNL     1      -6.280  10.263  65.391  1.00  0.00    -0.106 OA 
HETATM   47  C   UNL     1      -6.390   7.911  66.103  1.00  0.00    -0.046 C  
HETATM   48  H   UNL     1      -5.702   7.386  62.969  1.00  0.00     0.000 HD 
HETATM   49  H   UNL     1      -5.715  10.463  66.129  1.00  0.00     0.000 HD 
HETATM   50  O   UNL     1      -5.610   8.256  67.257  1.00  0.00    -0.036 OA 
HETATM   51  H   UNL     1      -4.686   8.302  67.039  1.00  0.00     0.000 HD 
ENDBRANCH  38  39
ENDBRANCH  37  38
ENDBRANCH  27  37
ENDBRANCH  24  25
ENDBRANCH  19  24
ENDBRANCH   7  11
ENDBRANCH   2   3
TORSDOF 7
ENDMDL
MODEL      117
REMARK 921   NORMALIZED FREE ENERGY PREDICTED BY IDOCK:   -4.69 KCAL/MOL
REMARK 922        TOTAL FREE ENERGY PREDICTED BY IDOCK:   -8.55 KCAL/MOL
REMARK 923 INTER-LIGAND FREE ENERGY PREDICTED BY IDOCK:   -8.10 KCAL/MOL
REMARK 924 INTRA-LIGAND FREE ENERGY PREDICTED BY IDOCK:   -0.45 KCAL/MOL
REMARK 927      BINDING AFFINITY PREDICTED BY RF-SCORE:    0.00 PKD
ROOT
HETATM    1  C   UNL     1      -9.419   3.844  68.427  1.00  0.00    -0.147 C  
HETATM    2  O   UNL     1      -9.254   4.338  67.101  1.00  0.00    -0.128 OA 
ENDROOT
BRANCH   2   3
HETATM    3  C   UNL     1      -9.534   5.670  66.933  1.00  0.00    -0.135 A  
HETATM    4  C   UNL     1      -8.651   6.370  66.115  1.00  0.00    -0.144 A  
HETATM    5  C   UNL     1      -8.806   7.734  65.878  1.00  0.00    -0.176 A  
HETATM    6  O   UNL     1      -7.587   5.731  65.536  1.00  0.00    -0.079 OA 
HETATM    7  C   UNL     1      -9.883   8.449  66.443  1.00  0.00    -0.310 A  
HETATM    8  H   UNL     1      -6.985   6.208  64.978  1.00  0.00     0.000 HD 
HETATM    9  C   UNL     1     -10.783   7.730  67.246  1.00  0.00    -0.326 A  
HETATM   10  C   UNL     1     -10.615   6.353  67.485  1.00  0.00    -0.350 A  
BRANCH   7  11
HETATM   11  C   UNL     1     -10.043   9.911  66.213  1.00  0.00    -0.241 C  
HETATM   12  C   UNL     1     -11.058  10.367  65.465  1.00  0.00     0.576 C  
HETATM   13  C   UNL     1     -11.150  11.797  65.165  1.00  0.00    -0.282 C  
HETATM   14  O   UNL     1     -12.057  12.243  64.480  1.00  0.00    -0.392 OA 
HETATM   15  C   UNL     1     -10.103  12.661  65.705  1.00  0.00    -0.285 A  
HETATM   16  C   UNL     1     -10.074  14.019  65.401  1.00  0.00    -0.319 A  
HETATM   17  C   UNL     1      -9.107  14.851  65.957  1.00  0.00    -0.109 A  
HETATM   18  O   UNL     1     -10.984  14.622  64.577  1.00  0.00    -0.578 OA 
HETATM   19  C   UNL     1      -8.164  14.335  66.840  1.00  0.00     0.011 A  
HETATM   20  H   UNL     1     -10.964  15.549  64.370  1.00  0.00     0.000 HD 
HETATM   21  C   UNL     1      -8.180  12.950  67.127  1.00  0.00    -0.142 A  
HETATM   22  C   UNL     1      -9.136  12.103  66.537  1.00  0.00    -0.199 A  
HETATM   23  O   UNL     1      -9.090  10.745  66.814  1.00  0.00    -0.151 OA 
BRANCH  19  24
HETATM   24  O   UNL     1      -7.270  15.094  67.547  1.00  0.00    -0.169 OA 
BRANCH  24  25
HETATM   25  C   UNL     1      -7.422  16.536  67.654  1.00  0.00    -0.144 C  
HETATM   26  O   UNL     1      -8.734  16.985  68.029  1.00  0.00    -0.209 OA 
HETATM   27  C   UNL     1      -8.898  18.403  68.138  1.00  0.00    -0.302 C  
HETATM   28  H   UNL     1      -5.859  19.118  64.951  1.00  0.00     0.000 HD 
HETATM   29  C   UNL     1      -8.477  19.092  66.823  1.00  0.00    -0.298 C  
HETATM   30  O   UNL     1      -5.479  16.887  66.187  1.00  0.00    -0.308 OA 
HETATM   31  C   UNL     1      -7.053  18.728  66.447  1.00  0.00    -0.233 C  
HETATM   32  O   UNL     1      -8.535  20.528  66.826  1.00  0.00    -0.511 OA 
HETATM   33  H   UNL     1      -8.276  20.951  66.017  1.00  0.00     0.000 HD 
HETATM   34  H   UNL     1      -5.141  17.301  65.402  1.00  0.00     0.000 HD 
HETATM   35  O   UNL     1      -6.751  19.346  65.186  1.00  0.00    -0.373 OA 
HETATM   36  C   UNL     1      -6.870  17.212  66.372  1.00  0.00    -0.249 C  
BRANCH  27  37
HETATM   37  C   UNL     1     -10.380  18.792  68.322  1.00  0.00    -0.338 C  
BRANCH  37  38
HETATM   38  O   UNL     1     -11.372  17.917  67.802  1.00  0.00     0.093 OA 
BRANCH  38  39
HETATM   39  C   UNL     1     -11.634  16.832  68.736  1.00  0.00     0.238 C  
HETATM   40  C   UNL     1     -10.881  15.941  70.873  1.00  0.00    -0.063 C  
HETATM   41  O   UNL     1     -10.776  16.960  69.874  1.00  0.00    -0.257 OA 
HETATM   42  C   UNL     1     -10.758  14.522  70.288  1.00  0.00     0.216 C  
HETATM   43  C   UNL     1     -12.121  16.144  71.738  1.00  0.00    -0.517 C  
HETATM   44  O   UNL     1      -9.420  14.315  69.804  1.00  0.00    -0.085 OA 
HETATM   45  C   UNL     1     -11.713  14.307  69.114  1.00  0.00    -0.320 C  
HETATM   46  O   UNL     1     -13.072  14.194  69.546  1.00  0.00    -0.142 OA 
HETATM   47  C   UNL     1     -11.528  15.423  68.077  1.00  0.00    -0.326 C  
HETATM   48  H   UNL     1      -9.344  13.439  69.443  1.00  0.00     0.000 HD 
HETATM   49  H   UNL     1     -13.665  14.061  68.816  1.00  0.00     0.000 HD 
HETATM   50  O   UNL     1     -12.481  15.285  67.012  1.00  0.00     0.109 OA 
HETATM   51  H   UNL     1     -12.417  14.426  66.610  1.00  0.00     0.000 HD 
ENDBRANCH  38  39
ENDBRANCH  37  38
ENDBRANCH  27  37
ENDBRANCH  24  25
ENDBRANCH  19  24
ENDBRANCH   7  11
ENDBRANCH   2   3
TORSDOF 7
ENDMDL
MODEL      118
REMARK 921   NORMALIZED FREE ENERGY PREDICTED BY IDOCK:   -4.43 KCAL/MOL
REMARK 922        TOTAL FREE ENERGY PREDICTED BY IDOCK:   -8.17 KCAL/MOL
REMARK 923 INTER-LIGAND FREE ENERGY PREDICTED BY IDOCK:   -6.92 KCAL/MOL
REMARK 924 INTRA-LIGAND FREE ENERGY PREDICTED BY IDOCK:   -1.25 KCAL/MOL
REMARK 927      BINDING AFFINITY PREDICTED BY RF-SCORE:    0.00 PKD
ROOT
HETATM    1  C   UNL     1      -9.349   1.937  72.573  1.00  0.00    -0.077 C  
HETATM    2  O   UNL     1      -8.179   2.543  72.032  1.00  0.00    -0.056 OA 
ENDROOT
BRANCH   2   3
HETATM    3  C   UNL     1      -8.407   3.569  71.150  1.00  0.00    -0.067 A  
HETATM    4  C   UNL     1      -7.301   4.363  70.856  1.00  0.00    -0.048 A  
HETATM    5  C   UNL     1      -7.399   5.453  69.993  1.00  0.00    -0.068 A  
HETATM    6  O   UNL     1      -6.087   4.101  71.432  1.00  0.00    -0.013 OA 
HETATM    7  C   UNL     1      -8.621   5.774  69.368  1.00  0.00    -0.111 A  
HETATM    8  H   UNL     1      -5.333   4.642  71.232  1.00  0.00     0.000 HD 
HETATM    9  C   UNL     1      -9.724   4.953  69.649  1.00  0.00    -0.266 A  
HETATM   10  C   UNL     1      -9.619   3.857  70.527  1.00  0.00    -0.263 A  
BRANCH   7  11
HETATM   11  C   UNL     1      -8.738   6.949  68.462  1.00  0.00    -0.125 C  
HETATM   12  C   UNL     1      -8.818   6.771  67.135  1.00  0.00    -0.119 C  
HETATM   13  C   UNL     1      -8.835   7.936  66.249  1.00  0.00    -0.159 C  
HETATM   14  O   UNL     1      -8.899   7.808  65.036  1.00  0.00     0.047 OA 
HETATM   15  C   UNL     1      -8.754   9.254  66.875  1.00  0.00    -0.136 A  
HETATM   16  C   UNL     1      -8.685  10.408  66.101  1.00  0.00    -0.152 A  
HETATM   17  C   UNL     1      -8.661  11.663  66.697  1.00  0.00    -0.179 A  
HETATM   18  O   UNL     1      -8.663  10.391  64.733  1.00  0.00    -0.173 OA 
HETATM   19  C   UNL     1      -8.722  11.782  68.083  1.00  0.00    -0.168 A  
HETATM   20  H   UNL     1      -8.616  11.179  64.204  1.00  0.00     0.000 HD 
HETATM   21  C   UNL     1      -8.765  10.607  68.868  1.00  0.00    -0.163 A  
HETATM   22  C   UNL     1      -8.755   9.335  68.265  1.00  0.00    -0.129 A  
HETATM   23  O   UNL     1      -8.757   8.209  69.075  1.00  0.00    -0.141 OA 
BRANCH  19  24
HETATM   24  O   UNL     1      -8.849  12.969  68.752  1.00  0.00     0.000 OA 
BRANCH  24  25
HETATM   25  C   UNL     1      -9.894  13.921  68.410  1.00  0.00    -0.229 C  
HETATM   26  O   UNL     1      -9.438  15.122  67.767  1.00  0.00    -0.193 OA 
HETATM   27  C   UNL     1     -10.457  16.067  67.425  1.00  0.00    -0.308 C  
HETATM   28  H   UNL     1     -12.943  14.833  70.918  1.00  0.00     0.000 HD 
HETATM   29  C   UNL     1     -11.284  16.437  68.675  1.00  0.00    -0.332 C  
HETATM   30  O   UNL     1     -11.389  12.944  70.102  1.00  0.00    -0.502 OA 
HETATM   31  C   UNL     1     -11.875  15.200  69.324  1.00  0.00    -0.320 C  
HETATM   32  O   UNL     1     -12.384  17.335  68.451  1.00  0.00     1.237 OA 
HETATM   33  H   UNL     1     -12.892  17.562  69.219  1.00  0.00     0.000 HD 
HETATM   34  H   UNL     1     -11.937  13.098  70.862  1.00  0.00     0.000 HD 
HETATM   35  O   UNL     1     -12.572  15.607  70.512  1.00  0.00    -0.432 OA 
HETATM   36  C   UNL     1     -10.790  14.174  69.651  1.00  0.00    -0.019 C  
BRANCH  27  37
HETATM   37  C   UNL     1      -9.854  17.407  66.950  1.00  0.00    -0.289 C  
BRANCH  37  38
HETATM   38  O   UNL     1      -9.061  18.147  67.868  1.00  0.00    -0.257 OA 
BRANCH  38  39
HETATM   39  C   UNL     1      -7.894  18.702  67.200  1.00  0.00    -0.234 C  
HETATM   40  C   UNL     1      -5.461  18.628  67.250  1.00  0.00    -0.135 C  
HETATM   41  O   UNL     1      -6.704  18.150  67.772  1.00  0.00    -0.198 OA 
HETATM   42  C   UNL     1      -5.370  20.166  67.247  1.00  0.00    -0.164 C  
HETATM   43  C   UNL     1      -5.149  17.991  65.899  1.00  0.00    -0.221 C  
HETATM   44  O   UNL     1      -5.319  20.647  68.600  1.00  0.00    -0.249 OA 
HETATM   45  C   UNL     1      -6.585  20.805  66.575  1.00  0.00    -0.270 C  
HETATM   46  O   UNL     1      -6.560  20.631  65.155  1.00  0.00    -0.357 OA 
HETATM   47  C   UNL     1      -7.877  20.261  67.199  1.00  0.00    -0.333 C  
HETATM   48  H   UNL     1      -5.263  21.596  68.599  1.00  0.00     0.000 HD 
HETATM   49  H   UNL     1      -7.315  21.028  64.737  1.00  0.00     0.000 HD 
HETATM   50  O   UNL     1      -9.026  20.784  66.516  1.00  0.00    -0.549 OA 
HETATM   51  H   UNL     1      -9.016  21.734  66.516  1.00  0.00     0.000 HD 
ENDBRANCH  38  39
ENDBRANCH  37  38
ENDBRANCH  27  37
ENDBRANCH  24  25
ENDBRANCH  19  24
ENDBRANCH   7  11
ENDBRANCH   2   3
TORSDOF 7
ENDMDL
MODEL      119
REMARK 921   NORMALIZED FREE ENERGY PREDICTED BY IDOCK:   -4.39 KCAL/MOL
REMARK 922        TOTAL FREE ENERGY PREDICTED BY IDOCK:   -8.12 KCAL/MOL
REMARK 923 INTER-LIGAND FREE ENERGY PREDICTED BY IDOCK:   -6.86 KCAL/MOL
REMARK 924 INTRA-LIGAND FREE ENERGY PREDICTED BY IDOCK:   -1.27 KCAL/MOL
REMARK 927      BINDING AFFINITY PREDICTED BY RF-SCORE:    0.00 PKD
ROOT
HETATM    1  C   UNL     1     -10.581  18.775  65.976  1.00  0.00    -0.386 C  
HETATM    2  O   UNL     1      -9.234  18.311  66.005  1.00  0.00    -0.508 OA 
ENDROOT
BRANCH   2   3
HETATM    3  C   UNL     1      -9.078  16.989  66.335  1.00  0.00    -0.270 A  
HETATM    4  C   UNL     1      -8.061  16.715  67.246  1.00  0.00    -0.168 A  
HETATM    5  C   UNL     1      -7.780  15.411  67.650  1.00  0.00    -0.180 A  
HETATM    6  O   UNL     1      -7.293  17.729  67.753  1.00  0.00    -0.195 OA 
HETATM    7  C   UNL     1      -8.535  14.324  67.165  1.00  0.00    -0.220 A  
HETATM    8  H   UNL     1      -6.599  17.542  68.375  1.00  0.00     0.000 HD 
HETATM    9  C   UNL     1      -9.576  14.612  66.267  1.00  0.00    -0.333 A  
HETATM   10  C   UNL     1      -9.849  15.931  65.859  1.00  0.00    -0.383 A  
BRANCH   7  11
HETATM   11  C   UNL     1      -8.227  12.927  67.574  1.00  0.00    -0.184 C  
HETATM   12  C   UNL     1      -7.764  12.674  68.808  1.00  0.00     0.007 C  
HETATM   13  C   UNL     1      -7.373  11.310  69.168  1.00  0.00    -0.104 C  
HETATM   14  O   UNL     1      -6.940  11.048  70.279  1.00  0.00    -0.177 OA 
HETATM   15  C   UNL     1      -7.504  10.283  68.137  1.00  0.00    -0.086 A  
HETATM   16  C   UNL     1      -7.080   8.979  68.372  1.00  0.00    -0.076 A  
HETATM   17  C   UNL     1      -7.252   7.991  67.409  1.00  0.00    -0.088 A  
HETATM   18  O   UNL     1      -6.501   8.580  69.546  1.00  0.00    -0.039 OA 
HETATM   19  C   UNL     1      -7.870   8.292  66.199  1.00  0.00    -0.098 A  
HETATM   20  H   UNL     1      -6.212   7.689  69.707  1.00  0.00     0.000 HD 
HETATM   21  C   UNL     1      -8.276   9.624  65.952  1.00  0.00    -0.119 A  
HETATM   22  C   UNL     1      -8.069  10.632  66.913  1.00  0.00    -0.124 A  
HETATM   23  O   UNL     1      -8.446  11.932  66.613  1.00  0.00    -0.185 OA 
BRANCH  19  24
HETATM   24  O   UNL     1      -8.214   7.364  65.254  1.00  0.00    -0.130 OA 
BRANCH  24  25
HETATM   25  C   UNL     1      -8.927   6.148  65.613  1.00  0.00    -0.041 C  
HETATM   26  O   UNL     1      -8.874   5.799  67.006  1.00  0.00    -0.113 OA 
HETATM   27  C   UNL     1      -9.571   4.604  67.373  1.00  0.00    -0.167 C  
HETATM   28  H   UNL     1      -8.764   2.766  63.389  1.00  0.00     0.000 HD 
HETATM   29  C   UNL     1      -9.074   3.414  66.526  1.00  0.00    -0.161 C  
HETATM   30  O   UNL     1      -8.798   5.343  63.293  1.00  0.00    -0.328 OA 
HETATM   31  C   UNL     1      -9.215   3.701  65.044  1.00  0.00    -0.149 C  
HETATM   32  O   UNL     1      -9.744   2.163  66.756  1.00  0.00    -0.344 OA 
HETATM   33  H   UNL     1      -9.438   1.431  66.235  1.00  0.00     0.000 HD 
HETATM   34  H   UNL     1      -8.538   4.639  62.709  1.00  0.00     0.000 HD 
HETATM   35  O   UNL     1      -8.675   2.586  64.318  1.00  0.00    -0.093 OA 
HETATM   36  C   UNL     1      -8.504   5.000  64.661  1.00  0.00    -0.145 C  
BRANCH  27  37
HETATM   37  C   UNL     1      -9.271   4.195  68.831  1.00  0.00    -0.147 C  
BRANCH  37  38
HETATM   38  O   UNL     1      -9.739   5.040  69.873  1.00  0.00    -0.158 OA 
BRANCH  38  39
HETATM   39  C   UNL     1      -8.646   5.410  70.759  1.00  0.00    -0.128 C  
HETATM   40  C   UNL     1      -7.350   4.559  72.636  1.00  0.00    -0.082 C  
HETATM   41  O   UNL     1      -8.378   4.336  71.666  1.00  0.00    -0.092 OA 
HETATM   42  C   UNL     1      -7.552   5.867  73.425  1.00  0.00    -0.098 C  
HETATM   43  C   UNL     1      -5.965   4.425  72.012  1.00  0.00    -0.013 C  
HETATM   44  O   UNL     1      -8.717   5.750  74.260  1.00  0.00    -0.121 OA 
HETATM   45  C   UNL     1      -7.766   7.062  72.497  1.00  0.00    -0.093 C  
HETATM   46  O   UNL     1      -6.556   7.447  71.838  1.00  0.00    -0.046 OA 
HETATM   47  C   UNL     1      -8.893   6.759  71.502  1.00  0.00    -0.137 C  
HETATM   48  H   UNL     1      -8.841   6.557  74.746  1.00  0.00     0.000 HD 
HETATM   49  H   UNL     1      -6.689   8.190  71.261  1.00  0.00     0.000 HD 
HETATM   50  O   UNL     1      -9.044   7.837  70.566  1.00  0.00    -0.152 OA 
HETATM   51  H   UNL     1      -9.195   8.658  71.018  1.00  0.00     0.000 HD 
ENDBRANCH  38  39
ENDBRANCH  37  38
ENDBRANCH  27  37
ENDBRANCH  24  25
ENDBRANCH  19  24
ENDBRANCH   7  11
ENDBRANCH   2   3
TORSDOF 7
ENDMDL
MODEL      120
REMARK 921   NORMALIZED FREE ENERGY PREDICTED BY IDOCK:   -4.32 KCAL/MOL
REMARK 922        TOTAL FREE ENERGY PREDICTED BY IDOCK:   -8.02 KCAL/MOL
REMARK 923 INTER-LIGAND FREE ENERGY PREDICTED BY IDOCK:   -6.38 KCAL/MOL
REMARK 924 INTRA-LIGAND FREE ENERGY PREDICTED BY IDOCK:   -1.64 KCAL/MOL
REMARK 927      BINDING AFFINITY PREDICTED BY RF-SCORE:    0.00 PKD
ROOT
HETATM    1  C   UNL     1     -11.247  17.195  65.501  1.00  0.00     0.433 C  
HETATM    2  O   UNL     1      -9.841  17.025  65.658  1.00  0.00    -0.547 OA 
ENDROOT
BRANCH   2   3
HETATM    3  C   UNL     1      -9.461  15.894  66.335  1.00  0.00    -0.295 A  
HETATM    4  C   UNL     1      -8.099  15.785  66.602  1.00  0.00    -0.247 A  
HETATM    5  C   UNL     1      -7.575  14.676  67.263  1.00  0.00    -0.173 A  
HETATM    6  O   UNL     1      -7.232  16.765  66.197  1.00  0.00    -0.194 OA 
HETATM    7  C   UNL     1      -8.415  13.634  67.707  1.00  0.00    -0.183 A  
HETATM    8  H   UNL     1      -6.303  16.690  66.379  1.00  0.00     0.000 HD 
HETATM    9  C   UNL     1      -9.791  13.765  67.457  1.00  0.00    -0.230 A  
HETATM   10  C   UNL     1     -10.311  14.886  66.783  1.00  0.00    -0.269 A  
BRANCH   7  11
HETATM   11  C   UNL     1      -7.861  12.436  68.394  1.00  0.00    -0.142 C  
HETATM   12  C   UNL     1      -7.017  12.583  69.427  1.00  0.00     0.098 C  
HETATM   13  C   UNL     1      -6.403  11.400  70.032  1.00  0.00    -0.132 C  
HETATM   14  O   UNL     1      -5.625  11.500  70.969  1.00  0.00    -0.292 OA 
HETATM   15  C   UNL     1      -6.746  10.101  69.458  1.00  0.00    -0.066 A  
HETATM   16  C   UNL     1      -6.145   8.935  69.924  1.00  0.00    -0.034 A  
HETATM   17  C   UNL     1      -6.509   7.695  69.412  1.00  0.00    -0.035 A  
HETATM   18  O   UNL     1      -5.196   8.924  70.909  1.00  0.00    -0.027 OA 
HETATM   19  C   UNL     1      -7.496   7.602  68.435  1.00  0.00    -0.104 A  
HETATM   20  H   UNL     1      -4.786   8.128  71.227  1.00  0.00     0.000 HD 
HETATM   21  C   UNL     1      -8.087   8.790  67.945  1.00  0.00    -0.107 A  
HETATM   22  C   UNL     1      -7.692  10.048  68.438  1.00  0.00    -0.084 A  
HETATM   23  O   UNL     1      -8.268  11.189  67.901  1.00  0.00    -0.114 OA 
BRANCH  19  24
HETATM   24  O   UNL     1      -8.023   6.425  67.978  1.00  0.00    -0.106 OA 
BRANCH  24  25
HETATM   25  C   UNL     1      -8.802   5.557  68.847  1.00  0.00    -0.107 C  
HETATM   26  O   UNL     1      -8.748   5.886  70.244  1.00  0.00    -0.137 OA 
HETATM   27  C   UNL     1      -9.510   5.039  71.111  1.00  0.00    -0.155 C  
HETATM   28  H   UNL     1      -8.876   1.527  68.433  1.00  0.00     0.000 HD 
HETATM   29  C   UNL     1      -9.098   3.565  70.915  1.00  0.00    -0.112 C  
HETATM   30  O   UNL     1      -8.757   3.767  67.160  1.00  0.00    -0.104 OA 
HETATM   31  C   UNL     1      -9.244   3.145  69.465  1.00  0.00    -0.151 C  
HETATM   32  O   UNL     1      -9.837   2.604  71.686  1.00  0.00    -0.155 OA 
HETATM   33  H   UNL     1      -9.584   1.697  71.565  1.00  0.00     0.000 HD 
HETATM   34  H   UNL     1      -8.550   2.860  66.970  1.00  0.00     0.000 HD 
HETATM   35  O   UNL     1      -8.784   1.790  69.342  1.00  0.00    -0.055 OA 
HETATM   36  C   UNL     1      -8.463   4.076  68.537  1.00  0.00    -0.091 C  
BRANCH  27  37
HETATM   37  C   UNL     1      -9.211   5.330  72.598  1.00  0.00    -0.134 C  
BRANCH  37  38
HETATM   38  O   UNL     1     -10.107   6.175  73.307  1.00  0.00    -0.177 OA 
BRANCH  38  39
HETATM   39  C   UNL     1     -10.931   6.935  72.380  1.00  0.00    -0.246 C  
HETATM   40  C   UNL     1     -11.213   9.185  71.493  1.00  0.00    -0.360 C  
HETATM   41  O   UNL     1     -10.476   8.292  72.334  1.00  0.00    -0.289 OA 
HETATM   42  C   UNL     1     -12.727   9.154  71.777  1.00  0.00    -0.373 C  
HETATM   43  C   UNL     1     -10.858   8.978  70.024  1.00  0.00    -0.247 C  
HETATM   44  O   UNL     1     -12.984   9.706  73.080  1.00  0.00    -0.222 OA 
HETATM   45  C   UNL     1     -13.279   7.729  71.761  1.00  0.00    -0.318 C  
HETATM   46  O   UNL     1     -13.344   7.199  70.434  1.00  0.00    -0.198 OA 
HETATM   47  C   UNL     1     -12.454   6.837  72.698  1.00  0.00     0.408 C  
HETATM   48  H   UNL     1     -13.917   9.687  73.255  1.00  0.00     0.000 HD 
HETATM   49  H   UNL     1     -13.687   6.313  70.424  1.00  0.00     0.000 HD 
HETATM   50  O   UNL     1     -12.904   5.476  72.624  1.00  0.00    -0.302 OA 
HETATM   51  H   UNL     1     -13.833   5.416  72.818  1.00  0.00     0.000 HD 
ENDBRANCH  38  39
ENDBRANCH  37  38
ENDBRANCH  27  37
ENDBRANCH  24  25
ENDBRANCH  19  24
ENDBRANCH   7  11
ENDBRANCH   2   3
TORSDOF 7
ENDMDL
MODEL      121
REMARK 921   NORMALIZED FREE ENERGY PREDICTED BY IDOCK:   -4.27 KCAL/MOL
REMARK 922        TOTAL FREE ENERGY PREDICTED BY IDOCK:   -7.95 KCAL/MOL
REMARK 923 INTER-LIGAND FREE ENERGY PREDICTED BY IDOCK:   -6.41 KCAL/MOL
REMARK 924 INTRA-LIGAND FREE ENERGY PREDICTED BY IDOCK:   -1.54 KCAL/MOL
REMARK 927      BINDING AFFINITY PREDICTED BY RF-SCORE:    0.00 PKD
ROOT
HETATM    1  C   UNL     1     -11.680  15.489  64.136  1.00  0.00    -0.086 C  
HETATM    2  O   UNL     1     -12.163  14.149  64.110  1.00  0.00    -0.556 OA 
ENDROOT
BRANCH   2   3
HETATM    3  C   UNL     1     -12.002  13.446  65.277  1.00  0.00    -0.380 A  
HETATM    4  C   UNL     1     -11.496  12.156  65.136  1.00  0.00    -0.323 A  
HETATM    5  C   UNL     1     -11.304  11.326  66.238  1.00  0.00    -0.057 A  
HETATM    6  O   UNL     1     -11.194  11.662  63.895  1.00  0.00    -0.376 OA 
HETATM    7  C   UNL     1     -11.595  11.777  67.542  1.00  0.00    -0.361 A  
HETATM    8  H   UNL     1     -10.849  10.783  63.798  1.00  0.00     0.000 HD 
HETATM    9  C   UNL     1     -12.079  13.088  67.679  1.00  0.00    -0.262 A  
HETATM   10  C   UNL     1     -12.276  13.918  66.559  1.00  0.00    -0.482 A  
BRANCH   7  11
HETATM   11  C   UNL     1     -11.413  10.889  68.723  1.00  0.00    -0.308 C  
HETATM   12  C   UNL     1     -12.481  10.472  69.422  1.00  0.00     0.150 C  
HETATM   13  C   UNL     1     -12.284   9.679  70.636  1.00  0.00    -0.161 C  
HETATM   14  O   UNL     1     -13.234   9.292  71.300  1.00  0.00    -0.326 OA 
HETATM   15  C   UNL     1     -10.908   9.388  71.030  1.00  0.00    -0.406 A  
HETATM   16  C   UNL     1     -10.633   8.708  72.213  1.00  0.00    -0.305 A  
HETATM   17  C   UNL     1      -9.326   8.386  72.560  1.00  0.00    -0.346 A  
HETATM   18  O   UNL     1     -11.605   8.297  73.083  1.00  0.00    -0.357 OA 
HETATM   19  C   UNL     1      -8.272   8.727  71.717  1.00  0.00    -0.079 A  
HETATM   20  H   UNL     1     -11.418   7.832  73.890  1.00  0.00     0.000 HD 
HETATM   21  C   UNL     1      -8.552   9.441  70.528  1.00  0.00    -0.265 A  
HETATM   22  C   UNL     1      -9.872   9.797  70.194  1.00  0.00    -0.255 A  
HETATM   23  O   UNL     1     -10.096  10.532  69.040  1.00  0.00    -0.197 OA 
BRANCH  19  24
HETATM   24  O   UNL     1      -6.976   8.329  71.899  1.00  0.00    -0.072 OA 
BRANCH  24  25
HETATM   25  C   UNL     1      -6.392   7.267  71.094  1.00  0.00    -0.036 C  
HETATM   26  O   UNL     1      -7.122   6.932  69.903  1.00  0.00    -0.066 OA 
HETATM   27  C   UNL     1      -6.558   5.888  69.103  1.00  0.00    -0.051 C  
HETATM   28  H   UNL     1      -4.852   3.883  72.705  1.00  0.00     0.000 HD 
HETATM   29  C   UNL     1      -6.350   4.617  69.951  1.00  0.00    -0.027 C  
HETATM   30  O   UNL     1      -5.152   6.422  73.044  1.00  0.00    -0.030 OA 
HETATM   31  C   UNL     1      -5.489   4.906  71.167  1.00  0.00    -0.004 C  
HETATM   32  O   UNL     1      -5.728   3.511  69.276  1.00  0.00    -0.020 OA 
HETATM   33  H   UNL     1      -5.600   2.729  69.798  1.00  0.00     0.000 HD 
HETATM   34  H   UNL     1      -4.956   5.676  73.598  1.00  0.00     0.000 HD 
HETATM   35  O   UNL     1      -5.392   3.702  71.944  1.00  0.00     0.000 OA 
HETATM   36  C   UNL     1      -6.072   6.049  71.998  1.00  0.00    -0.041 C  
BRANCH  27  37
HETATM   37  C   UNL     1      -7.521   5.450  67.978  1.00  0.00    -0.077 C  
BRANCH  37  38
HETATM   38  O   UNL     1      -6.962   4.875  66.805  1.00  0.00    -0.064 OA 
BRANCH  38  39
HETATM   39  C   UNL     1      -7.085   5.791  65.681  1.00  0.00    -0.069 C  
HETATM   40  C   UNL     1      -8.716   7.196  64.544  1.00  0.00     0.490 C  
HETATM   41  O   UNL     1      -8.419   6.307  65.625  1.00  0.00    -0.142 OA 
HETATM   42  C   UNL     1      -8.327   6.614  63.172  1.00  0.00     0.156 C  
HETATM   43  C   UNL     1      -8.150   8.588  64.805  1.00  0.00    -0.151 C  
HETATM   44  O   UNL     1      -9.175   5.494  62.866  1.00  0.00    -0.332 OA 
HETATM   45  C   UNL     1      -6.881   6.118  63.156  1.00  0.00    -0.044 C  
HETATM   46  O   UNL     1      -5.947   7.201  63.152  1.00  0.00    -0.040 OA 
HETATM   47  C   UNL     1      -6.644   5.155  64.327  1.00  0.00    -0.042 C  
HETATM   48  H   UNL     1      -8.934   5.135  62.020  1.00  0.00     0.000 HD 
HETATM   49  H   UNL     1      -5.048   6.892  63.141  1.00  0.00     0.000 HD 
HETATM   50  O   UNL     1      -5.267   4.752  64.377  1.00  0.00    -0.012 OA 
HETATM   51  H   UNL     1      -4.998   4.365  63.552  1.00  0.00     0.000 HD 
ENDBRANCH  38  39
ENDBRANCH  37  38
ENDBRANCH  27  37
ENDBRANCH  24  25
ENDBRANCH  19  24
ENDBRANCH   7  11
ENDBRANCH   2   3
TORSDOF 7
ENDMDL
MODEL      122
REMARK 921   NORMALIZED FREE ENERGY PREDICTED BY IDOCK:   -4.26 KCAL/MOL
REMARK 922        TOTAL FREE ENERGY PREDICTED BY IDOCK:   -7.94 KCAL/MOL
REMARK 923 INTER-LIGAND FREE ENERGY PREDICTED BY IDOCK:   -6.56 KCAL/MOL
REMARK 924 INTRA-LIGAND FREE ENERGY PREDICTED BY IDOCK:   -1.37 KCAL/MOL
REMARK 927      BINDING AFFINITY PREDICTED BY RF-SCORE:    0.00 PKD
ROOT
HETATM    1  C   UNL     1     -10.388  20.208  65.918  1.00  0.00    -0.340 C  
HETATM    2  O   UNL     1     -10.910  19.261  66.846  1.00  0.00    -0.450 OA 
ENDROOT
BRANCH   2   3
HETATM    3  C   UNL     1     -10.655  17.947  66.547  1.00  0.00    -0.235 A  
HETATM    4  C   UNL     1     -10.257  17.154  67.620  1.00  0.00    -0.329 A  
HETATM    5  C   UNL     1      -9.945  15.806  67.451  1.00  0.00    -0.237 A  
HETATM    6  O   UNL     1     -10.139  17.692  68.874  1.00  0.00    -0.351 OA 
HETATM    7  C   UNL     1     -10.047  15.193  66.185  1.00  0.00    -0.314 A  
HETATM    8  H   UNL     1      -9.867  17.151  69.606  1.00  0.00     0.000 HD 
HETATM    9  C   UNL     1     -10.475  15.993  65.114  1.00  0.00    -0.331 A  
HETATM   10  C   UNL     1     -10.782  17.356  65.292  1.00  0.00     0.029 A  
BRANCH   7  11
HETATM   11  C   UNL     1      -9.694  13.760  65.993  1.00  0.00    -0.237 C  
HETATM   12  C   UNL     1     -10.077  13.116  64.879  1.00  0.00    -0.236 C  
HETATM   13  C   UNL     1      -9.809  11.684  64.744  1.00  0.00    -0.229 C  
HETATM   14  O   UNL     1     -10.153  11.067  63.747  1.00  0.00    -0.302 OA 
HETATM   15  C   UNL     1      -9.133  11.022  65.857  1.00  0.00    -0.214 A  
HETATM   16  C   UNL     1      -8.912   9.648  65.841  1.00  0.00    -0.167 A  
HETATM   17  C   UNL     1      -8.222   9.028  66.877  1.00  0.00    -0.116 A  
HETATM   18  O   UNL     1      -9.324   8.835  64.821  1.00  0.00    -0.395 OA 
HETATM   19  C   UNL     1      -7.728   9.779  67.939  1.00  0.00    -0.087 A  
HETATM   20  H   UNL     1      -9.173   7.897  64.810  1.00  0.00     0.000 HD 
HETATM   21  C   UNL     1      -7.976  11.171  67.965  1.00  0.00    -0.117 A  
HETATM   22  C   UNL     1      -8.705  11.794  66.934  1.00  0.00    -0.189 A  
HETATM   23  O   UNL     1      -8.960  13.154  67.021  1.00  0.00    -0.219 OA 
BRANCH  19  24
HETATM   24  O   UNL     1      -6.917   9.285  68.924  1.00  0.00    -0.062 OA 
BRANCH  24  25
HETATM   25  C   UNL     1      -7.321   8.149  69.737  1.00  0.00    -0.065 C  
HETATM   26  O   UNL     1      -8.146   8.471  70.868  1.00  0.00    -0.103 OA 
HETATM   27  C   UNL     1      -8.550   7.360  71.676  1.00  0.00    -0.116 C  
HETATM   28  H   UNL     1      -4.781   5.159  70.751  1.00  0.00     0.000 HD 
HETATM   29  C   UNL     1      -7.315   6.567  72.151  1.00  0.00    -0.091 C  
HETATM   30  O   UNL     1      -5.428   6.825  68.892  1.00  0.00    -0.015 OA 
HETATM   31  C   UNL     1      -6.471   6.114  70.975  1.00  0.00    -0.049 C  
HETATM   32  O   UNL     1      -7.592   5.386  72.922  1.00  0.00    -0.095 OA 
HETATM   33  H   UNL     1      -6.832   4.898  73.214  1.00  0.00     0.000 HD 
HETATM   34  H   UNL     1      -4.664   6.303  69.108  1.00  0.00     0.000 HD 
HETATM   35  O   UNL     1      -5.310   5.444  71.488  1.00  0.00    -0.008 OA 
HETATM   36  C   UNL     1      -6.075   7.296  70.090  1.00  0.00    -0.024 C  
BRANCH  27  37
HETATM   37  C   UNL     1      -9.236   7.826  72.979  1.00  0.00    -0.226 C  
BRANCH  37  38
HETATM   38  O   UNL     1      -9.886   9.090  72.979  1.00  0.00     0.394 OA 
BRANCH  38  39
HETATM   39  C   UNL     1     -11.135   9.020  72.236  1.00  0.00    -0.064 C  
HETATM   40  C   UNL     1     -12.983   7.507  71.765  1.00  0.00    -0.328 C  
HETATM   41  O   UNL     1     -11.758   7.751  72.462  1.00  0.00    -0.344 OA 
HETATM   42  C   UNL     1     -12.867   7.766  70.251  1.00  0.00     1.025 C  
HETATM   43  C   UNL     1     -14.148   8.237  72.426  1.00  0.00    -0.273 C  
HETATM   44  O   UNL     1     -11.998   6.784  69.660  1.00  0.00    -0.650 OA 
HETATM   45  C   UNL     1     -12.277   9.144  69.955  1.00  0.00     0.783 C  
HETATM   46  O   UNL     1     -13.208  10.193  70.235  1.00  0.00    -0.571 OA 
HETATM   47  C   UNL     1     -10.958   9.325  70.717  1.00  0.00    -0.284 C  
HETATM   48  H   UNL     1     -11.926   6.944  68.726  1.00  0.00     0.000 HD 
HETATM   49  H   UNL     1     -12.841  11.050  70.050  1.00  0.00     0.000 HD 
HETATM   50  O   UNL     1     -10.438  10.649  70.520  1.00  0.00    -0.336 OA 
HETATM   51  H   UNL     1     -10.331  10.835  69.595  1.00  0.00     0.000 HD 
ENDBRANCH  38  39
ENDBRANCH  37  38
ENDBRANCH  27  37
ENDBRANCH  24  25
ENDBRANCH  19  24
ENDBRANCH   7  11
ENDBRANCH   2   3
TORSDOF 7
ENDMDL
MODEL      123
REMARK 921   NORMALIZED FREE ENERGY PREDICTED BY IDOCK:   -4.23 KCAL/MOL
REMARK 922        TOTAL FREE ENERGY PREDICTED BY IDOCK:   -7.90 KCAL/MOL
REMARK 923 INTER-LIGAND FREE ENERGY PREDICTED BY IDOCK:   -6.81 KCAL/MOL
REMARK 924 INTRA-LIGAND FREE ENERGY PREDICTED BY IDOCK:   -1.09 KCAL/MOL
REMARK 927      BINDING AFFINITY PREDICTED BY RF-SCORE:    0.00 PKD
ROOT
HETATM    1  C   UNL     1     -13.240  11.868  63.003  1.00  0.00     0.739 C  
HETATM    2  O   UNL     1     -12.777  13.174  63.337  1.00  0.00    -0.697 OA 
ENDROOT
BRANCH   2   3
HETATM    3  C   UNL     1     -11.785  13.218  64.283  1.00  0.00    -0.407 A  
HETATM    4  C   UNL     1     -12.143  13.791  65.501  1.00  0.00    -0.410 A  
HETATM    5  C   UNL     1     -11.224  13.919  66.541  1.00  0.00    -0.327 A  
HETATM    6  O   UNL     1     -13.412  14.265  65.698  1.00  0.00    -0.688 OA 
HETATM    7  C   UNL     1      -9.903  13.449  66.401  1.00  0.00    -0.299 A  
HETATM    8  H   UNL     1     -13.656  14.656  66.528  1.00  0.00     0.000 HD 
HETATM    9  C   UNL     1      -9.557  12.849  65.180  1.00  0.00     0.147 A  
HETATM   10  C   UNL     1     -10.490  12.729  64.131  1.00  0.00    -0.437 A  
BRANCH   7  11
HETATM   11  C   UNL     1      -8.910  13.602  67.499  1.00  0.00    -0.205 C  
HETATM   12  C   UNL     1      -8.592  14.824  67.953  1.00  0.00    -0.166 C  
HETATM   13  C   UNL     1      -7.544  14.969  68.965  1.00  0.00    -0.160 C  
HETATM   14  O   UNL     1      -7.225  16.068  69.393  1.00  0.00    -0.214 OA 
HETATM   15  C   UNL     1      -6.886  13.749  69.426  1.00  0.00    -0.044 A  
HETATM   16  C   UNL     1      -5.827  13.807  70.327  1.00  0.00    -0.152 A  
HETATM   17  C   UNL     1      -5.235  12.643  70.805  1.00  0.00    -0.152 A  
HETATM   18  O   UNL     1      -5.322  14.982  70.814  1.00  0.00    -0.127 OA 
HETATM   19  C   UNL     1      -5.708  11.399  70.398  1.00  0.00    -0.151 A  
HETATM   20  H   UNL     1      -4.600  15.022  71.430  1.00  0.00     0.000 HD 
HETATM   21  C   UNL     1      -6.767  11.343  69.462  1.00  0.00    -0.119 A  
HETATM   22  C   UNL     1      -7.343  12.522  68.952  1.00  0.00    -0.022 A  
HETATM   23  O   UNL     1      -8.351  12.421  68.005  1.00  0.00    -0.152 OA 
BRANCH  19  24
HETATM   24  O   UNL     1      -5.291  10.204  70.919  1.00  0.00    -0.058 OA 
BRANCH  24  25
HETATM   25  C   UNL     1      -5.933   8.953  70.548  1.00  0.00    -0.033 C  
HETATM   26  O   UNL     1      -5.912   8.650  69.144  1.00  0.00    -0.041 OA 
HETATM   27  C   UNL     1      -6.541   7.421  68.766  1.00  0.00    -0.048 C  
HETATM   28  H   UNL     1      -9.469   7.748  72.115  1.00  0.00     0.000 HD 
HETATM   29  C   UNL     1      -7.996   7.385  69.276  1.00  0.00    -0.118 C  
HETATM   30  O   UNL     1      -7.259   8.976  72.620  1.00  0.00    -0.331 OA 
HETATM   31  C   UNL     1      -8.054   7.595  70.778  1.00  0.00    -0.103 C  
HETATM   32  O   UNL     1      -8.719   6.171  69.015  1.00  0.00    -0.123 OA 
HETATM   33  H   UNL     1      -9.615   6.150  69.329  1.00  0.00     0.000 HD 
HETATM   34  H   UNL     1      -8.124   8.936  73.009  1.00  0.00     0.000 HD 
HETATM   35  O   UNL     1      -9.434   7.617  71.175  1.00  0.00    -0.154 OA 
HETATM   36  C   UNL     1      -7.346   8.887  71.184  1.00  0.00    -0.105 C  
BRANCH  27  37
HETATM   37  C   UNL     1      -6.665   7.294  67.232  1.00  0.00    -0.068 C  
BRANCH  37  38
HETATM   38  O   UNL     1      -7.944   7.492  66.645  1.00  0.00    -0.106 OA 
BRANCH  38  39
HETATM   39  C   UNL     1      -8.331   6.328  65.863  1.00  0.00    -0.142 C  
HETATM   40  C   UNL     1      -8.077   3.908  65.805  1.00  0.00    -0.097 C  
HETATM   41  O   UNL     1      -7.817   5.143  66.479  1.00  0.00    -0.101 OA 
HETATM   42  C   UNL     1      -7.665   3.942  64.321  1.00  0.00    -0.084 C  
HETATM   43  C   UNL     1      -9.513   3.447  66.034  1.00  0.00    -0.121 C  
HETATM   44  O   UNL     1      -6.234   4.030  64.221  1.00  0.00    -0.024 OA 
HETATM   45  C   UNL     1      -8.254   5.152  63.597  1.00  0.00    -0.118 C  
HETATM   46  O   UNL     1      -9.661   5.009  63.379  1.00  0.00    -0.336 OA 
HETATM   47  C   UNL     1      -7.918   6.438  64.363  1.00  0.00    -0.108 C  
HETATM   48  H   UNL     1      -5.979   4.052  63.306  1.00  0.00     0.000 HD 
HETATM   49  H   UNL     1     -10.028   5.761  62.928  1.00  0.00     0.000 HD 
HETATM   50  O   UNL     1      -8.542   7.573  63.744  1.00  0.00    -0.350 OA 
HETATM   51  H   UNL     1      -8.290   7.640  62.830  1.00  0.00     0.000 HD 
ENDBRANCH  38  39
ENDBRANCH  37  38
ENDBRANCH  27  37
ENDBRANCH  24  25
ENDBRANCH  19  24
ENDBRANCH   7  11
ENDBRANCH   2   3
TORSDOF 7
ENDMDL
MODEL      124
REMARK 921   NORMALIZED FREE ENERGY PREDICTED BY IDOCK:   -4.16 KCAL/MOL
REMARK 922        TOTAL FREE ENERGY PREDICTED BY IDOCK:   -7.79 KCAL/MOL
REMARK 923 INTER-LIGAND FREE ENERGY PREDICTED BY IDOCK:   -6.43 KCAL/MOL
REMARK 924 INTRA-LIGAND FREE ENERGY PREDICTED BY IDOCK:   -1.36 KCAL/MOL
REMARK 927      BINDING AFFINITY PREDICTED BY RF-SCORE:    0.00 PKD
ROOT
HETATM    1  C   UNL     1     -11.328   1.737  64.301  1.00  0.00     1.349 C  
HETATM    2  O   UNL     1      -9.934   2.015  64.201  1.00  0.00    -0.124 OA 
ENDROOT
BRANCH   2   3
HETATM    3  C   UNL     1      -9.565   3.286  64.561  1.00  0.00    -0.154 A  
HETATM    4  C   UNL     1      -8.916   4.025  63.574  1.00  0.00    -0.122 A  
HETATM    5  C   UNL     1      -8.467   5.322  63.815  1.00  0.00    -0.096 A  
HETATM    6  O   UNL     1      -8.683   3.478  62.341  1.00  0.00    -0.080 OA 
HETATM    7  C   UNL     1      -8.678   5.941  65.064  1.00  0.00    -0.010 A  
HETATM    8  H   UNL     1      -8.241   3.981  61.667  1.00  0.00     0.000 HD 
HETATM    9  C   UNL     1      -9.356   5.199  66.044  1.00  0.00    -0.165 A  
HETATM   10  C   UNL     1      -9.801   3.887  65.796  1.00  0.00    -0.143 A  
BRANCH   7  11
HETATM   11  C   UNL     1      -8.183   7.318  65.335  1.00  0.00    -0.137 C  
HETATM   12  C   UNL     1      -7.011   7.725  64.822  1.00  0.00    -0.055 C  
HETATM   13  C   UNL     1      -6.488   9.045  65.174  1.00  0.00    -0.071 C  
HETATM   14  O   UNL     1      -5.421   9.442  64.731  1.00  0.00    -0.052 OA 
HETATM   15  C   UNL     1      -7.285   9.858  66.090  1.00  0.00    -0.104 A  
HETATM   16  C   UNL     1      -6.820  11.091  66.537  1.00  0.00    -0.132 A  
HETATM   17  C   UNL     1      -7.602  11.887  67.367  1.00  0.00    -0.151 A  
HETATM   18  O   UNL     1      -5.604  11.607  66.180  1.00  0.00    -0.455 OA 
HETATM   19  C   UNL     1      -8.871  11.464  67.751  1.00  0.00    -0.143 A  
HETATM   20  H   UNL     1      -5.287  12.450  66.485  1.00  0.00     0.000 HD 
HETATM   21  C   UNL     1      -9.331  10.199  67.317  1.00  0.00    -0.173 A  
HETATM   22  C   UNL     1      -8.525   9.378  66.505  1.00  0.00    -0.133 A  
HETATM   23  O   UNL     1      -8.998   8.128  66.136  1.00  0.00    -0.161 OA 
BRANCH  19  24
HETATM   24  O   UNL     1      -9.767  12.234  68.441  1.00  0.00    -0.213 OA 
BRANCH  24  25
HETATM   25  C   UNL     1      -9.814  13.678  68.268  1.00  0.00    -0.232 C  
HETATM   26  O   UNL     1      -8.687  14.392  68.799  1.00  0.00    -0.178 OA 
HETATM   27  C   UNL     1      -8.721  15.814  68.636  1.00  0.00    -0.195 C  
HETATM   28  H   UNL     1     -13.176  15.856  68.876  1.00  0.00     0.000 HD 
HETATM   29  C   UNL     1     -10.022  16.390  69.233  1.00  0.00    -0.259 C  
HETATM   30  O   UNL     1     -12.260  13.605  68.014  1.00  0.00    -0.368 OA 
HETATM   31  C   UNL     1     -11.243  15.735  68.617  1.00  0.00    -0.351 C  
HETATM   32  O   UNL     1     -10.207  17.806  69.076  1.00  0.00    -0.367 OA 
HETATM   33  H   UNL     1     -11.007  18.160  69.444  1.00  0.00     0.000 HD 
HETATM   34  H   UNL     1     -13.100  13.932  68.313  1.00  0.00     0.000 HD 
HETATM   35  O   UNL     1     -12.411  16.266  69.262  1.00  0.00     0.012 OA 
HETATM   36  C   UNL     1     -11.185  14.213  68.756  1.00  0.00    -0.268 C  
BRANCH  27  37
HETATM   37  C   UNL     1      -7.591  16.505  69.430  1.00  0.00    -0.061 C  
BRANCH  37  38
HETATM   38  O   UNL     1      -6.357  16.745  68.766  1.00  0.00    -0.145 OA 
BRANCH  38  39
HETATM   39  C   UNL     1      -6.429  17.972  67.988  1.00  0.00    -0.188 C  
HETATM   40  C   UNL     1      -7.688  20.050  67.827  1.00  0.00    -0.292 C  
HETATM   41  O   UNL     1      -7.462  18.814  68.511  1.00  0.00    -0.280 OA 
HETATM   42  C   UNL     1      -7.890  19.861  66.311  1.00  0.00    -0.321 C  
HETATM   43  C   UNL     1      -6.621  21.079  68.180  1.00  0.00    -0.190 C  
HETATM   44  O   UNL     1      -9.127  19.168  66.073  1.00  0.00    -0.442 OA 
HETATM   45  C   UNL     1      -6.769  19.031  65.688  1.00  0.00    -0.280 C  
HETATM   46  O   UNL     1      -5.545  19.767  65.605  1.00  0.00    -0.159 OA 
HETATM   47  C   UNL     1      -6.598  17.715  66.459  1.00  0.00    -0.227 C  
HETATM   48  H   UNL     1      -9.252  19.051  65.139  1.00  0.00     0.000 HD 
HETATM   49  H   UNL     1      -4.847  19.251  65.217  1.00  0.00     0.000 HD 
HETATM   50  O   UNL     1      -5.488  16.967  65.941  1.00  0.00    -0.112 OA 
HETATM   51  H   UNL     1      -5.591  16.810  65.010  1.00  0.00     0.000 HD 
ENDBRANCH  38  39
ENDBRANCH  37  38
ENDBRANCH  27  37
ENDBRANCH  24  25
ENDBRANCH  19  24
ENDBRANCH   7  11
ENDBRANCH   2   3
TORSDOF 7
ENDMDL
MODEL      125
REMARK 921   NORMALIZED FREE ENERGY PREDICTED BY IDOCK:   -4.13 KCAL/MOL
REMARK 922        TOTAL FREE ENERGY PREDICTED BY IDOCK:   -7.75 KCAL/MOL
REMARK 923 INTER-LIGAND FREE ENERGY PREDICTED BY IDOCK:   -7.12 KCAL/MOL
REMARK 924 INTRA-LIGAND FREE ENERGY PREDICTED BY IDOCK:   -0.63 KCAL/MOL
REMARK 927      BINDING AFFINITY PREDICTED BY RF-SCORE:    0.00 PKD
ROOT
HETATM    1  C   UNL     1     -10.053   1.618  68.979  1.00  0.00     0.592 C  
HETATM    2  O   UNL     1      -9.478   1.758  67.682  1.00  0.00    -0.139 OA 
ENDROOT
BRANCH   2   3
HETATM    3  C   UNL     1      -9.144   3.040  67.326  1.00  0.00    -0.175 A  
HETATM    4  C   UNL     1      -7.798   3.370  67.462  1.00  0.00    -0.077 A  
HETATM    5  C   UNL     1      -7.328   4.645  67.156  1.00  0.00    -0.077 A  
HETATM    6  O   UNL     1      -6.902   2.444  67.926  1.00  0.00    -0.039 OA 
HETATM    7  C   UNL     1      -8.201   5.641  66.673  1.00  0.00    -0.105 A  
HETATM    8  H   UNL     1      -5.984   2.669  68.020  1.00  0.00     0.000 HD 
HETATM    9  C   UNL     1      -9.551   5.293  66.513  1.00  0.00    -0.166 A  
HETATM   10  C   UNL     1     -10.020   4.004  66.831  1.00  0.00    -0.059 A  
BRANCH   7  11
HETATM   11  C   UNL     1      -7.710   7.013  66.365  1.00  0.00    -0.104 C  
HETATM   12  C   UNL     1      -6.902   7.218  65.314  1.00  0.00    -0.051 C  
HETATM   13  C   UNL     1      -6.348   8.552  65.078  1.00  0.00    -0.060 C  
HETATM   14  O   UNL     1      -5.602   8.771  64.135  1.00  0.00    -0.062 OA 
HETATM   15  C   UNL     1      -6.710   9.604  66.026  1.00  0.00    -0.084 A  
HETATM   16  C   UNL     1      -6.164  10.879  65.918  1.00  0.00    -0.089 A  
HETATM   17  C   UNL     1      -6.548  11.892  66.789  1.00  0.00    -0.020 A  
HETATM   18  O   UNL     1      -5.253  11.225  64.958  1.00  0.00    -0.498 OA 
HETATM   19  C   UNL     1      -7.500  11.646  67.774  1.00  0.00    -0.111 A  
HETATM   20  H   UNL     1      -4.880  12.096  64.884  1.00  0.00     0.000 HD 
HETATM   21  C   UNL     1      -8.034  10.343  67.898  1.00  0.00    -0.102 A  
HETATM   22  C   UNL     1      -7.619   9.308  67.038  1.00  0.00    -0.091 A  
HETATM   23  O   UNL     1      -8.138   8.036  67.222  1.00  0.00    -0.118 OA 
BRANCH  19  24
HETATM   24  O   UNL     1      -8.047  12.609  68.579  1.00  0.00    -0.143 OA 
BRANCH  24  25
HETATM   25  C   UNL     1      -8.873  13.673  68.031  1.00  0.00    -0.187 C  
HETATM   26  O   UNL     1      -9.008  14.833  68.867  1.00  0.00    -0.186 OA 
HETATM   27  C   UNL     1      -9.819  15.887  68.339  1.00  0.00    -0.214 C  
HETATM   28  H   UNL     1     -12.393  12.974  66.150  1.00  0.00     0.000 HD 
HETATM   29  C   UNL     1     -11.219  15.353  67.974  1.00  0.00    -0.325 C  
HETATM   30  O   UNL     1     -10.008  12.075  66.544  1.00  0.00    -0.199 OA 
HETATM   31  C   UNL     1     -11.124  14.191  67.003  1.00  0.00    -0.307 C  
HETATM   32  O   UNL     1     -12.112  16.305  67.372  1.00  0.00     0.613 OA 
HETATM   33  H   UNL     1     -12.973  15.976  67.147  1.00  0.00     0.000 HD 
HETATM   34  H   UNL     1     -10.836  11.714  66.251  1.00  0.00     0.000 HD 
HETATM   35  O   UNL     1     -12.452  13.702  66.759  1.00  0.00    -0.341 OA 
HETATM   36  C   UNL     1     -10.224  13.084  67.551  1.00  0.00    -0.221 C  
BRANCH  27  37
HETATM   37  C   UNL     1     -10.085  16.983  69.394  1.00  0.00    -0.139 C  
BRANCH  37  38
HETATM   38  O   UNL     1      -9.873  18.338  69.021  1.00  0.00    -0.335 OA 
BRANCH  38  39
HETATM   39  C   UNL     1      -8.708  18.451  68.158  1.00  0.00    -0.302 C  
HETATM   40  C   UNL     1      -6.503  19.479  68.066  1.00  0.00    -0.230 C  
HETATM   41  O   UNL     1      -7.704  19.238  68.805  1.00  0.00    -0.344 OA 
HETATM   42  C   UNL     1      -6.776  20.042  66.658  1.00  0.00    -0.212 C  
HETATM   43  C   UNL     1      -5.596  18.253  68.072  1.00  0.00    -0.164 C  
HETATM   44  O   UNL     1      -7.319  21.369  66.767  1.00  0.00    -0.773 OA 
HETATM   45  C   UNL     1      -7.788  19.190  65.892  1.00  0.00    -0.145 C  
HETATM   46  O   UNL     1      -7.224  17.945  65.470  1.00  0.00    -0.510 OA 
HETATM   47  C   UNL     1      -9.053  18.993  66.736  1.00  0.00    -0.320 C  
HETATM   48  H   UNL     1      -7.487  21.716  65.899  1.00  0.00     0.000 HD 
HETATM   49  H   UNL     1      -7.853  17.415  64.993  1.00  0.00     0.000 HD 
HETATM   50  O   UNL     1      -9.975  18.119  66.067  1.00  0.00    -0.499 OA 
HETATM   51  H   UNL     1     -10.186  18.450  65.202  1.00  0.00     0.000 HD 
ENDBRANCH  38  39
ENDBRANCH  37  38
ENDBRANCH  27  37
ENDBRANCH  24  25
ENDBRANCH  19  24
ENDBRANCH   7  11
ENDBRANCH   2   3
TORSDOF 7
ENDMDL
MODEL      126
REMARK 921   NORMALIZED FREE ENERGY PREDICTED BY IDOCK:   -4.08 KCAL/MOL
REMARK 922        TOTAL FREE ENERGY PREDICTED BY IDOCK:   -7.69 KCAL/MOL
REMARK 923 INTER-LIGAND FREE ENERGY PREDICTED BY IDOCK:   -7.29 KCAL/MOL
REMARK 924 INTRA-LIGAND FREE ENERGY PREDICTED BY IDOCK:   -0.40 KCAL/MOL
REMARK 927      BINDING AFFINITY PREDICTED BY RF-SCORE:    0.00 PKD
ROOT
HETATM    1  C   UNL     1     -10.049   2.278  71.919  1.00  0.00    -0.115 C  
HETATM    2  O   UNL     1     -10.280   3.647  72.238  1.00  0.00    -0.165 OA 
ENDROOT
BRANCH   2   3
HETATM    3  C   UNL     1      -9.959   4.540  71.247  1.00  0.00    -0.188 A  
HETATM    4  C   UNL     1      -9.825   5.865  71.655  1.00  0.00    -0.165 A  
HETATM    5  C   UNL     1      -9.523   6.878  70.747  1.00  0.00    -0.165 A  
HETATM    6  O   UNL     1     -10.010   6.209  72.968  1.00  0.00    -0.170 OA 
HETATM    7  C   UNL     1      -9.320   6.588  69.382  1.00  0.00    -0.143 A  
HETATM    8  H   UNL     1      -9.918   7.112  73.246  1.00  0.00     0.000 HD 
HETATM    9  C   UNL     1      -9.431   5.247  68.984  1.00  0.00    -0.182 A  
HETATM   10  C   UNL     1      -9.742   4.230  69.907  1.00  0.00    -0.291 A  
BRANCH   7  11
HETATM   11  C   UNL     1      -9.019   7.667  68.401  1.00  0.00    -0.128 C  
HETATM   12  C   UNL     1      -9.045   7.407  67.085  1.00  0.00    -0.146 C  
HETATM   13  C   UNL     1      -8.654   8.449  66.135  1.00  0.00    -0.141 C  
HETATM   14  O   UNL     1      -8.657   8.242  64.931  1.00  0.00    -0.145 OA 
HETATM   15  C   UNL     1      -8.243   9.738  66.687  1.00  0.00    -0.120 A  
HETATM   16  C   UNL     1      -7.781  10.755  65.857  1.00  0.00    -0.118 A  
HETATM   17  C   UNL     1      -7.439  11.998  66.378  1.00  0.00     0.361 A  
HETATM   18  O   UNL     1      -7.658  10.617  64.501  1.00  0.00    -0.345 OA 
HETATM   19  C   UNL     1      -7.571  12.246  67.741  1.00  0.00    -0.131 A  
HETATM   20  H   UNL     1      -7.344  11.311  63.934  1.00  0.00     0.000 HD 
HETATM   21  C   UNL     1      -8.015  11.203  68.586  1.00  0.00    -0.145 A  
HETATM   22  C   UNL     1      -8.327   9.934  68.063  1.00  0.00    -0.113 A  
HETATM   23  O   UNL     1      -8.720   8.928  68.934  1.00  0.00    -0.133 OA 
BRANCH  19  24
HETATM   24  O   UNL     1      -7.400  13.473  68.324  1.00  0.00    -0.094 OA 
BRANCH  24  25
HETATM   25  C   UNL     1      -8.224  14.610  67.946  1.00  0.00    -0.150 C  
HETATM   26  O   UNL     1      -9.514  14.276  67.409  1.00  0.00    -0.202 OA 
HETATM   27  C   UNL     1     -10.336  15.387  67.033  1.00  0.00    -0.280 C  
HETATM   28  H   UNL     1      -6.756  17.830  65.974  1.00  0.00     0.000 HD 
HETATM   29  C   UNL     1      -9.584  16.294  66.037  1.00  0.00    -0.337 C  
HETATM   30  O   UNL     1      -6.231  16.037  67.752  1.00  0.00    -0.119 OA 
HETATM   31  C   UNL     1      -8.259  16.758  66.612  1.00  0.00    -0.261 C  
HETATM   32  O   UNL     1     -10.281  17.483  65.630  1.00  0.00    -0.595 OA 
HETATM   33  H   UNL     1      -9.818  18.042  65.017  1.00  0.00     0.000 HD 
HETATM   34  H   UNL     1      -5.726  16.626  67.204  1.00  0.00     0.000 HD 
HETATM   35  O   UNL     1      -7.586  17.539  65.613  1.00  0.00    -0.480 OA 
HETATM   36  C   UNL     1      -7.401  15.572  67.051  1.00  0.00    -0.137 C  
BRANCH  27  37
HETATM   37  C   UNL     1     -11.595  14.929  66.266  1.00  0.00    -0.233 C  
BRANCH  37  38
HETATM   38  O   UNL     1     -12.271  13.765  66.723  1.00  0.00    -0.425 OA 
BRANCH  38  39
HETATM   39  C   UNL     1     -12.454  13.818  68.166  1.00  0.00     0.314 C  
HETATM   40  C   UNL     1     -12.392  15.378  70.034  1.00  0.00    -0.336 C  
HETATM   41  O   UNL     1     -12.283  15.163  68.624  1.00  0.00    -0.189 OA 
HETATM   42  C   UNL     1     -11.489  14.433  70.850  1.00  0.00    -0.049 C  
HETATM   43  C   UNL     1     -13.850  15.372  70.482  1.00  0.00     0.261 C  
HETATM   44  O   UNL     1     -10.109  14.763  70.612  1.00  0.00    -0.180 OA 
HETATM   45  C   UNL     1     -11.690  12.972  70.451  1.00  0.00    -0.035 C  
HETATM   46  O   UNL     1     -12.939  12.459  70.923  1.00  0.00    -0.140 OA 
HETATM   47  C   UNL     1     -11.538  12.816  68.933  1.00  0.00    -0.316 C  
HETATM   48  H   UNL     1      -9.552  14.180  71.115  1.00  0.00     0.000 HD 
HETATM   49  H   UNL     1     -13.064  11.550  70.675  1.00  0.00     0.000 HD 
HETATM   50  O   UNL     1     -11.814  11.464  68.534  1.00  0.00    -0.416 OA 
HETATM   51  H   UNL     1     -11.256  10.854  69.001  1.00  0.00     0.000 HD 
ENDBRANCH  38  39
ENDBRANCH  37  38
ENDBRANCH  27  37
ENDBRANCH  24  25
ENDBRANCH  19  24
ENDBRANCH   7  11
ENDBRANCH   2   3
TORSDOF 7
ENDMDL
MODEL      127
REMARK 921   NORMALIZED FREE ENERGY PREDICTED BY IDOCK:   -4.00 KCAL/MOL
REMARK 922        TOTAL FREE ENERGY PREDICTED BY IDOCK:   -7.56 KCAL/MOL
REMARK 923 INTER-LIGAND FREE ENERGY PREDICTED BY IDOCK:   -7.28 KCAL/MOL
REMARK 924 INTRA-LIGAND FREE ENERGY PREDICTED BY IDOCK:   -0.28 KCAL/MOL
REMARK 927      BINDING AFFINITY PREDICTED BY RF-SCORE:    0.00 PKD
ROOT
HETATM    1  C   UNL     1      -7.148  21.204  67.628  1.00  0.00    -0.157 C  
HETATM    2  O   UNL     1      -6.420  20.014  67.919  1.00  0.00    -0.222 OA 
ENDROOT
BRANCH   2   3
HETATM    3  C   UNL     1      -7.168  18.865  67.961  1.00  0.00    -0.244 A  
HETATM    4  C   UNL     1      -6.526  17.715  67.510  1.00  0.00    -0.161 A  
HETATM    5  C   UNL     1      -7.179  16.484  67.477  1.00  0.00    -0.168 A  
HETATM    6  O   UNL     1      -5.234  17.773  67.062  1.00  0.00    -0.121 OA 
HETATM    7  C   UNL     1      -8.510  16.359  67.926  1.00  0.00    -0.171 A  
HETATM    8  H   UNL     1      -4.796  16.988  66.755  1.00  0.00     0.000 HD 
HETATM    9  C   UNL     1      -9.141  17.518  68.404  1.00  0.00    -0.276 A  
HETATM   10  C   UNL     1      -8.477  18.760  68.427  1.00  0.00    -0.374 A  
BRANCH   7  11
HETATM   11  C   UNL     1      -9.221  15.053  67.874  1.00  0.00    -0.182 C  
HETATM   12  C   UNL     1     -10.556  15.007  68.006  1.00  0.00    -0.250 C  
HETATM   13  C   UNL     1     -11.234  13.711  68.050  1.00  0.00    -0.267 C  
HETATM   14  O   UNL     1     -12.446  13.634  68.179  1.00  0.00    -0.078 OA 
HETATM   15  C   UNL     1     -10.399  12.516  67.954  1.00  0.00    -0.219 A  
HETATM   16  C   UNL     1     -10.956  11.246  68.066  1.00  0.00    -0.247 A  
HETATM   17  C   UNL     1     -10.169  10.109  67.923  1.00  0.00    -0.217 A  
HETATM   18  O   UNL     1     -12.287  11.030  68.296  1.00  0.00    -0.717 OA 
HETATM   19  C   UNL     1      -8.810  10.228  67.646  1.00  0.00    -0.121 A  
HETATM   20  H   UNL     1     -12.668  10.163  68.373  1.00  0.00     0.000 HD 
HETATM   21  C   UNL     1      -8.241  11.519  67.557  1.00  0.00    -0.140 A  
HETATM   22  C   UNL     1      -9.032  12.670  67.738  1.00  0.00    -0.189 A  
HETATM   23  O   UNL     1      -8.425  13.916  67.683  1.00  0.00    -0.166 OA 
BRANCH  19  24
HETATM   24  O   UNL     1      -7.987   9.177  67.345  1.00  0.00    -0.102 OA 
BRANCH  24  25
HETATM   25  C   UNL     1      -7.885   8.661  65.988  1.00  0.00    -0.102 C  
HETATM   26  O   UNL     1      -7.578   7.261  65.889  1.00  0.00    -0.084 OA 
HETATM   27  C   UNL     1      -7.474   6.742  64.559  1.00  0.00    -0.099 C  
HETATM   28  H   UNL     1      -5.980  10.653  63.018  1.00  0.00     0.000 HD 
HETATM   29  C   UNL     1      -6.442   7.552  63.748  1.00  0.00    -0.053 C  
HETATM   30  O   UNL     1      -7.445  10.922  65.123  1.00  0.00    -0.358 OA 
HETATM   31  C   UNL     1      -6.793   9.028  63.737  1.00  0.00    -0.088 C  
HETATM   32  O   UNL     1      -6.292   7.168  62.371  1.00  0.00    -0.051 OA 
HETATM   33  H   UNL     1      -5.656   7.666  61.872  1.00  0.00     0.000 HD 
HETATM   34  H   UNL     1      -6.868  11.479  64.615  1.00  0.00     0.000 HD 
HETATM   35  O   UNL     1      -5.761   9.728  63.025  1.00  0.00    -0.089 OA 
HETATM   36  C   UNL     1      -6.943   9.571  65.158  1.00  0.00    -0.100 C  
BRANCH  27  37
HETATM   37  C   UNL     1      -6.925   5.299  64.554  1.00  0.00    -0.049 C  
BRANCH  37  38
HETATM   38  O   UNL     1      -7.837   4.235  64.792  1.00  0.00    -0.086 OA 
BRANCH  38  39
HETATM   39  C   UNL     1      -7.979   3.997  66.220  1.00  0.00    -0.098 C  
HETATM   40  C   UNL     1      -7.556   2.301  67.916  1.00  0.00    -0.055 C  
HETATM   41  O   UNL     1      -7.454   2.706  66.547  1.00  0.00    -0.068 OA 
HETATM   42  C   UNL     1      -8.988   2.434  68.468  1.00  0.00    -0.129 C  
HETATM   43  C   UNL     1      -6.500   2.988  68.774  1.00  0.00    -0.029 C  
HETATM   44  O   UNL     1      -9.845   1.479  67.820  1.00  0.00    -0.407 OA 
HETATM   45  C   UNL     1      -9.569   3.825  68.212  1.00  0.00    -0.106 C  
HETATM   46  O   UNL     1      -8.970   4.815  69.054  1.00  0.00    -0.097 OA 
HETATM   47  C   UNL     1      -9.443   4.180  66.725  1.00  0.00    -0.193 C  
HETATM   48  H   UNL     1     -10.728   1.561  68.160  1.00  0.00     0.000 HD 
HETATM   49  H   UNL     1      -9.330   5.679  68.895  1.00  0.00     0.000 HD 
HETATM   50  O   UNL     1      -9.901   5.520  66.486  1.00  0.00    -0.151 OA 
HETATM   51  H   UNL     1     -10.793   5.632  66.793  1.00  0.00     0.000 HD 
ENDBRANCH  38  39
ENDBRANCH  37  38
ENDBRANCH  27  37
ENDBRANCH  24  25
ENDBRANCH  19  24
ENDBRANCH   7  11
ENDBRANCH   2   3
TORSDOF 7
ENDMDL
MODEL      128
REMARK 921   NORMALIZED FREE ENERGY PREDICTED BY IDOCK:   -3.99 KCAL/MOL
REMARK 922        TOTAL FREE ENERGY PREDICTED BY IDOCK:   -7.55 KCAL/MOL
REMARK 923 INTER-LIGAND FREE ENERGY PREDICTED BY IDOCK:   -6.52 KCAL/MOL
REMARK 924 INTRA-LIGAND FREE ENERGY PREDICTED BY IDOCK:   -1.04 KCAL/MOL
REMARK 927      BINDING AFFINITY PREDICTED BY RF-SCORE:    0.00 PKD
ROOT
HETATM    1  C   UNL     1     -13.907   9.152  72.376  1.00  0.00    -0.457 C  
HETATM    2  O   UNL     1     -13.083   8.151  72.966  1.00  0.00     0.154 OA 
ENDROOT
BRANCH   2   3
HETATM    3  C   UNL     1     -12.231   7.510  72.103  1.00  0.00    -0.248 A  
HETATM    4  C   UNL     1     -11.015   7.108  72.650  1.00  0.00    -0.288 A  
HETATM    5  C   UNL     1     -10.049   6.466  71.877  1.00  0.00    -0.204 A  
HETATM    6  O   UNL     1     -10.731   7.356  73.966  1.00  0.00    -0.550 OA 
HETATM    7  C   UNL     1     -10.282   6.181  70.516  1.00  0.00    -0.251 A  
HETATM    8  H   UNL     1      -9.901   7.081  74.339  1.00  0.00     0.000 HD 
HETATM    9  C   UNL     1     -11.521   6.567  69.980  1.00  0.00    -0.476 A  
HETATM   10  C   UNL     1     -12.490   7.221  70.765  1.00  0.00    -0.189 A  
BRANCH   7  11
HETATM   11  C   UNL     1      -9.246   5.516  69.679  1.00  0.00    -0.132 C  
HETATM   12  C   UNL     1      -8.815   4.285  69.994  1.00  0.00    -0.126 C  
HETATM   13  C   UNL     1      -7.728   3.681  69.222  1.00  0.00    -0.052 C  
HETATM   14  O   UNL     1      -7.307   2.566  69.488  1.00  0.00    -0.043 OA 
HETATM   15  C   UNL     1      -7.159   4.474  68.135  1.00  0.00    -0.057 A  
HETATM   16  C   UNL     1      -6.071   4.005  67.405  1.00  0.00    -0.028 A  
HETATM   17  C   UNL     1      -5.563   4.737  66.338  1.00  0.00    -0.017 A  
HETATM   18  O   UNL     1      -5.456   2.810  67.661  1.00  0.00    -0.016 OA 
HETATM   19  C   UNL     1      -6.149   5.946  65.975  1.00  0.00    -0.032 A  
HETATM   20  H   UNL     1      -4.714   2.489  67.162  1.00  0.00     0.000 HD 
HETATM   21  C   UNL     1      -7.238   6.433  66.735  1.00  0.00    -0.077 A  
HETATM   22  C   UNL     1      -7.730   5.709  67.837  1.00  0.00    -0.093 A  
HETATM   23  O   UNL     1      -8.772   6.243  68.579  1.00  0.00    -0.114 OA 
BRANCH  19  24
HETATM   24  O   UNL     1      -5.816   6.663  64.858  1.00  0.00    -0.029 OA 
BRANCH  24  25
HETATM   25  C   UNL     1      -6.264   8.035  64.679  1.00  0.00    -0.049 C  
HETATM   26  O   UNL     1      -6.206   8.853  65.858  1.00  0.00    -0.054 OA 
HETATM   27  C   UNL     1      -6.645  10.206  65.696  1.00  0.00    -0.112 C  
HETATM   28  H   UNL     1      -9.568   9.008  62.546  1.00  0.00     0.000 HD 
HETATM   29  C   UNL     1      -8.075  10.239  65.118  1.00  0.00    -0.151 C  
HETATM   30  O   UNL     1      -7.565   7.391  62.694  1.00  0.00    -0.096 OA 
HETATM   31  C   UNL     1      -8.154   9.474  63.811  1.00  0.00    -0.152 C  
HETATM   32  O   UNL     1      -8.608  11.546  64.848  1.00  0.00    -0.336 OA 
HETATM   33  H   UNL     1      -9.488  11.566  64.493  1.00  0.00     0.000 HD 
HETATM   34  H   UNL     1      -8.412   7.394  62.264  1.00  0.00     0.000 HD 
HETATM   35  O   UNL     1      -9.519   9.487  63.365  1.00  0.00    -0.017 OA 
HETATM   36  C   UNL     1      -7.646   8.041  63.977  1.00  0.00    -0.124 C  
BRANCH  27  37
HETATM   37  C   UNL     1      -6.758  10.934  67.053  1.00  0.00    -0.098 C  
BRANCH  37  38
HETATM   38  O   UNL     1      -8.039  11.401  67.458  1.00  0.00    -0.119 OA 
BRANCH  38  39
HETATM   39  C   UNL     1      -7.936  12.734  68.031  1.00  0.00    -0.160 C  
HETATM   40  C   UNL     1      -7.815  15.077  67.383  1.00  0.00    -0.200 C  
HETATM   41  O   UNL     1      -7.950  13.710  66.984  1.00  0.00    -0.091 OA 
HETATM   42  C   UNL     1      -6.597  15.312  68.295  1.00  0.00    -0.112 C  
HETATM   43  C   UNL     1      -9.123  15.617  67.953  1.00  0.00    -0.185 C  
HETATM   44  O   UNL     1      -5.387  15.109  67.545  1.00  0.00    -0.321 OA 
HETATM   45  C   UNL     1      -6.576  14.342  69.476  1.00  0.00    -0.141 C  
HETATM   46  O   UNL     1      -7.578  14.663  70.446  1.00  0.00    -0.216 OA 
HETATM   47  C   UNL     1      -6.703  12.899  68.972  1.00  0.00    -0.095 C  
HETATM   48  H   UNL     1      -4.635  15.254  68.107  1.00  0.00     0.000 HD 
HETATM   49  H   UNL     1      -7.565  14.060  71.180  1.00  0.00     0.000 HD 
HETATM   50  O   UNL     1      -6.777  11.983  70.075  1.00  0.00    -0.359 OA 
HETATM   51  H   UNL     1      -6.026  12.084  70.648  1.00  0.00     0.000 HD 
ENDBRANCH  38  39
ENDBRANCH  37  38
ENDBRANCH  27  37
ENDBRANCH  24  25
ENDBRANCH  19  24
ENDBRANCH   7  11
ENDBRANCH   2   3
TORSDOF 7
ENDMDL
MODEL      129
REMARK 921   NORMALIZED FREE ENERGY PREDICTED BY IDOCK:   -3.97 KCAL/MOL
REMARK 922        TOTAL FREE ENERGY PREDICTED BY IDOCK:   -7.53 KCAL/MOL
REMARK 923 INTER-LIGAND FREE ENERGY PREDICTED BY IDOCK:   -5.32 KCAL/MOL
REMARK 924 INTRA-LIGAND FREE ENERGY PREDICTED BY IDOCK:   -2.22 KCAL/MOL
REMARK 927      BINDING AFFINITY PREDICTED BY RF-SCORE:    0.00 PKD
ROOT
HETATM    1  C   UNL     1     -13.725   9.136  72.570  1.00  0.00    -0.435 C  
HETATM    2  O   UNL     1     -13.119   7.915  72.985  1.00  0.00     0.458 OA 
ENDROOT
BRANCH   2   3
HETATM    3  C   UNL     1     -12.337   7.300  72.041  1.00  0.00    -0.263 A  
HETATM    4  C   UNL     1     -11.107   6.830  72.496  1.00  0.00    -0.264 A  
HETATM    5  C   UNL     1     -10.206   6.205  71.636  1.00  0.00    -0.235 A  
HETATM    6  O   UNL     1     -10.744   6.993  73.806  1.00  0.00    -0.488 OA 
HETATM    7  C   UNL     1     -10.522   6.006  70.277  1.00  0.00    -0.305 A  
HETATM    8  H   UNL     1      -9.906   6.672  74.116  1.00  0.00     0.000 HD 
HETATM    9  C   UNL     1     -11.774   6.459  69.832  1.00  0.00    -0.309 A  
HETATM   10  C   UNL     1     -12.677   7.095  70.706  1.00  0.00    -0.133 A  
BRANCH   7  11
HETATM   11  C   UNL     1      -9.555   5.359  69.347  1.00  0.00    -0.149 C  
HETATM   12  C   UNL     1      -9.250   4.060  69.490  1.00  0.00    -0.220 C  
HETATM   13  C   UNL     1      -8.227   3.460  68.633  1.00  0.00    -0.068 C  
HETATM   14  O   UNL     1      -7.920   2.283  68.743  1.00  0.00    -0.052 OA 
HETATM   15  C   UNL     1      -7.578   4.331  67.656  1.00  0.00    -0.073 A  
HETATM   16  C   UNL     1      -6.541   3.858  66.858  1.00  0.00    -0.046 A  
HETATM   17  C   UNL     1      -5.958   4.672  65.893  1.00  0.00    -0.023 A  
HETATM   18  O   UNL     1      -6.049   2.584  66.946  1.00  0.00    -0.023 OA 
HETATM   19  C   UNL     1      -6.420   5.971  65.701  1.00  0.00    -0.043 A  
HETATM   20  H   UNL     1      -5.341   2.261  66.401  1.00  0.00     0.000 HD 
HETATM   21  C   UNL     1      -7.456   6.458  66.531  1.00  0.00    -0.086 A  
HETATM   22  C   UNL     1      -8.021   5.645  67.531  1.00  0.00    -0.102 A  
HETATM   23  O   UNL     1      -9.007   6.176  68.349  1.00  0.00    -0.117 OA 
BRANCH  19  24
HETATM   24  O   UNL     1      -6.013   6.795  64.686  1.00  0.00    -0.034 OA 
BRANCH  24  25
HETATM   25  C   UNL     1      -6.421   8.190  64.636  1.00  0.00    -0.064 C  
HETATM   26  O   UNL     1      -6.164   8.943  65.832  1.00  0.00    -0.054 OA 
HETATM   27  C   UNL     1      -6.561  10.318  65.795  1.00  0.00    -0.119 C  
HETATM   28  H   UNL     1      -9.944   9.393  63.038  1.00  0.00     0.000 HD 
HETATM   29  C   UNL     1      -8.056  10.434  65.427  1.00  0.00    -0.152 C  
HETATM   30  O   UNL     1      -8.013   7.698  62.826  1.00  0.00    -0.129 OA 
HETATM   31  C   UNL     1      -8.349   9.740  64.110  1.00  0.00    -0.168 C  
HETATM   32  O   UNL     1      -8.563  11.771  65.296  1.00  0.00    -0.306 OA 
HETATM   33  H   UNL     1      -9.482  11.842  65.069  1.00  0.00     0.000 HD 
HETATM   34  H   UNL     1      -8.910   7.754  62.521  1.00  0.00     0.000 HD 
HETATM   35  O   UNL     1      -9.761   9.827  63.863  1.00  0.00    -0.082 OA 
HETATM   36  C   UNL     1      -7.886   8.283  64.137  1.00  0.00    -0.145 C  
BRANCH  27  37
HETATM   37  C   UNL     1      -6.453  10.978  67.187  1.00  0.00    -0.084 C  
BRANCH  37  38
HETATM   38  O   UNL     1      -7.559  10.860  68.072  1.00  0.00    -0.088 OA 
BRANCH  38  39
HETATM   39  C   UNL     1      -7.140  10.267  69.333  1.00  0.00    -0.094 C  
HETATM   40  C   UNL     1      -5.142   9.550  70.525  1.00  0.00    -0.027 C  
HETATM   41  O   UNL     1      -5.714  10.155  69.361  1.00  0.00    -0.038 OA 
HETATM   42  C   UNL     1      -5.777   8.186  70.857  1.00  0.00    -0.033 C  
HETATM   43  C   UNL     1      -5.125  10.522  71.700  1.00  0.00    -0.058 C  
HETATM   44  O   UNL     1      -5.432   7.233  69.837  1.00  0.00    -0.022 OA 
HETATM   45  C   UNL     1      -7.302   8.269  70.916  1.00  0.00    -0.059 C  
HETATM   46  O   UNL     1      -7.753   8.955  72.087  1.00  0.00    -0.341 OA 
HETATM   47  C   UNL     1      -7.843   8.907  69.629  1.00  0.00    -0.090 C  
HETATM   48  H   UNL     1      -5.823   6.392  70.042  1.00  0.00     0.000 HD 
HETATM   49  H   UNL     1      -8.701   9.006  72.124  1.00  0.00     0.000 HD 
HETATM   50  O   UNL     1      -9.266   9.074  69.709  1.00  0.00    -0.154 OA 
HETATM   51  H   UNL     1      -9.694   8.245  69.889  1.00  0.00     0.000 HD 
ENDBRANCH  38  39
ENDBRANCH  37  38
ENDBRANCH  27  37
ENDBRANCH  24  25
ENDBRANCH  19  24
ENDBRANCH   7  11
ENDBRANCH   2   3
TORSDOF 7
ENDMDL
MODEL      130
REMARK 921   NORMALIZED FREE ENERGY PREDICTED BY IDOCK:   -3.75 KCAL/MOL
REMARK 922        TOTAL FREE ENERGY PREDICTED BY IDOCK:   -7.22 KCAL/MOL
REMARK 923 INTER-LIGAND FREE ENERGY PREDICTED BY IDOCK:   -9.27 KCAL/MOL
REMARK 924 INTRA-LIGAND FREE ENERGY PREDICTED BY IDOCK:    2.05 KCAL/MOL
REMARK 927      BINDING AFFINITY PREDICTED BY RF-SCORE:    0.00 PKD
ROOT
HETATM    1  C   UNL     1      -9.616   3.331  68.929  1.00  0.00    -0.032 C  
HETATM    2  O   UNL     1     -10.146   3.945  70.101  1.00  0.00    -0.067 OA 
ENDROOT
BRANCH   2   3
HETATM    3  C   UNL     1     -10.390   5.291  69.997  1.00  0.00    -0.295 A  
HETATM    4  C   UNL     1     -10.829   5.913  71.163  1.00  0.00    -0.269 A  
HETATM    5  C   UNL     1     -11.134   7.272  71.191  1.00  0.00    -0.275 A  
HETATM    6  O   UNL     1     -10.993   5.190  72.314  1.00  0.00    -0.211 OA 
HETATM    7  C   UNL     1     -10.984   8.071  70.039  1.00  0.00    -0.202 A  
HETATM    8  H   UNL     1     -11.293   5.613  73.110  1.00  0.00     0.000 HD 
HETATM    9  C   UNL     1     -10.515   7.442  68.874  1.00  0.00    -0.213 A  
HETATM   10  C   UNL     1     -10.216   6.066  68.853  1.00  0.00    -0.246 A  
BRANCH   7  11
HETATM   11  C   UNL     1     -11.329   9.519  70.054  1.00  0.00    -0.166 C  
HETATM   12  C   UNL     1     -11.936  10.055  71.125  1.00  0.00    -0.484 C  
HETATM   13  C   UNL     1     -12.358  11.455  71.091  1.00  0.00    -0.299 C  
HETATM   14  O   UNL     1     -12.920  11.971  72.045  1.00  0.00    -0.385 OA 
HETATM   15  C   UNL     1     -12.095  12.203  69.864  1.00  0.00    -0.324 A  
HETATM   16  C   UNL     1     -12.534  13.516  69.721  1.00  0.00    -0.098 A  
HETATM   17  C   UNL     1     -12.239  14.244  68.573  1.00  0.00    -0.194 A  
HETATM   18  O   UNL     1     -13.248  14.176  70.684  1.00  0.00    -0.302 OA 
HETATM   19  C   UNL     1     -11.482  13.670  67.556  1.00  0.00    -0.329 A  
HETATM   20  H   UNL     1     -13.548  15.072  70.586  1.00  0.00     0.000 HD 
HETATM   21  C   UNL     1     -11.059  12.328  67.692  1.00  0.00    -0.318 A  
HETATM   22  C   UNL     1     -11.388  11.580  68.838  1.00  0.00    -0.268 A  
HETATM   23  O   UNL     1     -10.988  10.255  68.912  1.00  0.00    -0.219 OA 
BRANCH  19  24
HETATM   24  O   UNL     1     -11.019  14.348  66.460  1.00  0.00    -0.305 OA 
BRANCH  24  25
HETATM   25  C   UNL     1     -10.448  15.680  66.582  1.00  0.00    -0.301 C  
HETATM   26  O   UNL     1      -9.043  15.770  66.295  1.00  0.00    -0.282 OA 
HETATM   27  C   UNL     1      -8.469  17.076  66.411  1.00  0.00    -0.283 C  
HETATM   28  H   UNL     1     -11.341  18.183  69.640  1.00  0.00     0.000 HD 
HETATM   29  C   UNL     1      -8.744  17.658  67.813  1.00  0.00    -0.232 C  
HETATM   30  O   UNL     1     -12.284  16.371  68.065  1.00  0.00     0.295 OA 
HETATM   31  C   UNL     1     -10.230  17.680  68.113  1.00  0.00    -0.371 C  
HETATM   32  O   UNL     1      -8.271  18.996  68.036  1.00  0.00    -0.282 OA 
HETATM   33  H   UNL     1      -8.440  19.354  68.899  1.00  0.00     0.000 HD 
HETATM   34  H   UNL     1     -12.531  16.746  68.902  1.00  0.00     0.000 HD 
HETATM   35  O   UNL     1     -10.410  18.168  69.452  1.00  0.00    -0.162 OA 
HETATM   36  C   UNL     1     -10.850  16.293  67.948  1.00  0.00    -0.330 C  
BRANCH  27  37
HETATM   37  C   UNL     1      -6.929  17.031  66.305  1.00  0.00    -0.170 C  
BRANCH  37  38
HETATM   38  O   UNL     1      -6.173  17.119  67.505  1.00  0.00    -0.131 OA 
BRANCH  38  39
HETATM   39  C   UNL     1      -6.018  15.804  68.106  1.00  0.00    -0.127 C  
HETATM   40  C   UNL     1      -6.580  13.464  67.731  1.00  0.00    -0.164 C  
HETATM   41  O   UNL     1      -6.612  14.815  67.259  1.00  0.00    -0.298 OA 
HETATM   42  C   UNL     1      -7.133  13.322  69.162  1.00  0.00     0.005 C  
HETATM   43  C   UNL     1      -5.198  12.848  67.543  1.00  0.00    -0.046 C  
HETATM   44  O   UNL     1      -8.545  13.595  69.161  1.00  0.00    -0.334 OA 
HETATM   45  C   UNL     1      -6.473  14.307  70.126  1.00  0.00    -0.110 C  
HETATM   46  O   UNL     1      -5.126  13.934  70.429  1.00  0.00    -0.093 OA 
HETATM   47  C   UNL     1      -6.565  15.732  69.565  1.00  0.00    -0.183 C  
HETATM   48  H   UNL     1      -8.887  13.507  70.043  1.00  0.00     0.000 HD 
HETATM   49  H   UNL     1      -4.715  14.546  71.028  1.00  0.00     0.000 HD 
HETATM   50  O   UNL     1      -5.869  16.656  70.417  1.00  0.00    -0.172 OA 
HETATM   51  H   UNL     1      -6.202  16.613  71.305  1.00  0.00     0.000 HD 
ENDBRANCH  38  39
ENDBRANCH  37  38
ENDBRANCH  27  37
ENDBRANCH  24  25
ENDBRANCH  19  24
ENDBRANCH   7  11
ENDBRANCH   2   3
TORSDOF 7
ENDMDL
MODEL      131
REMARK 921   NORMALIZED FREE ENERGY PREDICTED BY IDOCK:   -3.66 KCAL/MOL
REMARK 922        TOTAL FREE ENERGY PREDICTED BY IDOCK:   -7.09 KCAL/MOL
REMARK 923 INTER-LIGAND FREE ENERGY PREDICTED BY IDOCK:   -7.19 KCAL/MOL
REMARK 924 INTRA-LIGAND FREE ENERGY PREDICTED BY IDOCK:    0.10 KCAL/MOL
REMARK 927      BINDING AFFINITY PREDICTED BY RF-SCORE:    0.00 PKD
ROOT
HETATM    1  C   UNL     1     -10.909   2.241  63.560  1.00  0.00    -0.141 C  
HETATM    2  O   UNL     1      -9.614   2.512  64.089  1.00  0.00    -0.136 OA 
ENDROOT
BRANCH   2   3
HETATM    3  C   UNL     1      -9.429   3.788  64.558  1.00  0.00    -0.163 A  
HETATM    4  C   UNL     1      -8.438   4.525  63.914  1.00  0.00    -0.122 A  
HETATM    5  C   UNL     1      -8.132   5.827  64.306  1.00  0.00    -0.127 A  
HETATM    6  O   UNL     1      -7.720   3.973  62.887  1.00  0.00    -0.059 OA 
HETATM    7  C   UNL     1      -8.836   6.451  65.355  1.00  0.00     0.026 A  
HETATM    8  H   UNL     1      -7.044   4.475  62.448  1.00  0.00     0.000 HD 
HETATM    9  C   UNL     1      -9.852   5.711  65.981  1.00  0.00    -0.056 A  
HETATM   10  C   UNL     1     -10.150   4.393  65.584  1.00  0.00    -0.256 A  
BRANCH   7  11
HETATM   11  C   UNL     1      -8.500   7.834  65.794  1.00  0.00    -0.144 C  
HETATM   12  C   UNL     1      -7.491   8.040  66.655  1.00  0.00    -0.089 C  
HETATM   13  C   UNL     1      -7.232   9.391  67.154  1.00  0.00    -0.087 C  
HETATM   14  O   UNL     1      -6.328   9.612  67.945  1.00  0.00    -0.056 OA 
HETATM   15  C   UNL     1      -8.110  10.459  66.680  1.00  0.00    -0.122 A  
HETATM   16  C   UNL     1      -7.981  11.756  67.166  1.00  0.00    -0.166 A  
HETATM   17  C   UNL     1      -8.782  12.782  66.677  1.00  0.00    -0.065 A  
HETATM   18  O   UNL     1      -7.063  12.112  68.116  1.00  0.00    -0.075 OA 
HETATM   19  C   UNL     1      -9.717  12.525  65.678  1.00  0.00    -0.158 A  
HETATM   20  H   UNL     1      -6.975  12.998  68.448  1.00  0.00     0.000 HD 
HETATM   21  C   UNL     1      -9.865  11.200  65.205  1.00  0.00    -0.307 A  
HETATM   22  C   UNL     1      -9.078  10.156  65.725  1.00  0.00    -0.171 A  
HETATM   23  O   UNL     1      -9.284   8.866  65.261  1.00  0.00    -0.189 OA 
BRANCH  19  24
HETATM   24  O   UNL     1     -10.446  13.488  65.034  1.00  0.00    -0.335 OA 
BRANCH  24  25
HETATM   25  C   UNL     1     -10.997  14.625  65.753  1.00  0.00    -0.330 C  
HETATM   26  O   UNL     1     -10.419  15.897  65.417  1.00  0.00    -0.373 OA 
HETATM   27  C   UNL     1     -10.953  17.025  66.119  1.00  0.00     0.176 C  
HETATM   28  H   UNL     1     -11.800  14.536  69.723  1.00  0.00     0.000 HD 
HETATM   29  C   UNL     1     -10.855  16.803  67.642  1.00  0.00    -0.252 C  
HETATM   30  O   UNL     1     -11.798  13.148  67.550  1.00  0.00    -0.355 OA 
HETATM   31  C   UNL     1     -11.550  15.519  68.053  1.00  0.00    -0.268 C  
HETATM   32  O   UNL     1     -11.418  17.841  68.461  1.00  0.00     0.223 OA 
HETATM   33  H   UNL     1     -11.357  17.704  69.398  1.00  0.00     0.000 HD 
HETATM   34  H   UNL     1     -11.804  12.962  68.481  1.00  0.00     0.000 HD 
HETATM   35  O   UNL     1     -11.364  15.340  69.466  1.00  0.00    -0.250 OA 
HETATM   36  C   UNL     1     -11.007  14.321  67.273  1.00  0.00    -0.297 C  
BRANCH  27  37
HETATM   37  C   UNL     1     -10.123  18.301  65.859  1.00  0.00    -0.160 C  
BRANCH  37  38
HETATM   38  O   UNL     1      -9.445  18.894  66.958  1.00  0.00    -0.297 OA 
BRANCH  38  39
HETATM   39  C   UNL     1      -8.131  18.295  67.129  1.00  0.00    -0.225 C  
HETATM   40  C   UNL     1      -6.825  16.999  68.724  1.00  0.00    -0.199 C  
HETATM   41  O   UNL     1      -8.073  17.612  68.385  1.00  0.00    -0.267 OA 
HETATM   42  C   UNL     1      -5.635  17.971  68.606  1.00  0.00    -0.175 C  
HETATM   43  C   UNL     1      -6.628  15.692  67.963  1.00  0.00    -0.152 C  
HETATM   44  O   UNL     1      -5.743  18.987  69.618  1.00  0.00    -0.216 OA 
HETATM   45  C   UNL     1      -5.607  18.672  67.249  1.00  0.00    -0.138 C  
HETATM   46  O   UNL     1      -5.205  17.786  66.200  1.00  0.00    -0.157 OA 
HETATM   47  C   UNL     1      -6.968  19.321  66.964  1.00  0.00    -0.198 C  
HETATM   48  H   UNL     1      -5.009  19.587  69.546  1.00  0.00     0.000 HD 
HETATM   49  H   UNL     1      -5.187  18.221  65.356  1.00  0.00     0.000 HD 
HETATM   50  O   UNL     1      -6.985  19.905  65.653  1.00  0.00    -0.279 OA 
HETATM   51  H   UNL     1      -6.276  20.530  65.553  1.00  0.00     0.000 HD 
ENDBRANCH  38  39
ENDBRANCH  37  38
ENDBRANCH  27  37
ENDBRANCH  24  25
ENDBRANCH  19  24
ENDBRANCH   7  11
ENDBRANCH   2   3
TORSDOF 7
ENDMDL
MODEL      132
REMARK 921   NORMALIZED FREE ENERGY PREDICTED BY IDOCK:   -3.52 KCAL/MOL
REMARK 922        TOTAL FREE ENERGY PREDICTED BY IDOCK:   -6.89 KCAL/MOL
REMARK 923 INTER-LIGAND FREE ENERGY PREDICTED BY IDOCK:   -6.01 KCAL/MOL
REMARK 924 INTRA-LIGAND FREE ENERGY PREDICTED BY IDOCK:   -0.88 KCAL/MOL
REMARK 927      BINDING AFFINITY PREDICTED BY RF-SCORE:    0.00 PKD
ROOT
HETATM    1  C   UNL     1     -12.761  11.986  63.365  1.00  0.00    -0.398 C  
HETATM    2  O   UNL     1     -11.548  12.724  63.242  1.00  0.00    -0.498 OA 
ENDROOT
BRANCH   2   3
HETATM    3  C   UNL     1     -10.781  12.782  64.377  1.00  0.00    -0.376 A  
HETATM    4  C   UNL     1     -10.536  14.061  64.870  1.00  0.00    -0.424 A  
HETATM    5  C   UNL     1      -9.753  14.265  66.004  1.00  0.00    -0.312 A  
HETATM    6  O   UNL     1     -11.046  15.160  64.231  1.00  0.00    -0.649 OA 
HETATM    7  C   UNL     1      -9.201  13.175  66.708  1.00  0.00    -0.232 A  
HETATM    8  H   UNL     1     -10.879  16.032  64.567  1.00  0.00     0.000 HD 
HETATM    9  C   UNL     1      -9.475  11.887  66.220  1.00  0.00    -0.238 A  
HETATM   10  C   UNL     1     -10.262  11.691  65.069  1.00  0.00    -0.321 A  
BRANCH   7  11
HETATM   11  C   UNL     1      -8.345  13.386  67.907  1.00  0.00    -0.166 C  
HETATM   12  C   UNL     1      -8.054  14.630  68.316  1.00  0.00    -0.143 C  
HETATM   13  C   UNL     1      -7.133  14.825  69.437  1.00  0.00    -0.170 C  
HETATM   14  O   UNL     1      -6.840  15.945  69.828  1.00  0.00    -0.181 OA 
HETATM   15  C   UNL     1      -6.568  13.628  70.055  1.00  0.00     0.081 A  
HETATM   16  C   UNL     1      -5.625  13.729  71.073  1.00  0.00    -0.208 A  
HETATM   17  C   UNL     1      -5.126  12.590  71.695  1.00  0.00    -0.078 A  
HETATM   18  O   UNL     1      -5.153  14.925  71.541  1.00  0.00    -0.145 OA 
HETATM   19  C   UNL     1      -5.578  11.329  71.316  1.00  0.00     0.120 A  
HETATM   20  H   UNL     1      -4.510  14.994  72.237  1.00  0.00     0.000 HD 
HETATM   21  C   UNL     1      -6.517  11.228  70.262  1.00  0.00     0.002 A  
HETATM   22  C   UNL     1      -6.995  12.380  69.609  1.00  0.00     0.249 A  
HETATM   23  O   UNL     1      -7.883  12.232  68.555  1.00  0.00    -0.131 OA 
BRANCH  19  24
HETATM   24  O   UNL     1      -5.259  10.166  71.962  1.00  0.00    -0.170 OA 
BRANCH  24  25
HETATM   25  C   UNL     1      -6.060   8.964  71.795  1.00  0.00    -0.073 C  
HETATM   26  O   UNL     1      -6.412   8.650  70.438  1.00  0.00    -0.034 OA 
HETATM   27  C   UNL     1      -7.202   7.469  70.260  1.00  0.00    -0.064 C  
HETATM   28  H   UNL     1      -9.171   8.044  74.222  1.00  0.00     0.000 HD 
HETATM   29  C   UNL     1      -8.483   7.548  71.117  1.00  0.00    -0.117 C  
HETATM   30  O   UNL     1      -6.823   9.104  74.129  1.00  0.00    -0.367 OA 
HETATM   31  C   UNL     1      -8.149   7.773  72.579  1.00  0.00    -0.122 C  
HETATM   32  O   UNL     1      -9.334   6.391  71.075  1.00  0.00    -0.163 OA 
HETATM   33  H   UNL     1     -10.122   6.440  71.602  1.00  0.00     0.000 HD 
HETATM   34  H   UNL     1      -7.564   9.133  74.722  1.00  0.00     0.000 HD 
HETATM   35  O   UNL     1      -9.381   7.903  73.306  1.00  0.00    -0.245 OA 
HETATM   36  C   UNL     1      -7.271   9.011  72.763  1.00  0.00     0.463 C  
BRANCH  27  37
HETATM   37  C   UNL     1      -7.714   7.341  68.809  1.00  0.00    -0.119 C  
BRANCH  37  38
HETATM   38  O   UNL     1      -7.564   6.088  68.154  1.00  0.00    -0.090 OA 
BRANCH  38  39
HETATM   39  C   UNL     1      -7.004   6.274  66.824  1.00  0.00    -0.068 C  
HETATM   40  C   UNL     1      -6.726   7.969  65.098  1.00  0.00    -0.051 C  
HETATM   41  O   UNL     1      -7.188   7.632  66.410  1.00  0.00    -0.075 OA 
HETATM   42  C   UNL     1      -7.270   7.018  64.015  1.00  0.00    -0.069 C  
HETATM   43  C   UNL     1      -5.210   8.129  65.072  1.00  0.00    -0.032 C  
HETATM   44  O   UNL     1      -8.689   7.205  63.879  1.00  0.00    -0.186 OA 
HETATM   45  C   UNL     1      -7.028   5.552  64.373  1.00  0.00    -0.048 C  
HETATM   46  O   UNL     1      -5.651   5.192  64.239  1.00  0.00    -0.016 OA 
HETATM   47  C   UNL     1      -7.567   5.261  65.780  1.00  0.00    -0.083 C  
HETATM   48  H   UNL     1      -9.024   6.618  63.210  1.00  0.00     0.000 HD 
HETATM   49  H   UNL     1      -5.500   4.280  64.462  1.00  0.00     0.000 HD 
HETATM   50  O   UNL     1      -7.266   3.911  66.166  1.00  0.00    -0.066 OA 
HETATM   51  H   UNL     1      -7.608   3.294  65.530  1.00  0.00     0.000 HD 
ENDBRANCH  38  39
ENDBRANCH  37  38
ENDBRANCH  27  37
ENDBRANCH  24  25
ENDBRANCH  19  24
ENDBRANCH   7  11
ENDBRANCH   2   3
TORSDOF 7
ENDMDL
MODEL      133
REMARK 921   NORMALIZED FREE ENERGY PREDICTED BY IDOCK:   -3.51 KCAL/MOL
REMARK 922        TOTAL FREE ENERGY PREDICTED BY IDOCK:   -6.87 KCAL/MOL
REMARK 923 INTER-LIGAND FREE ENERGY PREDICTED BY IDOCK:   -5.71 KCAL/MOL
REMARK 924 INTRA-LIGAND FREE ENERGY PREDICTED BY IDOCK:   -1.16 KCAL/MOL
REMARK 927      BINDING AFFINITY PREDICTED BY RF-SCORE:    0.00 PKD
ROOT
HETATM    1  C   UNL     1     -10.352  17.461  67.367  1.00  0.00    -0.343 C  
HETATM    2  O   UNL     1     -11.267  16.436  66.989  1.00  0.00    -0.024 OA 
ENDROOT
BRANCH   2   3
HETATM    3  C   UNL     1     -11.071  15.223  67.599  1.00  0.00    -0.323 A  
HETATM    4  C   UNL     1     -10.267  14.325  66.903  1.00  0.00    -0.266 A  
HETATM    5  C   UNL     1     -10.005  13.049  67.398  1.00  0.00    -0.228 A  
HETATM    6  O   UNL     1      -9.728  14.671  65.692  1.00  0.00    -0.424 OA 
HETATM    7  C   UNL     1     -10.529  12.634  68.639  1.00  0.00    -0.224 A  
HETATM    8  H   UNL     1      -9.179  14.058  65.217  1.00  0.00     0.000 HD 
HETATM    9  C   UNL     1     -11.317  13.555  69.348  1.00  0.00    -0.293 A  
HETATM   10  C   UNL     1     -11.583  14.840  68.836  1.00  0.00    -0.340 A  
BRANCH   7  11
HETATM   11  C   UNL     1     -10.272  11.265  69.165  1.00  0.00    -0.100 C  
HETATM   12  C   UNL     1     -11.287  10.522  69.633  1.00  0.00    -0.345 C  
HETATM   13  C   UNL     1     -11.011   9.218  70.236  1.00  0.00    -0.247 C  
HETATM   14  O   UNL     1     -11.911   8.521  70.679  1.00  0.00    -0.227 OA 
HETATM   15  C   UNL     1      -9.613   8.795  70.302  1.00  0.00    -0.198 A  
HETATM   16  C   UNL     1      -9.258   7.605  70.930  1.00  0.00    -0.149 A  
HETATM   17  C   UNL     1      -7.935   7.178  70.948  1.00  0.00    -0.096 A  
HETATM   18  O   UNL     1     -10.164   6.780  71.538  1.00  0.00    -0.193 OA 
HETATM   19  C   UNL     1      -6.947   7.931  70.319  1.00  0.00    -0.049 A  
HETATM   20  H   UNL     1      -9.921   5.967  71.967  1.00  0.00     0.000 HD 
HETATM   21  C   UNL     1      -7.307   9.153  69.704  1.00  0.00    -0.065 A  
HETATM   22  C   UNL     1      -8.641   9.602  69.717  1.00  0.00    -0.199 A  
HETATM   23  O   UNL     1      -8.942  10.825  69.138  1.00  0.00    -0.159 OA 
BRANCH  19  24
HETATM   24  O   UNL     1      -5.651   7.525  70.157  1.00  0.00    -0.023 OA 
BRANCH  24  25
HETATM   25  C   UNL     1      -5.280   6.579  69.116  1.00  0.00    -0.013 C  
HETATM   26  O   UNL     1      -5.640   6.968  67.781  1.00  0.00    -0.015 OA 
HETATM   27  C   UNL     1      -5.281   6.045  66.748  1.00  0.00    -0.005 C  
HETATM   28  H   UNL     1      -5.771   2.576  69.511  1.00  0.00     0.000 HD 
HETATM   29  C   UNL     1      -5.866   4.650  67.051  1.00  0.00    -0.022 C  
HETATM   30  O   UNL     1      -5.181   4.753  70.762  1.00  0.00    -0.003 OA 
HETATM   31  C   UNL     1      -5.420   4.154  68.413  1.00  0.00    -0.013 C  
HETATM   32  O   UNL     1      -5.523   3.614  66.116  1.00  0.00    -0.016 OA 
HETATM   33  H   UNL     1      -5.883   2.755  66.302  1.00  0.00     0.000 HD 
HETATM   34  H   UNL     1      -5.480   3.884  71.003  1.00  0.00     0.000 HD 
HETATM   35  O   UNL     1      -6.051   2.887  68.658  1.00  0.00    -0.024 OA 
HETATM   36  C   UNL     1      -5.767   5.160  69.510  1.00  0.00    -0.016 C  
BRANCH  27  37
HETATM   37  C   UNL     1      -5.903   6.440  65.391  1.00  0.00    -0.022 C  
BRANCH  37  38
HETATM   38  O   UNL     1      -7.275   6.809  65.366  1.00  0.00    -0.071 OA 
BRANCH  38  39
HETATM   39  C   UNL     1      -8.117   5.656  65.642  1.00  0.00    -0.120 C  
HETATM   40  C   UNL     1      -9.254   3.819  64.518  1.00  0.00    -0.144 C  
HETATM   41  O   UNL     1      -8.398   4.962  64.422  1.00  0.00    -0.120 OA 
HETATM   42  C   UNL     1     -10.571   4.124  65.256  1.00  0.00    -0.087 C  
HETATM   43  C   UNL     1      -8.503   2.613  65.073  1.00  0.00    -0.096 C  
HETATM   44  O   UNL     1     -11.371   5.018  64.464  1.00  0.00     0.223 OA 
HETATM   45  C   UNL     1     -10.323   4.798  66.605  1.00  0.00    -0.214 C  
HETATM   46  O   UNL     1      -9.797   3.882  67.569  1.00  0.00    -0.155 OA 
HETATM   47  C   UNL     1      -9.418   6.023  66.421  1.00  0.00    -0.150 C  
HETATM   48  H   UNL     1     -12.183   5.207  64.919  1.00  0.00     0.000 HD 
HETATM   49  H   UNL     1      -9.643   4.300  68.408  1.00  0.00     0.000 HD 
HETATM   50  O   UNL     1      -9.102   6.613  67.691  1.00  0.00    -0.115 OA 
HETATM   51  H   UNL     1      -9.894   6.837  68.166  1.00  0.00     0.000 HD 
ENDBRANCH  38  39
ENDBRANCH  37  38
ENDBRANCH  27  37
ENDBRANCH  24  25
ENDBRANCH  19  24
ENDBRANCH   7  11
ENDBRANCH   2   3
TORSDOF 7
ENDMDL
MODEL      134
REMARK 921   NORMALIZED FREE ENERGY PREDICTED BY IDOCK:   -3.37 KCAL/MOL
REMARK 922        TOTAL FREE ENERGY PREDICTED BY IDOCK:   -6.68 KCAL/MOL
REMARK 923 INTER-LIGAND FREE ENERGY PREDICTED BY IDOCK:   -5.90 KCAL/MOL
REMARK 924 INTRA-LIGAND FREE ENERGY PREDICTED BY IDOCK:   -0.77 KCAL/MOL
REMARK 927      BINDING AFFINITY PREDICTED BY RF-SCORE:    0.00 PKD
ROOT
HETATM    1  C   UNL     1     -13.244  12.318  63.298  1.00  0.00     0.520 C  
HETATM    2  O   UNL     1     -11.834  12.357  63.102  1.00  0.00    -0.410 OA 
ENDROOT
BRANCH   2   3
HETATM    3  C   UNL     1     -11.080  12.130  64.225  1.00  0.00    -0.346 A  
HETATM    4  C   UNL     1     -10.606  13.270  64.869  1.00  0.00    -0.366 A  
HETATM    5  C   UNL     1      -9.810  13.182  66.010  1.00  0.00    -0.266 A  
HETATM    6  O   UNL     1     -10.897  14.515  64.379  1.00  0.00    -0.614 OA 
HETATM    7  C   UNL     1      -9.477  11.930  66.565  1.00  0.00    -0.226 A  
HETATM    8  H   UNL     1     -10.573  15.293  64.818  1.00  0.00     0.000 HD 
HETATM    9  C   UNL     1      -9.981  10.786  65.925  1.00  0.00    -0.304 A  
HETATM   10  C   UNL     1     -10.779  10.884  64.769  1.00  0.00    -0.248 A  
BRANCH   7  11
HETATM   11  C   UNL     1      -8.609  11.827  67.769  1.00  0.00    -0.151 C  
HETATM   12  C   UNL     1      -7.957  12.908  68.224  1.00  0.00    -0.151 C  
HETATM   13  C   UNL     1      -7.031  12.774  69.349  1.00  0.00     0.110 C  
HETATM   14  O   UNL     1      -6.416  13.737  69.781  1.00  0.00    -0.125 OA 
HETATM   15  C   UNL     1      -6.861  11.440  69.920  1.00  0.00     0.038 A  
HETATM   16  C   UNL     1      -5.942  11.213  70.940  1.00  0.00     0.085 A  
HETATM   17  C   UNL     1      -5.818   9.954  71.517  1.00  0.00     0.045 A  
HETATM   18  O   UNL     1      -5.133  12.191  71.451  1.00  0.00    -0.184 OA 
HETATM   19  C   UNL     1      -6.627   8.905  71.092  1.00  0.00    -0.077 A  
HETATM   20  H   UNL     1      -4.506  12.036  72.147  1.00  0.00     0.000 HD 
HETATM   21  C   UNL     1      -7.543   9.132  70.038  1.00  0.00    -0.080 A  
HETATM   22  C   UNL     1      -7.643  10.397  69.429  1.00  0.00    -0.140 A  
HETATM   23  O   UNL     1      -8.525  10.564  68.372  1.00  0.00    -0.117 OA 
BRANCH  19  24
HETATM   24  O   UNL     1      -6.682   7.677  71.693  1.00  0.00    -0.045 OA 
BRANCH  24  25
HETATM   25  C   UNL     1      -7.871   6.844  71.604  1.00  0.00    -0.100 C  
HETATM   26  O   UNL     1      -8.666   7.040  70.423  1.00  0.00    -0.144 OA 
HETATM   27  C   UNL     1      -9.839   6.227  70.324  1.00  0.00    -0.168 C  
HETATM   28  H   UNL     1     -10.321   6.166  74.758  1.00  0.00     0.000 HD 
HETATM   29  C   UNL     1     -10.724   6.409  71.574  1.00  0.00    -0.238 C  
HETATM   30  O   UNL     1      -7.869   6.515  74.042  1.00  0.00    -0.096 OA 
HETATM   31  C   UNL     1      -9.948   6.104  72.842  1.00  0.00    -0.174 C  
HETATM   32  O   UNL     1     -11.907   5.594  71.625  1.00  0.00     0.040 OA 
HETATM   33  H   UNL     1     -12.451   5.707  72.394  1.00  0.00     0.000 HD 
HETATM   34  H   UNL     1      -8.360   6.578  74.852  1.00  0.00     0.000 HD 
HETATM   35  O   UNL     1     -10.807   6.357  73.965  1.00  0.00    -0.134 OA 
HETATM   36  C   UNL     1      -8.674   6.945  72.926  1.00  0.00    -0.122 C  
BRANCH  27  37
HETATM   37  C   UNL     1     -10.737   6.666  69.146  1.00  0.00    -0.264 C  
BRANCH  37  38
HETATM   38  O   UNL     1     -10.112   6.983  67.910  1.00  0.00    -0.154 OA 
BRANCH  38  39
HETATM   39  C   UNL     1      -9.528   5.791  67.315  1.00  0.00    -0.114 C  
HETATM   40  C   UNL     1      -7.392   4.890  66.569  1.00  0.00    -0.082 C  
HETATM   41  O   UNL     1      -8.114   5.964  67.180  1.00  0.00    -0.102 OA 
HETATM   42  C   UNL     1      -7.995   4.465  65.216  1.00  0.00    -0.101 C  
HETATM   43  C   UNL     1      -7.194   3.735  67.544  1.00  0.00    -0.063 C  
HETATM   44  O   UNL     1      -7.812   5.518  64.255  1.00  0.00    -0.095 OA 
HETATM   45  C   UNL     1      -9.495   4.192  65.323  1.00  0.00    -0.173 C  
HETATM   46  O   UNL     1      -9.765   2.972  66.020  1.00  0.00    -0.393 OA 
HETATM   47  C   UNL     1     -10.202   5.392  65.966  1.00  0.00    -0.069 C  
HETATM   48  H   UNL     1      -8.184   5.256  63.421  1.00  0.00     0.000 HD 
HETATM   49  H   UNL     1     -10.698   2.802  66.087  1.00  0.00     0.000 HD 
HETATM   50  O   UNL     1     -11.598   5.113  66.156  1.00  0.00    -0.105 OA 
HETATM   51  H   UNL     1     -12.008   4.869  65.335  1.00  0.00     0.000 HD 
ENDBRANCH  38  39
ENDBRANCH  37  38
ENDBRANCH  27  37
ENDBRANCH  24  25
ENDBRANCH  19  24
ENDBRANCH   7  11
ENDBRANCH   2   3
TORSDOF 7
ENDMDL
MODEL      135
REMARK 921   NORMALIZED FREE ENERGY PREDICTED BY IDOCK:   -3.30 KCAL/MOL
REMARK 922        TOTAL FREE ENERGY PREDICTED BY IDOCK:   -6.58 KCAL/MOL
REMARK 923 INTER-LIGAND FREE ENERGY PREDICTED BY IDOCK:   -5.29 KCAL/MOL
REMARK 924 INTRA-LIGAND FREE ENERGY PREDICTED BY IDOCK:   -1.29 KCAL/MOL
REMARK 927      BINDING AFFINITY PREDICTED BY RF-SCORE:    0.00 PKD
ROOT
HETATM    1  C   UNL     1     -11.924  16.954  71.196  1.00  0.00     1.388 C  
HETATM    2  O   UNL     1     -10.981  15.903  71.389  1.00  0.00    -0.173 OA 
ENDROOT
BRANCH   2   3
HETATM    3  C   UNL     1     -10.647  15.202  70.258  1.00  0.00    -0.166 A  
HETATM    4  C   UNL     1     -11.203  13.929  70.157  1.00  0.00     0.104 A  
HETATM    5  C   UNL     1     -10.928  13.101  69.070  1.00  0.00    -0.241 A  
HETATM    6  O   UNL     1     -12.021  13.449  71.144  1.00  0.00    -0.421 OA 
HETATM    7  C   UNL     1     -10.093  13.538  68.021  1.00  0.00    -0.244 A  
HETATM    8  H   UNL     1     -12.400  12.581  71.075  1.00  0.00     0.000 HD 
HETATM    9  C   UNL     1      -9.559  14.832  68.118  1.00  0.00    -0.209 A  
HETATM   10  C   UNL     1      -9.836  15.660  69.223  1.00  0.00    -0.269 A  
BRANCH   7  11
HETATM   11  C   UNL     1      -9.777  12.651  66.868  1.00  0.00    -0.234 C  
HETATM   12  C   UNL     1     -10.262  12.934  65.648  1.00  0.00    -0.295 C  
HETATM   13  C   UNL     1     -10.025  12.004  64.543  1.00  0.00    -0.213 C  
HETATM   14  O   UNL     1     -10.460  12.228  63.424  1.00  0.00    -0.435 OA 
HETATM   15  C   UNL     1      -9.265  10.792  64.840  1.00  0.00    -0.243 A  
HETATM   16  C   UNL     1      -9.064   9.820  63.865  1.00  0.00    -0.233 A  
HETATM   17  C   UNL     1      -8.298   8.692  64.133  1.00  0.00    -0.133 A  
HETATM   18  O   UNL     1      -9.572   9.914  62.598  1.00  0.00    -0.483 OA 
HETATM   19  C   UNL     1      -7.705   8.528  65.382  1.00  0.00    -0.095 A  
HETATM   20  H   UNL     1      -9.435   9.251  61.932  1.00  0.00     0.000 HD 
HETATM   21  C   UNL     1      -7.932   9.505  66.380  1.00  0.00    -0.111 A  
HETATM   22  C   UNL     1      -8.737  10.629  66.118  1.00  0.00    -0.170 A  
HETATM   23  O   UNL     1      -8.967  11.541  67.138  1.00  0.00    -0.158 OA 
BRANCH  19  24
HETATM   24  O   UNL     1      -6.820   7.532  65.694  1.00  0.00    -0.054 OA 
BRANCH  24  25
HETATM   25  C   UNL     1      -6.992   6.713  66.883  1.00  0.00    -0.067 C  
HETATM   26  O   UNL     1      -6.591   7.335  68.115  1.00  0.00    -0.046 OA 
HETATM   27  C   UNL     1      -6.755   6.539  69.293  1.00  0.00    -0.052 C  
HETATM   28  H   UNL     1      -6.022   2.782  67.004  1.00  0.00     0.000 HD 
HETATM   29  C   UNL     1      -6.019   5.193  69.136  1.00  0.00    -0.021 C  
HETATM   30  O   UNL     1      -6.972   4.665  65.521  1.00  0.00    -0.060 OA 
HETATM   31  C   UNL     1      -6.493   4.452  67.900  1.00  0.00    -0.038 C  
HETATM   32  O   UNL     1      -6.160   4.273  70.231  1.00  0.00    -0.017 OA 
HETATM   33  H   UNL     1      -5.707   3.445  70.134  1.00  0.00     0.000 HD 
HETATM   34  H   UNL     1      -6.582   3.811  65.377  1.00  0.00     0.000 HD 
HETATM   35  O   UNL     1      -5.724   3.246  67.778  1.00  0.00    -0.020 OA 
HETATM   36  C   UNL     1      -6.356   5.319  66.648  1.00  0.00    -0.036 C  
BRANCH  27  37
HETATM   37  C   UNL     1      -6.095   7.201  70.523  1.00  0.00    -0.027 C  
BRANCH  37  38
HETATM   38  O   UNL     1      -6.835   8.185  71.232  1.00  0.00    -0.048 OA 
BRANCH  38  39
HETATM   39  C   UNL     1      -8.030   7.598  71.819  1.00  0.00    -0.095 C  
HETATM   40  C   UNL     1      -8.895   5.478  72.648  1.00  0.00    -0.123 C  
HETATM   41  O   UNL     1      -7.797   6.214  72.102  1.00  0.00    -0.100 OA 
HETATM   42  C   UNL     1     -10.182   5.627  71.815  1.00  0.00    -0.202 C  
HETATM   43  C   UNL     1      -9.083   5.788  74.130  1.00  0.00    -0.126 C  
HETATM   44  O   UNL     1     -10.008   4.983  70.541  1.00  0.00    -0.206 OA 
HETATM   45  C   UNL     1     -10.520   7.094  71.549  1.00  0.00    -0.203 C  
HETATM   46  O   UNL     1     -11.003   7.750  72.724  1.00  0.00    -0.328 OA 
HETATM   47  C   UNL     1      -9.305   7.811  70.946  1.00  0.00    -0.153 C  
HETATM   48  H   UNL     1     -10.801   5.075  70.027  1.00  0.00     0.000 HD 
HETATM   49  H   UNL     1     -11.213   8.662  72.559  1.00  0.00     0.000 HD 
HETATM   50  O   UNL     1      -9.578   9.211  70.776  1.00  0.00    -0.230 OA 
HETATM   51  H   UNL     1     -10.355   9.341  70.244  1.00  0.00     0.000 HD 
ENDBRANCH  38  39
ENDBRANCH  37  38
ENDBRANCH  27  37
ENDBRANCH  24  25
ENDBRANCH  19  24
ENDBRANCH   7  11
ENDBRANCH   2   3
TORSDOF 7
ENDMDL
MODEL      136
REMARK 921   NORMALIZED FREE ENERGY PREDICTED BY IDOCK:   -3.14 KCAL/MOL
REMARK 922        TOTAL FREE ENERGY PREDICTED BY IDOCK:   -6.35 KCAL/MOL
REMARK 923 INTER-LIGAND FREE ENERGY PREDICTED BY IDOCK:   -4.88 KCAL/MOL
REMARK 924 INTRA-LIGAND FREE ENERGY PREDICTED BY IDOCK:   -1.48 KCAL/MOL
REMARK 927      BINDING AFFINITY PREDICTED BY RF-SCORE:    0.00 PKD
ROOT
HETATM    1  C   UNL     1      -7.279   1.510  66.979  1.00  0.00    -0.046 C  
HETATM    2  O   UNL     1      -7.799   1.774  68.279  1.00  0.00    -0.053 OA 
ENDROOT
BRANCH   2   3
HETATM    3  C   UNL     1      -8.368   3.011  68.441  1.00  0.00    -0.069 A  
HETATM    4  C   UNL     1      -7.744   3.842  69.368  1.00  0.00    -0.052 A  
HETATM    5  C   UNL     1      -8.233   5.117  69.646  1.00  0.00    -0.093 A  
HETATM    6  O   UNL     1      -6.637   3.412  70.050  1.00  0.00    -0.032 OA 
HETATM    7  C   UNL     1      -9.368   5.618  68.976  1.00  0.00    -0.150 A  
HETATM    8  H   UNL     1      -6.211   3.978  70.681  1.00  0.00     0.000 HD 
HETATM    9  C   UNL     1      -9.976   4.784  68.024  1.00  0.00    -0.154 A  
HETATM   10  C   UNL     1      -9.479   3.495  67.754  1.00  0.00    -0.230 A  
BRANCH   7  11
HETATM   11  C   UNL     1      -9.909   6.970  69.283  1.00  0.00    -0.159 C  
HETATM   12  C   UNL     1     -10.207   7.305  70.549  1.00  0.00    -0.203 C  
HETATM   13  C   UNL     1     -10.828   8.600  70.827  1.00  0.00    -0.230 C  
HETATM   14  O   UNL     1     -11.120   8.931  71.966  1.00  0.00    -0.356 OA 
HETATM   15  C   UNL     1     -11.102   9.470  69.684  1.00  0.00    -0.196 A  
HETATM   16  C   UNL     1     -11.762  10.683  69.854  1.00  0.00    -0.317 A  
HETATM   17  C   UNL     1     -11.975  11.533  68.775  1.00  0.00    -0.335 A  
HETATM   18  O   UNL     1     -12.214  11.126  71.067  1.00  0.00    -0.356 OA 
HETATM   19  C   UNL     1     -11.514  11.186  67.508  1.00  0.00    -0.216 A  
HETATM   20  H   UNL     1     -12.664  11.955  71.183  1.00  0.00     0.000 HD 
HETATM   21  C   UNL     1     -10.867   9.941  67.333  1.00  0.00    -0.293 A  
HETATM   22  C   UNL     1     -10.682   9.065  68.420  1.00  0.00    -0.096 A  
HETATM   23  O   UNL     1     -10.079   7.837  68.195  1.00  0.00    -0.172 OA 
BRANCH  19  24
HETATM   24  O   UNL     1     -11.547  12.015  66.420  1.00  0.00    -0.423 OA 
BRANCH  24  25
HETATM   25  C   UNL     1     -10.944  13.338  66.459  1.00  0.00    -0.286 C  
HETATM   26  O   UNL     1     -11.350  14.161  67.565  1.00  0.00    -0.293 OA 
HETATM   27  C   UNL     1     -10.764  15.466  67.615  1.00  0.00    -0.292 C  
HETATM   28  H   UNL     1     -10.516  15.657  63.165  1.00  0.00     0.000 HD 
HETATM   29  C   UNL     1     -11.022  16.219  66.293  1.00  0.00     0.008 C  
HETATM   30  O   UNL     1     -10.470  13.234  64.047  1.00  0.00    -0.516 OA 
HETATM   31  C   UNL     1     -10.508  15.429  65.105  1.00  0.00    -0.411 C  
HETATM   32  O   UNL     1     -10.428  17.523  66.193  1.00  0.00    -0.353 OA 
HETATM   33  H   UNL     1     -10.587  17.986  65.380  1.00  0.00     0.000 HD 
HETATM   34  H   UNL     1     -10.568  13.652  63.200  1.00  0.00     0.000 HD 
HETATM   35  O   UNL     1     -10.839  16.152  63.909  1.00  0.00    -0.071 OA 
HETATM   36  C   UNL     1     -11.103  14.021  65.076  1.00  0.00    -0.363 C  
BRANCH  27  37
HETATM   37  C   UNL     1     -11.427  16.345  68.697  1.00  0.00    -0.224 C  
BRANCH  37  38
HETATM   38  O   UNL     1     -10.822  16.394  69.983  1.00  0.00    -0.345 OA 
BRANCH  38  39
HETATM   39  C   UNL     1     -11.588  15.606  70.935  1.00  0.00    -0.389 C  
HETATM   40  C   UNL     1     -13.804  15.455  71.932  1.00  0.00    -0.517 C  
HETATM   41  O   UNL     1     -12.928  16.102  71.003  1.00  0.00    -0.231 OA 
HETATM   42  C   UNL     1     -13.209  15.373  73.350  1.00  0.00    -0.446 C  
HETATM   43  C   UNL     1     -14.289  14.115  71.390  1.00  0.00    -0.153 C  
HETATM   44  O   UNL     1     -13.117  16.694  73.911  1.00  0.00    -0.613 OA 
HETATM   45  C   UNL     1     -11.802  14.776  73.342  1.00  0.00    -0.064 C  
HETATM   46  O   UNL     1     -11.823  13.368  73.086  1.00  0.00     1.635 OA 
HETATM   47  C   UNL     1     -10.917  15.531  72.342  1.00  0.00     0.456 C  
HETATM   48  H   UNL     1     -12.750  16.643  74.786  1.00  0.00     0.000 HD 
HETATM   49  H   UNL     1     -10.949  12.997  73.080  1.00  0.00     0.000 HD 
HETATM   50  O   UNL     1      -9.619  14.923  72.257  1.00  0.00     2.821 OA 
HETATM   51  H   UNL     1      -9.211  14.877  73.113  1.00  0.00     0.000 HD 
ENDBRANCH  38  39
ENDBRANCH  37  38
ENDBRANCH  27  37
ENDBRANCH  24  25
ENDBRANCH  19  24
ENDBRANCH   7  11
ENDBRANCH   2   3
TORSDOF 7
ENDMDL
MODEL      137
REMARK 921   NORMALIZED FREE ENERGY PREDICTED BY IDOCK:   -2.96 KCAL/MOL
REMARK 922        TOTAL FREE ENERGY PREDICTED BY IDOCK:   -6.10 KCAL/MOL
REMARK 923 INTER-LIGAND FREE ENERGY PREDICTED BY IDOCK:   -4.13 KCAL/MOL
REMARK 924 INTRA-LIGAND FREE ENERGY PREDICTED BY IDOCK:   -1.96 KCAL/MOL
REMARK 927      BINDING AFFINITY PREDICTED BY RF-SCORE:    0.00 PKD
ROOT
HETATM    1  C   UNL     1      -7.139   6.098  67.307  1.00  0.00    -0.070 C  
HETATM    2  O   UNL     1      -7.424   6.453  65.957  1.00  0.00    -0.078 OA 
ENDROOT
BRANCH   2   3
HETATM    3  C   UNL     1      -8.201   7.572  65.799  1.00  0.00    -0.137 A  
HETATM    4  C   UNL     1      -7.747   8.489  64.855  1.00  0.00    -0.105 A  
HETATM    5  C   UNL     1      -8.429   9.679  64.611  1.00  0.00    -0.183 A  
HETATM    6  O   UNL     1      -6.595   8.249  64.154  1.00  0.00    -0.066 OA 
HETATM    7  C   UNL     1      -9.622   9.983  65.298  1.00  0.00    -0.355 A  
HETATM    8  H   UNL     1      -6.285   8.875  63.510  1.00  0.00     0.000 HD 
HETATM    9  C   UNL     1     -10.088   9.042  66.229  1.00  0.00    -0.311 A  
HETATM   10  C   UNL     1      -9.389   7.844  66.475  1.00  0.00    -0.255 A  
BRANCH   7  11
HETATM   11  C   UNL     1     -10.345  11.263  65.059  1.00  0.00    -0.301 C  
HETATM   12  C   UNL     1     -11.598  11.248  64.579  1.00  0.00     0.109 C  
HETATM   13  C   UNL     1     -12.263  12.511  64.257  1.00  0.00    -0.452 C  
HETATM   14  O   UNL     1     -13.399  12.533  63.809  1.00  0.00    -0.394 OA 
HETATM   15  C   UNL     1     -11.504  13.741  64.475  1.00  0.00    -0.401 A  
HETATM   16  C   UNL     1     -12.034  14.978  64.120  1.00  0.00    -0.201 A  
HETATM   17  C   UNL     1     -11.333  16.151  64.375  1.00  0.00    -0.210 A  
HETATM   18  O   UNL     1     -13.261  15.126  63.533  1.00  0.00     0.420 OA 
HETATM   19  C   UNL     1     -10.094  16.104  65.007  1.00  0.00     0.253 A  
HETATM   20  H   UNL     1     -13.623  15.971  63.291  1.00  0.00     0.000 HD 
HETATM   21  C   UNL     1      -9.545  14.844  65.343  1.00  0.00    -0.085 A  
HETATM   22  C   UNL     1     -10.240  13.654  65.052  1.00  0.00    -0.334 A  
HETATM   23  O   UNL     1      -9.647  12.440  65.362  1.00  0.00    -0.163 OA 
BRANCH  19  24
HETATM   24  O   UNL     1      -9.398  17.204  65.430  1.00  0.00    -0.210 OA 
BRANCH  24  25
HETATM   25  C   UNL     1      -9.248  17.505  66.845  1.00  0.00    -0.265 C  
HETATM   26  O   UNL     1      -9.557  16.421  67.735  1.00  0.00    -0.228 OA 
HETATM   27  C   UNL     1      -9.414  16.705  69.131  1.00  0.00    -0.188 C  
HETATM   28  H   UNL     1     -10.513  20.982  68.496  1.00  0.00     0.000 HD 
HETATM   29  C   UNL     1     -10.257  17.940  69.514  1.00  0.00     0.184 C  
HETATM   30  O   UNL     1      -9.472  19.913  66.393  1.00  0.00    -0.373 OA 
HETATM   31  C   UNL     1      -9.883  19.141  68.666  1.00  0.00    -0.420 C  
HETATM   32  O   UNL     1     -10.149  18.368  70.882  1.00  0.00     1.777 OA 
HETATM   33  H   UNL     1     -10.667  19.127  71.117  1.00  0.00     0.000 HD 
HETATM   34  H   UNL     1      -9.931  20.720  66.595  1.00  0.00     0.000 HD 
HETATM   35  O   UNL     1     -10.747  20.230  69.027  1.00  0.00     0.007 OA 
HETATM   36  C   UNL     1      -9.997  18.823  67.175  1.00  0.00    -0.336 C  
BRANCH  27  37
HETATM   37  C   UNL     1      -9.979  15.564  70.004  1.00  0.00    -0.165 C  
BRANCH  37  38
HETATM   38  O   UNL     1     -10.314  14.338  69.369  1.00  0.00    -0.121 OA 
BRANCH  38  39
HETATM   39  C   UNL     1      -9.180  13.427  69.391  1.00  0.00     1.043 C  
HETATM   40  C   UNL     1      -6.806  13.335  68.856  1.00  0.00    -0.103 C  
HETATM   41  O   UNL     1      -8.007  14.108  68.933  1.00  0.00    -0.126 OA 
HETATM   42  C   UNL     1      -6.992  12.029  68.060  1.00  0.00    -0.084 C  
HETATM   43  C   UNL     1      -6.193  13.131  70.237  1.00  0.00    -0.004 C  
HETATM   44  O   UNL     1      -7.225  12.338  66.676  1.00  0.00    -0.376 OA 
HETATM   45  C   UNL     1      -8.189  11.223  68.562  1.00  0.00    -0.150 C  
HETATM   46  O   UNL     1      -7.927  10.613  69.829  1.00  0.00    -0.356 OA 
HETATM   47  C   UNL     1      -9.441  12.110  68.598  1.00  0.00    -0.045 C  
HETATM   48  H   UNL     1      -7.340  11.533  66.185  1.00  0.00     0.000 HD 
HETATM   49  H   UNL     1      -8.671  10.112  70.142  1.00  0.00     0.000 HD 
HETATM   50  O   UNL     1     -10.553  11.392  69.153  1.00  0.00    -0.274 OA 
HETATM   51  H   UNL     1     -10.712  10.589  68.670  1.00  0.00     0.000 HD 
ENDBRANCH  38  39
ENDBRANCH  37  38
ENDBRANCH  27  37
ENDBRANCH  24  25
ENDBRANCH  19  24
ENDBRANCH   7  11
ENDBRANCH   2   3
TORSDOF 7
ENDMDL
MODEL      138
REMARK 921   NORMALIZED FREE ENERGY PREDICTED BY IDOCK:   -2.65 KCAL/MOL
REMARK 922        TOTAL FREE ENERGY PREDICTED BY IDOCK:   -5.66 KCAL/MOL
REMARK 923 INTER-LIGAND FREE ENERGY PREDICTED BY IDOCK:   -7.12 KCAL/MOL
REMARK 924 INTRA-LIGAND FREE ENERGY PREDICTED BY IDOCK:    1.46 KCAL/MOL
REMARK 927      BINDING AFFINITY PREDICTED BY RF-SCORE:    0.00 PKD
ROOT
HETATM    1  C   UNL     1      -7.087  20.924  67.369  1.00  0.00    -0.361 C  
HETATM    2  O   UNL     1      -6.331  19.724  67.505  1.00  0.00    -0.199 OA 
ENDROOT
BRANCH   2   3
HETATM    3  C   UNL     1      -7.071  18.578  67.637  1.00  0.00    -0.210 A  
HETATM    4  C   UNL     1      -6.583  17.466  66.955  1.00  0.00    -0.189 A  
HETATM    5  C   UNL     1      -7.251  16.244  66.986  1.00  0.00    -0.262 A  
HETATM    6  O   UNL     1      -5.437  17.557  66.212  1.00  0.00    -0.179 OA 
HETATM    7  C   UNL     1      -8.436  16.085  67.734  1.00  0.00    -0.168 A  
HETATM    8  H   UNL     1      -5.103  16.799  65.747  1.00  0.00     0.000 HD 
HETATM    9  C   UNL     1      -8.907  17.203  68.440  1.00  0.00    -0.255 A  
HETATM   10  C   UNL     1      -8.230  18.437  68.398  1.00  0.00    -0.331 A  
BRANCH   7  11
HETATM   11  C   UNL     1      -9.167  14.789  67.754  1.00  0.00    -0.194 C  
HETATM   12  C   UNL     1     -10.495  14.768  67.947  1.00  0.00    -0.246 C  
HETATM   13  C   UNL     1     -11.189  13.484  68.062  1.00  0.00    -0.271 C  
HETATM   14  O   UNL     1     -12.395  13.430  68.246  1.00  0.00    -0.187 OA 
HETATM   15  C   UNL     1     -10.376  12.274  67.965  1.00  0.00    -0.220 A  
HETATM   16  C   UNL     1     -10.945  11.017  68.142  1.00  0.00    -0.247 A  
HETATM   17  C   UNL     1     -10.181   9.864  67.999  1.00  0.00    -0.219 A  
HETATM   18  O   UNL     1     -12.268  10.829  68.438  1.00  0.00    -0.832 OA 
HETATM   19  C   UNL     1      -8.835   9.953  67.659  1.00  0.00    -0.125 A  
HETATM   20  H   UNL     1     -12.657   9.970  68.558  1.00  0.00     0.000 HD 
HETATM   21  C   UNL     1      -8.252  11.233  67.505  1.00  0.00    -0.124 A  
HETATM   22  C   UNL     1      -9.018  12.401  67.685  1.00  0.00    -0.183 A  
HETATM   23  O   UNL     1      -8.396  13.634  67.564  1.00  0.00    -0.164 OA 
BRANCH  19  24
HETATM   24  O   UNL     1      -8.041   8.881  67.355  1.00  0.00    -0.107 OA 
BRANCH  24  25
HETATM   25  C   UNL     1      -7.664   8.586  65.981  1.00  0.00    -0.093 C  
HETATM   26  O   UNL     1      -7.223   7.239  65.746  1.00  0.00    -0.067 OA 
HETATM   27  C   UNL     1      -6.849   6.935  64.398  1.00  0.00    -0.046 C  
HETATM   28  H   UNL     1      -5.462  11.120  63.713  1.00  0.00     0.000 HD 
HETATM   29  C   UNL     1      -5.768   7.922  63.908  1.00  0.00    -0.056 C  
HETATM   30  O   UNL     1      -7.283  10.974  65.533  1.00  0.00    -0.364 OA 
HETATM   31  C   UNL     1      -6.240   9.357  64.039  1.00  0.00    -0.092 C  
HETATM   32  O   UNL     1      -5.352   7.761  62.542  1.00  0.00    -0.052 OA 
HETATM   33  H   UNL     1      -4.687   8.368  62.241  1.00  0.00     0.000 HD 
HETATM   34  H   UNL     1      -6.678  11.637  65.221  1.00  0.00     0.000 HD 
HETATM   35  O   UNL     1      -5.167  10.220  63.631  1.00  0.00    -0.100 OA 
HETATM   36  C   UNL     1      -6.678   9.668  65.471  1.00  0.00    -0.085 C  
BRANCH  27  37
HETATM   37  C   UNL     1      -6.183   5.546  64.292  1.00  0.00    -0.022 C  
BRANCH  37  38
HETATM   38  O   UNL     1      -6.819   4.558  63.493  1.00  0.00    -0.041 OA 
BRANCH  38  39
HETATM   39  C   UNL     1      -8.025   4.075  64.147  1.00  0.00    -0.086 C  
HETATM   40  C   UNL     1     -10.368   4.648  64.477  1.00  0.00     0.273 C  
HETATM   41  O   UNL     1      -9.112   4.963  63.869  1.00  0.00    -0.093 OA 
HETATM   42  C   UNL     1     -10.253   4.430  65.998  1.00  0.00    -0.219 C  
HETATM   43  C   UNL     1     -11.065   3.507  63.744  1.00  0.00     0.084 C  
HETATM   44  O   UNL     1      -9.925   5.675  66.639  1.00  0.00    -0.154 OA 
HETATM   45  C   UNL     1      -9.153   3.428  66.346  1.00  0.00    -0.158 C  
HETATM   46  O   UNL     1      -9.529   2.088  66.012  1.00  0.00    -0.343 OA 
HETATM   47  C   UNL     1      -7.836   3.841  65.678  1.00  0.00    -0.093 C  
HETATM   48  H   UNL     1      -9.854   5.541  67.577  1.00  0.00     0.000 HD 
HETATM   49  H   UNL     1      -8.846   1.465  66.228  1.00  0.00     0.000 HD 
HETATM   50  O   UNL     1      -6.817   2.859  65.921  1.00  0.00    -0.043 OA 
HETATM   51  H   UNL     1      -6.701   2.716  66.853  1.00  0.00     0.000 HD 
ENDBRANCH  38  39
ENDBRANCH  37  38
ENDBRANCH  27  37
ENDBRANCH  24  25
ENDBRANCH  19  24
ENDBRANCH   7  11
ENDBRANCH   2   3
TORSDOF 7
ENDMDL
MODEL      139
REMARK 921   NORMALIZED FREE ENERGY PREDICTED BY IDOCK:   -2.49 KCAL/MOL
REMARK 922        TOTAL FREE ENERGY PREDICTED BY IDOCK:   -5.44 KCAL/MOL
REMARK 923 INTER-LIGAND FREE ENERGY PREDICTED BY IDOCK:   -4.19 KCAL/MOL
REMARK 924 INTRA-LIGAND FREE ENERGY PREDICTED BY IDOCK:   -1.24 KCAL/MOL
REMARK 927      BINDING AFFINITY PREDICTED BY RF-SCORE:    0.00 PKD
ROOT
HETATM    1  C   UNL     1      -7.255   3.050  71.455  1.00  0.00    -0.032 C  
HETATM    2  O   UNL     1      -7.768   3.688  72.621  1.00  0.00    -0.059 OA 
ENDROOT
BRANCH   2   3
HETATM    3  C   UNL     1      -8.354   4.910  72.409  1.00  0.00    -0.120 A  
HETATM    4  C   UNL     1      -9.703   4.876  72.062  1.00  0.00    -0.166 A  
HETATM    5  C   UNL     1     -10.414   6.044  71.797  1.00  0.00    -0.268 A  
HETATM    6  O   UNL     1     -10.360   3.680  71.952  1.00  0.00    -0.096 OA 
HETATM    7  C   UNL     1      -9.794   7.307  71.895  1.00  0.00    -0.180 A  
HETATM    8  H   UNL     1     -11.280   3.656  71.716  1.00  0.00     0.000 HD 
HETATM    9  C   UNL     1      -8.442   7.334  72.271  1.00  0.00    -0.129 A  
HETATM   10  C   UNL     1      -7.728   6.148  72.531  1.00  0.00    -0.103 A  
BRANCH   7  11
HETATM   11  C   UNL     1     -10.541   8.558  71.592  1.00  0.00    -0.283 C  
HETATM   12  C   UNL     1     -11.710   8.809  72.203  1.00  0.00    -0.433 C  
HETATM   13  C   UNL     1     -12.482   9.994  71.826  1.00  0.00    -0.383 C  
HETATM   14  O   UNL     1     -13.553  10.247  72.356  1.00  0.00    -0.275 OA 
HETATM   15  C   UNL     1     -11.927  10.848  70.778  1.00  0.00    -0.449 A  
HETATM   16  C   UNL     1     -12.636  11.949  70.307  1.00  0.00    -0.015 A  
HETATM   17  C   UNL     1     -12.086  12.791  69.347  1.00  0.00    -0.248 A  
HETATM   18  O   UNL     1     -13.882  12.288  70.760  1.00  0.00     1.421 OA 
HETATM   19  C   UNL     1     -10.806  12.551  68.856  1.00  0.00    -0.196 A  
HETATM   20  H   UNL     1     -14.366  13.039  70.438  1.00  0.00     0.000 HD 
HETATM   21  C   UNL     1     -10.098  11.417  69.317  1.00  0.00     0.041 A  
HETATM   22  C   UNL     1     -10.670  10.545  70.263  1.00  0.00    -0.100 A  
HETATM   23  O   UNL     1      -9.957   9.423  70.657  1.00  0.00    -0.248 OA 
BRANCH  19  24
HETATM   24  O   UNL     1     -10.125  13.398  68.024  1.00  0.00    -0.228 OA 
BRANCH  24  25
HETATM   25  C   UNL     1      -9.081  12.909  67.137  1.00  0.00    -0.220 C  
HETATM   26  O   UNL     1      -9.262  11.564  66.666  1.00  0.00    -0.176 OA 
HETATM   27  C   UNL     1      -8.241  11.070  65.792  1.00  0.00    -0.064 C  
HETATM   28  H   UNL     1      -5.140  13.562  67.811  1.00  0.00     0.000 HD 
HETATM   29  C   UNL     1      -6.857  11.198  66.462  1.00  0.00    -0.126 C  
HETATM   30  O   UNL     1      -7.502  14.577  68.016  1.00  0.00    -0.112 OA 
HETATM   31  C   UNL     1      -6.581  12.630  66.878  1.00  0.00     0.368 C  
HETATM   32  O   UNL     1      -5.737  10.792  65.658  1.00  0.00    -0.124 OA 
HETATM   33  H   UNL     1      -4.885  10.871  66.071  1.00  0.00     0.000 HD 
HETATM   34  H   UNL     1      -6.652  14.737  68.409  1.00  0.00     0.000 HD 
HETATM   35  O   UNL     1      -5.313  12.665  67.551  1.00  0.00    -0.114 OA 
HETATM   36  C   UNL     1      -7.694  13.169  67.778  1.00  0.00    -0.153 C  
BRANCH  27  37
HETATM   37  C   UNL     1      -8.405   9.558  65.524  1.00  0.00    -0.132 C  
BRANCH  37  38
HETATM   38  O   UNL     1      -7.860   8.648  66.470  1.00  0.00    -0.097 OA 
BRANCH  38  39
HETATM   39  C   UNL     1      -7.361   7.457  65.801  1.00  0.00    -0.074 C  
HETATM   40  C   UNL     1      -8.087   5.662  64.324  1.00  0.00    -0.127 C  
HETATM   41  O   UNL     1      -8.406   6.872  65.017  1.00  0.00    -0.127 OA 
HETATM   42  C   UNL     1      -7.472   4.594  65.249  1.00  0.00    -0.077 C  
HETATM   43  C   UNL     1      -7.258   5.944  63.075  1.00  0.00    -0.053 C  
HETATM   44  O   UNL     1      -8.464   4.138  66.184  1.00  0.00    -0.108 OA 
HETATM   45  C   UNL     1      -6.297   5.148  66.054  1.00  0.00    -0.039 C  
HETATM   46  O   UNL     1      -5.140   5.351  65.238  1.00  0.00    -0.009 OA 
HETATM   47  C   UNL     1      -6.720   6.430  66.784  1.00  0.00    -0.060 C  
HETATM   48  H   UNL     1      -8.085   3.479  66.754  1.00  0.00     0.000 HD 
HETATM   49  H   UNL     1      -4.410   5.696  65.738  1.00  0.00     0.000 HD 
HETATM   50  O   UNL     1      -5.602   7.011  67.472  1.00  0.00    -0.021 OA 
HETATM   51  H   UNL     1      -5.211   6.386  68.071  1.00  0.00     0.000 HD 
ENDBRANCH  38  39
ENDBRANCH  37  38
ENDBRANCH  27  37
ENDBRANCH  24  25
ENDBRANCH  19  24
ENDBRANCH   7  11
ENDBRANCH   2   3
TORSDOF 7
ENDMDL
MODEL      140
REMARK 921   NORMALIZED FREE ENERGY PREDICTED BY IDOCK:   -2.35 KCAL/MOL
REMARK 922        TOTAL FREE ENERGY PREDICTED BY IDOCK:   -5.24 KCAL/MOL
REMARK 923 INTER-LIGAND FREE ENERGY PREDICTED BY IDOCK:   -4.63 KCAL/MOL
REMARK 924 INTRA-LIGAND FREE ENERGY PREDICTED BY IDOCK:   -0.61 KCAL/MOL
REMARK 927      BINDING AFFINITY PREDICTED BY RF-SCORE:    0.00 PKD
ROOT
HETATM    1  C   UNL     1     -11.812  16.026  64.944  1.00  0.00     0.261 C  
HETATM    2  O   UNL     1     -12.336  14.980  64.130  1.00  0.00    -0.659 OA 
ENDROOT
BRANCH   2   3
HETATM    3  C   UNL     1     -11.598  13.824  64.116  1.00  0.00    -0.331 A  
HETATM    4  C   UNL     1     -10.233  13.982  64.338  1.00  0.00     0.203 A  
HETATM    5  C   UNL     1      -9.364  12.893  64.327  1.00  0.00     0.987 A  
HETATM    6  O   UNL     1      -9.704  15.227  64.552  1.00  0.00    -0.214 OA 
HETATM    7  C   UNL     1      -9.846  11.585  64.114  1.00  0.00    -0.288 A  
HETATM    8  H   UNL     1      -8.773  15.335  64.703  1.00  0.00     0.000 HD 
HETATM    9  C   UNL     1     -11.228  11.431  63.917  1.00  0.00    -0.364 A  
HETATM   10  C   UNL     1     -12.098  12.538  63.923  1.00  0.00    -0.581 A  
BRANCH   7  11
HETATM   11  C   UNL     1      -8.922  10.419  64.079  1.00  0.00    -0.228 C  
HETATM   12  C   UNL     1      -7.822  10.455  63.311  1.00  0.00    -0.102 C  
HETATM   13  C   UNL     1      -6.972   9.267  63.210  1.00  0.00    -0.090 C  
HETATM   14  O   UNL     1      -5.969   9.264  62.513  1.00  0.00    -0.093 OA 
HETATM   15  C   UNL     1      -7.386   8.083  63.960  1.00  0.00    -0.097 A  
HETATM   16  C   UNL     1      -6.677   6.890  63.855  1.00  0.00    -0.049 A  
HETATM   17  C   UNL     1      -7.040   5.780  64.609  1.00  0.00    -0.057 A  
HETATM   18  O   UNL     1      -5.587   6.735  63.043  1.00  0.00    -0.030 OA 
HETATM   19  C   UNL     1      -8.112   5.853  65.494  1.00  0.00    -0.131 A  
HETATM   20  H   UNL     1      -5.103   5.921  62.972  1.00  0.00     0.000 HD 
HETATM   21  C   UNL     1      -8.846   7.059  65.580  1.00  0.00     0.022 A  
HETATM   22  C   UNL     1      -8.500   8.172  64.790  1.00  0.00    -0.046 A  
HETATM   23  O   UNL     1      -9.272   9.321  64.876  1.00  0.00    -0.225 OA 
BRANCH  19  24
HETATM   24  O   UNL     1      -8.453   4.867  66.380  1.00  0.00    -0.111 OA 
BRANCH  24  25
HETATM   25  C   UNL     1      -8.090   4.956  67.785  1.00  0.00    -0.094 C  
HETATM   26  O   UNL     1      -7.849   6.286  68.270  1.00  0.00    -0.102 OA 
HETATM   27  C   UNL     1      -7.491   6.387  69.653  1.00  0.00    -0.085 C  
HETATM   28  H   UNL     1      -5.478   2.407  69.544  1.00  0.00     0.000 HD 
HETATM   29  C   UNL     1      -6.263   5.501  69.952  1.00  0.00    -0.029 C  
HETATM   30  O   UNL     1      -7.345   2.611  67.778  1.00  0.00    -0.052 OA 
HETATM   31  C   UNL     1      -6.518   4.061  69.552  1.00  0.00    -0.033 C  
HETATM   32  O   UNL     1      -5.840   5.466  71.325  1.00  0.00    -0.016 OA 
HETATM   33  H   UNL     1      -5.085   4.921  71.509  1.00  0.00     0.000 HD 
HETATM   34  H   UNL     1      -6.641   2.001  67.962  1.00  0.00     0.000 HD 
HETATM   35  O   UNL     1      -5.318   3.309  69.795  1.00  0.00    -0.010 OA 
HETATM   36  C   UNL     1      -6.941   3.959  68.087  1.00  0.00    -0.051 C  
BRANCH  27  37
HETATM   37  C   UNL     1      -7.036   7.816  70.020  1.00  0.00    -0.054 C  
BRANCH  37  38
HETATM   38  O   UNL     1      -7.957   8.657  70.703  1.00  0.00    -0.088 OA 
BRANCH  38  39
HETATM   39  C   UNL     1      -8.800   9.365  69.752  1.00  0.00    -0.183 C  
HETATM   40  C   UNL     1      -9.277  11.610  68.938  1.00  0.00     0.059 C  
HETATM   41  O   UNL     1      -8.500  10.764  69.791  1.00  0.00     0.090 OA 
HETATM   42  C   UNL     1     -10.793  11.400  69.115  1.00  0.00    -0.213 C  
HETATM   43  C   UNL     1      -8.808  11.513  67.491  1.00  0.00    -0.155 C  
HETATM   44  O   UNL     1     -11.193  11.857  70.418  1.00  0.00    -0.369 OA 
HETATM   45  C   UNL     1     -11.178   9.925  69.004  1.00  0.00    -0.087 C  
HETATM   46  O   UNL     1     -11.098   9.454  67.656  1.00  0.00    -0.488 OA 
HETATM   47  C   UNL     1     -10.320   9.085  69.960  1.00  0.00    -0.206 C  
HETATM   48  H   UNL     1     -12.128  11.727  70.528  1.00  0.00     0.000 HD 
HETATM   49  H   UNL     1     -11.338   8.537  67.586  1.00  0.00     0.000 HD 
HETATM   50  O   UNL     1     -10.608   7.687  69.800  1.00  0.00    -0.237 OA 
HETATM   51  H   UNL     1     -11.534   7.517  69.927  1.00  0.00     0.000 HD 
ENDBRANCH  38  39
ENDBRANCH  37  38
ENDBRANCH  27  37
ENDBRANCH  24  25
ENDBRANCH  19  24
ENDBRANCH   7  11
ENDBRANCH   2   3
TORSDOF 7
ENDMDL
MODEL      141
REMARK 921   NORMALIZED FREE ENERGY PREDICTED BY IDOCK:   -2.31 KCAL/MOL
REMARK 922        TOTAL FREE ENERGY PREDICTED BY IDOCK:   -5.19 KCAL/MOL
REMARK 923 INTER-LIGAND FREE ENERGY PREDICTED BY IDOCK:   -4.70 KCAL/MOL
REMARK 924 INTRA-LIGAND FREE ENERGY PREDICTED BY IDOCK:   -0.50 KCAL/MOL
REMARK 927      BINDING AFFINITY PREDICTED BY RF-SCORE:    0.00 PKD
ROOT
HETATM    1  C   UNL     1      -5.286  17.781  70.551  1.00  0.00    -0.270 C  
HETATM    2  O   UNL     1      -6.659  17.458  70.753  1.00  0.00     1.220 OA 
ENDROOT
BRANCH   2   3
HETATM    3  C   UNL     1      -7.217  16.648  69.796  1.00  0.00     0.332 A  
HETATM    4  C   UNL     1      -7.958  17.302  68.816  1.00  0.00    -0.250 A  
HETATM    5  C   UNL     1      -8.597  16.597  67.798  1.00  0.00    -0.194 A  
HETATM    6  O   UNL     1      -8.096  18.664  68.844  1.00  0.00    -0.297 OA 
HETATM    7  C   UNL     1      -8.492  15.193  67.713  1.00  0.00    -0.156 A  
HETATM    8  H   UNL     1      -8.602  19.110  68.175  1.00  0.00     0.000 HD 
HETATM    9  C   UNL     1      -7.720  14.544  68.690  1.00  0.00    -0.137 A  
HETATM   10  C   UNL     1      -7.084  15.264  69.720  1.00  0.00    -0.154 A  
BRANCH   7  11
HETATM   11  C   UNL     1      -9.189  14.431  66.641  1.00  0.00    -0.261 C  
HETATM   12  C   UNL     1     -10.137  15.026  65.900  1.00  0.00    -0.343 C  
HETATM   13  C   UNL     1     -10.883  14.241  64.916  1.00  0.00    -0.416 C  
HETATM   14  O   UNL     1     -11.757  14.750  64.231  1.00  0.00    -0.348 OA 
HETATM   15  C   UNL     1     -10.550  12.823  64.800  1.00  0.00    -0.348 A  
HETATM   16  C   UNL     1     -11.266  11.990  63.945  1.00  0.00    -0.417 A  
HETATM   17  C   UNL     1     -10.916  10.653  63.798  1.00  0.00     0.674 A  
HETATM   18  O   UNL     1     -12.322  12.422  63.190  1.00  0.00    -0.668 OA 
HETATM   19  C   UNL     1      -9.829  10.132  64.494  1.00  0.00    -0.264 A  
HETATM   20  H   UNL     1     -12.810  11.854  62.606  1.00  0.00     0.000 HD 
HETATM   21  C   UNL     1      -9.120  10.974  65.382  1.00  0.00    -0.213 A  
HETATM   22  C   UNL     1      -9.496  12.319  65.558  1.00  0.00    -0.017 A  
HETATM   23  O   UNL     1      -8.799  13.097  66.469  1.00  0.00    -0.124 OA 
BRANCH  19  24
HETATM   24  O   UNL     1      -9.320   8.876  64.307  1.00  0.00     0.265 OA 
BRANCH  24  25
HETATM   25  C   UNL     1      -8.657   8.160  65.386  1.00  0.00    -0.129 C  
HETATM   26  O   UNL     1      -8.402   8.938  66.566  1.00  0.00    -0.112 OA 
HETATM   27  C   UNL     1      -7.749   8.245  67.636  1.00  0.00    -0.099 C  
HETATM   28  H   UNL     1      -5.552   5.633  64.763  1.00  0.00     0.000 HD 
HETATM   29  C   UNL     1      -6.429   7.619  67.139  1.00  0.00    -0.055 C  
HETATM   30  O   UNL     1      -7.779   6.502  63.795  1.00  0.00    -0.097 OA 
HETATM   31  C   UNL     1      -6.671   6.702  65.955  1.00  0.00    -0.048 C  
HETATM   32  O   UNL     1      -5.707   6.839  68.107  1.00  0.00    -0.015 OA 
HETATM   33  H   UNL     1      -4.895   6.454  67.801  1.00  0.00     0.000 HD 
HETATM   34  H   UNL     1      -7.012   6.056  63.455  1.00  0.00     0.000 HD 
HETATM   35  O   UNL     1      -5.400   6.208  65.504  1.00  0.00    -0.013 OA 
HETATM   36  C   UNL     1      -7.406   7.432  64.831  1.00  0.00    -0.080 C  
BRANCH  27  37
HETATM   37  C   UNL     1      -7.320   9.212  68.761  1.00  0.00    -0.075 C  
BRANCH  37  38
HETATM   38  O   UNL     1      -8.314   9.663  69.671  1.00  0.00    -0.134 OA 
BRANCH  38  39
HETATM   39  C   UNL     1      -8.581   8.647  70.677  1.00  0.00    -0.163 C  
HETATM   40  C   UNL     1      -7.494   6.829  71.878  1.00  0.00    -0.093 C  
HETATM   41  O   UNL     1      -7.388   7.901  70.935  1.00  0.00    -0.055 OA 
HETATM   42  C   UNL     1      -8.650   5.864  71.552  1.00  0.00    -0.132 C  
HETATM   43  C   UNL     1      -7.518   7.355  73.309  1.00  0.00    -0.099 C  
HETATM   44  O   UNL     1      -8.354   5.153  70.338  1.00  0.00    -0.101 OA 
HETATM   45  C   UNL     1      -9.969   6.608  71.342  1.00  0.00    -0.183 C  
HETATM   46  O   UNL     1     -10.503   7.101  72.574  1.00  0.00    -0.204 OA 
HETATM   47  C   UNL     1      -9.783   7.724  70.306  1.00  0.00    -0.179 C  
HETATM   48  H   UNL     1      -9.067   4.557  70.136  1.00  0.00     0.000 HD 
HETATM   49  H   UNL     1     -11.323   7.563  72.444  1.00  0.00     0.000 HD 
HETATM   50  O   UNL     1     -10.990   8.489  70.167  1.00  0.00    -0.241 OA 
HETATM   51  H   UNL     1     -11.722   7.927  69.941  1.00  0.00     0.000 HD 
ENDBRANCH  38  39
ENDBRANCH  37  38
ENDBRANCH  27  37
ENDBRANCH  24  25
ENDBRANCH  19  24
ENDBRANCH   7  11
ENDBRANCH   2   3
TORSDOF 7
ENDMDL
MODEL      142
REMARK 921   NORMALIZED FREE ENERGY PREDICTED BY IDOCK:   -1.88 KCAL/MOL
REMARK 922        TOTAL FREE ENERGY PREDICTED BY IDOCK:   -4.58 KCAL/MOL
REMARK 923 INTER-LIGAND FREE ENERGY PREDICTED BY IDOCK:   -4.14 KCAL/MOL
REMARK 924 INTRA-LIGAND FREE ENERGY PREDICTED BY IDOCK:   -0.44 KCAL/MOL
REMARK 927      BINDING AFFINITY PREDICTED BY RF-SCORE:    0.00 PKD
ROOT
HETATM    1  C   UNL     1      -5.125  17.586  71.098  1.00  0.00    -0.154 C  
HETATM    2  O   UNL     1      -6.483  17.203  71.299  1.00  0.00     1.930 OA 
ENDROOT
BRANCH   2   3
HETATM    3  C   UNL     1      -7.073  16.562  70.240  1.00  0.00     1.183 A  
HETATM    4  C   UNL     1      -7.702  17.389  69.313  1.00  0.00     0.063 A  
HETATM    5  C   UNL     1      -8.360  16.866  68.202  1.00  0.00    -0.212 A  
HETATM    6  O   UNL     1      -7.707  18.747  69.488  1.00  0.00     0.050 OA 
HETATM    7  C   UNL     1      -8.389  15.476  67.966  1.00  0.00    -0.142 A  
HETATM    8  H   UNL     1      -8.136  19.312  68.856  1.00  0.00     0.000 HD 
HETATM    9  C   UNL     1      -7.729  14.651  68.891  1.00  0.00    -0.141 A  
HETATM   10  C   UNL     1      -7.073  15.187  70.015  1.00  0.00    -0.052 A  
BRANCH   7  11
HETATM   11  C   UNL     1      -9.108  14.909  66.793  1.00  0.00    -0.270 C  
HETATM   12  C   UNL     1      -9.874  15.700  66.025  1.00  0.00    -0.362 C  
HETATM   13  C   UNL     1     -10.652  15.113  64.934  1.00  0.00    -0.365 C  
HETATM   14  O   UNL     1     -11.366  15.804  64.223  1.00  0.00    -0.351 OA 
HETATM   15  C   UNL     1     -10.555  13.668  64.744  1.00  0.00    -0.436 A  
HETATM   16  C   UNL     1     -11.323  13.021  63.780  1.00  0.00    -0.383 A  
HETATM   17  C   UNL     1     -11.191  11.654  63.566  1.00  0.00    -0.462 A  
HETATM   18  O   UNL     1     -12.221  13.672  62.979  1.00  0.00    -0.995 OA 
HETATM   19  C   UNL     1     -10.272  10.914  64.305  1.00  0.00    -0.364 A  
HETATM   20  H   UNL     1     -12.745  13.231  62.321  1.00  0.00     0.000 HD 
HETATM   21  C   UNL     1      -9.512  11.568  65.302  1.00  0.00    -0.206 A  
HETATM   22  C   UNL     1      -9.671  12.946  65.543  1.00  0.00    -0.062 A  
HETATM   23  O   UNL     1      -8.934  13.538  66.557  1.00  0.00    -0.170 OA 
BRANCH  19  24
HETATM   24  O   UNL     1      -9.968   9.601  64.068  1.00  0.00     0.331 OA 
BRANCH  24  25
HETATM   25  C   UNL     1      -9.271   8.797  65.060  1.00  0.00     0.114 C  
HETATM   26  O   UNL     1     -10.081   8.342  66.155  1.00  0.00    -0.182 OA 
HETATM   27  C   UNL     1      -9.407   7.549  67.138  1.00  0.00    -0.142 C  
HETATM   28  H   UNL     1      -5.575   9.724  66.437  1.00  0.00     0.000 HD 
HETATM   29  C   UNL     1      -8.181   8.309  67.688  1.00  0.00    -0.127 C  
HETATM   30  O   UNL     1      -7.111   9.747  64.366  1.00  0.00    -0.117 OA 
HETATM   31  C   UNL     1      -7.242   8.714  66.568  1.00  0.00    -0.080 C  
HETATM   32  O   UNL     1      -7.380   7.591  68.641  1.00  0.00    -0.090 OA 
HETATM   33  H   UNL     1      -6.626   8.059  68.979  1.00  0.00     0.000 HD 
HETATM   34  H   UNL     1      -6.316  10.193  64.634  1.00  0.00     0.000 HD 
HETATM   35  O   UNL     1      -6.164   9.470  67.139  1.00  0.00    -0.062 OA 
HETATM   36  C   UNL     1      -7.974   9.525  65.498  1.00  0.00    -0.112 C  
BRANCH  27  37
HETATM   37  C   UNL     1     -10.296   7.301  68.376  1.00  0.00    -0.185 C  
BRANCH  37  38
HETATM   38  O   UNL     1     -10.979   6.058  68.471  1.00  0.00    -0.296 OA 
BRANCH  38  39
HETATM   39  C   UNL     1     -10.138   5.065  69.121  1.00  0.00    -0.187 C  
HETATM   40  C   UNL     1      -8.500   4.837  70.908  1.00  0.00    -0.106 C  
HETATM   41  O   UNL     1      -9.410   5.677  70.190  1.00  0.00    -0.148 OA 
HETATM   42  C   UNL     1      -7.526   4.087  69.980  1.00  0.00    -0.045 C  
HETATM   43  C   UNL     1      -9.241   3.929  71.884  1.00  0.00    -0.178 C  
HETATM   44  O   UNL     1      -6.628   5.026  69.364  1.00  0.00    -0.040 OA 
HETATM   45  C   UNL     1      -8.262   3.350  68.861  1.00  0.00    -0.060 C  
HETATM   46  O   UNL     1      -8.954   2.196  69.349  1.00  0.00    -0.082 OA 
HETATM   47  C   UNL     1      -9.200   4.316  68.125  1.00  0.00    -0.142 C  
HETATM   48  H   UNL     1      -6.028   4.563  68.792  1.00  0.00     0.000 HD 
HETATM   49  H   UNL     1      -9.411   1.738  68.654  1.00  0.00     0.000 HD 
HETATM   50  O   UNL     1      -9.965   3.617  67.131  1.00  0.00    -0.301 OA 
HETATM   51  H   UNL     1      -9.394   3.161  66.525  1.00  0.00     0.000 HD 
ENDBRANCH  38  39
ENDBRANCH  37  38
ENDBRANCH  27  37
ENDBRANCH  24  25
ENDBRANCH  19  24
ENDBRANCH   7  11
ENDBRANCH   2   3
TORSDOF 7
ENDMDL
MODEL      143
REMARK 921   NORMALIZED FREE ENERGY PREDICTED BY IDOCK:   -1.80 KCAL/MOL
REMARK 922        TOTAL FREE ENERGY PREDICTED BY IDOCK:   -4.46 KCAL/MOL
REMARK 923 INTER-LIGAND FREE ENERGY PREDICTED BY IDOCK:   -2.81 KCAL/MOL
REMARK 924 INTRA-LIGAND FREE ENERGY PREDICTED BY IDOCK:   -1.65 KCAL/MOL
REMARK 927      BINDING AFFINITY PREDICTED BY RF-SCORE:    0.00 PKD
ROOT
HETATM    1  C   UNL     1     -13.618  13.895  63.574  1.00  0.00     4.086 C  
HETATM    2  O   UNL     1     -12.235  14.142  63.341  1.00  0.00    -0.586 OA 
ENDROOT
BRANCH   2   3
HETATM    3  C   UNL     1     -11.408  13.888  64.405  1.00  0.00    -0.341 A  
HETATM    4  C   UNL     1     -10.830  15.008  64.997  1.00  0.00    -0.422 A  
HETATM    5  C   UNL     1      -9.952  14.890  66.072  1.00  0.00    -0.337 A  
HETATM    6  O   UNL     1     -11.097  16.262  64.515  1.00  0.00    -0.835 OA 
HETATM    7  C   UNL     1      -9.638  13.627  66.615  1.00  0.00    -0.289 A  
HETATM    8  H   UNL     1     -10.703  17.026  64.918  1.00  0.00     0.000 HD 
HETATM    9  C   UNL     1     -10.246  12.505  66.030  1.00  0.00    -0.269 A  
HETATM   10  C   UNL     1     -11.126  12.632  64.939  1.00  0.00    -0.331 A  
BRANCH   7  11
HETATM   11  C   UNL     1      -8.684  13.491  67.749  1.00  0.00    -0.189 C  
HETATM   12  C   UNL     1      -8.266  14.580  68.412  1.00  0.00    -0.150 C  
HETATM   13  C   UNL     1      -7.255  14.445  69.461  1.00  0.00    -0.051 C  
HETATM   14  O   UNL     1      -6.847  15.418  70.078  1.00  0.00    -0.145 OA 
HETATM   15  C   UNL     1      -6.743  13.102  69.727  1.00  0.00     0.149 A  
HETATM   16  C   UNL     1      -5.724  12.899  70.653  1.00  0.00    -0.163 A  
HETATM   17  C   UNL     1      -5.273  11.616  70.942  1.00  0.00    -0.134 A  
HETATM   18  O   UNL     1      -5.127  13.916  71.345  1.00  0.00    -0.118 OA 
HETATM   19  C   UNL     1      -5.849  10.513  70.318  1.00  0.00    -0.089 A  
HETATM   20  H   UNL     1      -4.432  13.777  71.977  1.00  0.00     0.000 HD 
HETATM   21  C   UNL     1      -6.866  10.724  69.358  1.00  0.00    -0.109 A  
HETATM   22  C   UNL     1      -7.298  12.026  69.040  1.00  0.00    -0.018 A  
HETATM   23  O   UNL     1      -8.269  12.190  68.063  1.00  0.00    -0.140 OA 
BRANCH  19  24
HETATM   24  O   UNL     1      -5.577   9.211  70.641  1.00  0.00    -0.027 OA 
BRANCH  24  25
HETATM   25  C   UNL     1      -6.547   8.154  70.402  1.00  0.00    -0.036 C  
HETATM   26  O   UNL     1      -7.202   7.650  71.577  1.00  0.00    -0.060 OA 
HETATM   27  C   UNL     1      -8.159   6.609  71.355  1.00  0.00    -0.111 C  
HETATM   28  H   UNL     1      -5.871   5.090  67.839  1.00  0.00     0.000 HD 
HETATM   29  C   UNL     1      -7.508   5.439  70.589  1.00  0.00    -0.079 C  
HETATM   30  O   UNL     1      -5.473   7.603  68.259  1.00  0.00    -0.025 OA 
HETATM   31  C   UNL     1      -6.897   5.913  69.284  1.00  0.00    -0.062 C  
HETATM   32  O   UNL     1      -8.385   4.353  70.247  1.00  0.00    -0.071 OA 
HETATM   33  H   UNL     1      -7.984   3.633  69.776  1.00  0.00     0.000 HD 
HETATM   34  H   UNL     1      -5.080   6.929  67.718  1.00  0.00     0.000 HD 
HETATM   35  O   UNL     1      -6.254   4.793  68.657  1.00  0.00    -0.029 OA 
HETATM   36  C   UNL     1      -5.906   7.053  69.519  1.00  0.00    -0.023 C  
BRANCH  27  37
HETATM   37  C   UNL     1      -8.637   5.984  72.684  1.00  0.00    -0.118 C  
BRANCH  37  38
HETATM   38  O   UNL     1      -9.702   6.619  73.378  1.00  0.00    -0.162 OA 
BRANCH  38  39
HETATM   39  C   UNL     1     -10.733   7.046  72.444  1.00  0.00    -0.231 C  
HETATM   40  C   UNL     1     -12.163   8.949  71.932  1.00  0.00    -0.374 C  
HETATM   41  O   UNL     1     -11.122   8.392  72.739  1.00  0.00    -0.327 OA 
HETATM   42  C   UNL     1     -13.413   8.050  71.871  1.00  0.00    -0.304 C  
HETATM   43  C   UNL     1     -11.636   9.363  70.562  1.00  0.00    -0.291 C  
HETATM   44  O   UNL     1     -14.040   8.010  73.164  1.00  0.00    -0.113 OA 
HETATM   45  C   UNL     1     -13.060   6.615  71.483  1.00  0.00    -0.044 C  
HETATM   46  O   UNL     1     -12.708   6.508  70.100  1.00  0.00    -0.073 OA 
HETATM   47  C   UNL     1     -11.955   6.078  72.402  1.00  0.00    -0.179 C  
HETATM   48  H   UNL     1     -14.810   7.455  73.126  1.00  0.00     0.000 HD 
HETATM   49  H   UNL     1     -12.489   5.616  69.859  1.00  0.00     0.000 HD 
HETATM   50  O   UNL     1     -11.551   4.763  71.991  1.00  0.00     0.411 OA 
HETATM   51  H   UNL     1     -12.295   4.174  71.966  1.00  0.00     0.000 HD 
ENDBRANCH  38  39
ENDBRANCH  37  38
ENDBRANCH  27  37
ENDBRANCH  24  25
ENDBRANCH  19  24
ENDBRANCH   7  11
ENDBRANCH   2   3
TORSDOF 7
ENDMDL
MODEL      144
REMARK 921   NORMALIZED FREE ENERGY PREDICTED BY IDOCK:   -1.15 KCAL/MOL
REMARK 922        TOTAL FREE ENERGY PREDICTED BY IDOCK:   -3.56 KCAL/MOL
REMARK 923 INTER-LIGAND FREE ENERGY PREDICTED BY IDOCK:   -2.68 KCAL/MOL
REMARK 924 INTRA-LIGAND FREE ENERGY PREDICTED BY IDOCK:   -0.88 KCAL/MOL
REMARK 927      BINDING AFFINITY PREDICTED BY RF-SCORE:    0.00 PKD
ROOT
HETATM    1  C   UNL     1     -13.118   8.279  73.176  1.00  0.00     0.925 C  
HETATM    2  O   UNL     1     -13.303   6.949  72.697  1.00  0.00     0.505 OA 
ENDROOT
BRANCH   2   3
HETATM    3  C   UNL     1     -12.554   6.613  71.599  1.00  0.00    -0.264 A  
HETATM    4  C   UNL     1     -11.307   6.056  71.872  1.00  0.00    -0.279 A  
HETATM    5  C   UNL     1     -10.435   5.691  70.848  1.00  0.00    -0.323 A  
HETATM    6  O   UNL     1     -10.897   5.874  73.165  1.00  0.00    -0.244 OA 
HETATM    7  C   UNL     1     -10.800   5.851  69.495  1.00  0.00    -0.442 A  
HETATM    8  H   UNL     1     -10.047   5.495  73.352  1.00  0.00     0.000 HD 
HETATM    9  C   UNL     1     -12.069   6.389  69.229  1.00  0.00     1.076 A  
HETATM   10  C   UNL     1     -12.941   6.762  70.269  1.00  0.00     1.073 A  
BRANCH   7  11
HETATM   11  C   UNL     1      -9.865   5.483  68.396  1.00  0.00    -0.141 C  
HETATM   12  C   UNL     1      -9.440   4.217  68.270  1.00  0.00    -0.213 C  
HETATM   13  C   UNL     1      -8.448   3.887  67.246  1.00  0.00    -0.100 C  
HETATM   14  O   UNL     1      -8.033   2.745  67.111  1.00  0.00    -0.073 OA 
HETATM   15  C   UNL     1      -7.961   4.981  66.409  1.00  0.00    -0.107 A  
HETATM   16  C   UNL     1      -6.960   4.766  65.466  1.00  0.00    -0.062 A  
HETATM   17  C   UNL     1      -6.534   5.796  64.635  1.00  0.00    -0.037 A  
HETATM   18  O   UNL     1      -6.356   3.553  65.278  1.00  0.00    -0.030 OA 
HETATM   19  C   UNL     1      -7.118   7.056  64.724  1.00  0.00    -0.060 A  
HETATM   20  H   UNL     1      -5.673   3.406  64.634  1.00  0.00     0.000 HD 
HETATM   21  C   UNL     1      -8.117   7.278  65.701  1.00  0.00    -0.133 A  
HETATM   22  C   UNL     1      -8.523   6.245  66.566  1.00  0.00    -0.121 A  
HETATM   23  O   UNL     1      -9.476   6.518  67.535  1.00  0.00    -0.124 OA 
BRANCH  19  24
HETATM   24  O   UNL     1      -6.872   8.086  63.858  1.00  0.00    -0.065 OA 
BRANCH  24  25
HETATM   25  C   UNL     1      -7.183   9.462  64.212  1.00  0.00    -0.105 C  
HETATM   26  O   UNL     1      -6.903   9.819  65.575  1.00  0.00    -0.085 OA 
HETATM   27  C   UNL     1      -7.206  11.171  65.936  1.00  0.00     0.122 C  
HETATM   28  H   UNL     1     -10.581  11.321  63.023  1.00  0.00     0.000 HD 
HETATM   29  C   UNL     1      -8.680  11.493  65.615  1.00  0.00     0.050 C  
HETATM   30  O   UNL     1      -8.764   9.626  62.335  1.00  0.00    -0.187 OA 
HETATM   31  C   UNL     1      -8.990  11.230  64.153  1.00  0.00     0.117 C  
HETATM   32  O   UNL     1      -9.093  12.844  65.874  1.00  0.00    -0.446 OA 
HETATM   33  H   UNL     1     -10.001  13.042  65.676  1.00  0.00     0.000 HD 
HETATM   34  H   UNL     1      -9.649   9.831  62.057  1.00  0.00     0.000 HD 
HETATM   35  O   UNL     1     -10.387  11.485  63.939  1.00  0.00    -0.298 OA 
HETATM   36  C   UNL     1      -8.628   9.799  63.759  1.00  0.00    -0.200 C  
BRANCH  27  37
HETATM   37  C   UNL     1      -7.084  11.393  67.460  1.00  0.00    -0.106 C  
BRANCH  37  38
HETATM   38  O   UNL     1      -8.059  12.207  68.097  1.00  0.00    -0.144 OA 
BRANCH  38  39
HETATM   39  C   UNL     1      -8.942  11.393  68.919  1.00  0.00    -0.006 C  
HETATM   40  C   UNL     1      -9.463   9.069  69.423  1.00  0.00    -0.159 C  
HETATM   41  O   UNL     1      -8.649  10.008  68.713  1.00  0.00    -0.119 OA 
HETATM   42  C   UNL     1     -10.970   9.317  69.219  1.00  0.00    -0.085 C  
HETATM   43  C   UNL     1      -9.048   8.976  70.888  1.00  0.00    -0.309 C  
HETATM   44  O   UNL     1     -11.324   9.033  67.855  1.00  0.00    -0.307 OA 
HETATM   45  C   UNL     1     -11.350  10.770  69.503  1.00  0.00    -0.289 C  
HETATM   46  O   UNL     1     -11.318  11.065  70.902  1.00  0.00    -0.292 OA 
HETATM   47  C   UNL     1     -10.452  11.715  68.693  1.00  0.00    -0.213 C  
HETATM   48  H   UNL     1     -12.254   9.186  67.729  1.00  0.00     0.000 HD 
HETATM   49  H   UNL     1     -11.554  11.969  71.079  1.00  0.00     0.000 HD 
HETATM   50  O   UNL     1     -10.736  13.084  69.019  1.00  0.00    -0.372 OA 
HETATM   51  H   UNL     1     -11.656  13.279  68.881  1.00  0.00     0.000 HD 
ENDBRANCH  38  39
ENDBRANCH  37  38
ENDBRANCH  27  37
ENDBRANCH  24  25
ENDBRANCH  19  24
ENDBRANCH   7  11
ENDBRANCH   2   3
TORSDOF 7
ENDMDL
MODEL      145
REMARK 921   NORMALIZED FREE ENERGY PREDICTED BY IDOCK:   -1.06 KCAL/MOL
REMARK 922        TOTAL FREE ENERGY PREDICTED BY IDOCK:   -3.43 KCAL/MOL
REMARK 923 INTER-LIGAND FREE ENERGY PREDICTED BY IDOCK:   -3.92 KCAL/MOL
REMARK 924 INTRA-LIGAND FREE ENERGY PREDICTED BY IDOCK:    0.49 KCAL/MOL
REMARK 927      BINDING AFFINITY PREDICTED BY RF-SCORE:    0.00 PKD
ROOT
HETATM    1  C   UNL     1     -11.265  17.640  65.527  1.00  0.00     0.722 C  
HETATM    2  O   UNL     1     -11.781  16.486  64.869  1.00  0.00     0.030 OA 
ENDROOT
BRANCH   2   3
HETATM    3  C   UNL     1     -11.155  15.306  65.183  1.00  0.00    -0.404 A  
HETATM    4  C   UNL     1      -9.801  15.409  65.492  1.00  0.00    -0.324 A  
HETATM    5  C   UNL     1      -9.041  14.284  65.806  1.00  0.00     0.392 A  
HETATM    6  O   UNL     1      -9.176  16.627  65.472  1.00  0.00    -0.438 OA 
HETATM    7  C   UNL     1      -9.626  13.002  65.845  1.00  0.00    -0.126 A  
HETATM    8  H   UNL     1      -8.253  16.697  65.683  1.00  0.00     0.000 HD 
HETATM    9  C   UNL     1     -10.997  12.911  65.558  1.00  0.00    -0.301 A  
HETATM   10  C   UNL     1     -11.758  14.051  65.235  1.00  0.00    -0.349 A  
BRANCH   7  11
HETATM   11  C   UNL     1      -8.815  11.794  66.159  1.00  0.00    -0.107 C  
HETATM   12  C   UNL     1      -7.573  11.670  65.666  1.00  0.00     0.827 C  
HETATM   13  C   UNL     1      -6.823  10.436  65.900  1.00  0.00    -0.131 C  
HETATM   14  O   UNL     1      -5.694  10.288  65.457  1.00  0.00    -0.073 OA 
HETATM   15  C   UNL     1      -7.487   9.385  66.667  1.00  0.00    -0.093 A  
HETATM   16  C   UNL     1      -6.872   8.152  66.867  1.00  0.00    -0.069 A  
HETATM   17  C   UNL     1      -7.482   7.171  67.640  1.00  0.00    -0.101 A  
HETATM   18  O   UNL     1      -5.646   7.834  66.350  1.00  0.00    -0.027 OA 
HETATM   19  C   UNL     1      -8.713   7.417  68.241  1.00  0.00    -0.122 A  
HETATM   20  H   UNL     1      -5.226   6.993  66.487  1.00  0.00     0.000 HD 
HETATM   21  C   UNL     1      -9.348   8.661  68.016  1.00  0.00    -0.147 A  
HETATM   22  C   UNL     1      -8.746   9.641  67.204  1.00  0.00    -0.132 A  
HETATM   23  O   UNL     1      -9.421  10.830  66.976  1.00  0.00    -0.162 OA 
BRANCH  19  24
HETATM   24  O   UNL     1      -9.321   6.576  69.133  1.00  0.00    -0.134 OA 
BRANCH  24  25
HETATM   25  C   UNL     1      -9.527   6.965  70.519  1.00  0.00    -0.169 C  
HETATM   26  O   UNL     1      -8.841   6.155  71.488  1.00  0.00    -0.135 OA 
HETATM   27  C   UNL     1      -9.036   6.528  72.856  1.00  0.00    -0.128 C  
HETATM   28  H   UNL     1     -13.153   8.013  71.992  1.00  0.00     0.000 HD 
HETATM   29  C   UNL     1     -10.542   6.563  73.191  1.00  0.00    -0.265 C  
HETATM   30  O   UNL     1     -11.617   8.118  69.923  1.00  0.00    -0.456 OA 
HETATM   31  C   UNL     1     -11.288   7.494  72.255  1.00  0.00    -0.292 C  
HETATM   32  O   UNL     1     -10.874   6.986  74.524  1.00  0.00    -0.240 OA 
HETATM   33  H   UNL     1     -11.800   7.008  74.730  1.00  0.00     0.000 HD 
HETATM   34  H   UNL     1     -12.547   8.213  70.091  1.00  0.00     0.000 HD 
HETATM   35  O   UNL     1     -12.686   7.429  72.578  1.00  0.00     0.035 OA 
HETATM   36  C   UNL     1     -11.046   7.121  70.793  1.00  0.00    -0.269 C  
BRANCH  27  37
HETATM   37  C   UNL     1      -8.449   5.474  73.821  1.00  0.00    -0.114 C  
BRANCH  37  38
HETATM   38  O   UNL     1      -7.262   4.798  73.431  1.00  0.00    -0.077 OA 
BRANCH  38  39
HETATM   39  C   UNL     1      -7.458   4.120  72.159  1.00  0.00    -0.070 C  
HETATM   40  C   UNL     1      -7.928   1.919  71.230  1.00  0.00    -0.039 C  
HETATM   41  O   UNL     1      -7.748   2.738  72.389  1.00  0.00    -0.051 OA 
HETATM   42  C   UNL     1      -6.764   2.045  70.229  1.00  0.00    -0.032 C  
HETATM   43  C   UNL     1      -9.301   2.141  70.606  1.00  0.00    -0.199 C  
HETATM   44  O   UNL     1      -5.573   1.477  70.801  1.00  0.00    -0.011 OA 
HETATM   45  C   UNL     1      -6.463   3.504  69.888  1.00  0.00    -0.033 C  
HETATM   46  O   UNL     1      -7.471   4.073  69.047  1.00  0.00    -0.054 OA 
HETATM   47  C   UNL     1      -6.262   4.313  71.176  1.00  0.00    -0.018 C  
HETATM   48  H   UNL     1      -4.855   1.555  70.184  1.00  0.00     0.000 HD 
HETATM   49  H   UNL     1      -7.284   4.980  68.835  1.00  0.00     0.000 HD 
HETATM   50  O   UNL     1      -6.069   5.703  70.874  1.00  0.00    -0.027 OA 
HETATM   51  H   UNL     1      -5.340   5.820  70.276  1.00  0.00     0.000 HD 
ENDBRANCH  38  39
ENDBRANCH  37  38
ENDBRANCH  27  37
ENDBRANCH  24  25
ENDBRANCH  19  24
ENDBRANCH   7  11
ENDBRANCH   2   3
TORSDOF 7
ENDMDL
MODEL      146
REMARK 921   NORMALIZED FREE ENERGY PREDICTED BY IDOCK:   -0.84 KCAL/MOL
REMARK 922        TOTAL FREE ENERGY PREDICTED BY IDOCK:   -3.11 KCAL/MOL
REMARK 923 INTER-LIGAND FREE ENERGY PREDICTED BY IDOCK:   -7.28 KCAL/MOL
REMARK 924 INTRA-LIGAND FREE ENERGY PREDICTED BY IDOCK:    4.17 KCAL/MOL
REMARK 927      BINDING AFFINITY PREDICTED BY RF-SCORE:    0.00 PKD
ROOT
HETATM    1  C   UNL     1      -9.714  18.759  67.930  1.00  0.00    -0.329 C  
HETATM    2  O   UNL     1      -9.148  18.159  66.768  1.00  0.00    -0.267 OA 
ENDROOT
BRANCH   2   3
HETATM    3  C   UNL     1      -9.068  16.790  66.797  1.00  0.00    -0.241 A  
HETATM    4  C   UNL     1      -9.738  16.128  65.771  1.00  0.00    -0.290 A  
HETATM    5  C   UNL     1      -9.756  14.737  65.694  1.00  0.00    -0.313 A  
HETATM    6  O   UNL     1     -10.420  16.837  64.818  1.00  0.00    -0.532 OA 
HETATM    7  C   UNL     1      -9.072  13.951  66.644  1.00  0.00    -0.209 A  
HETATM    8  H   UNL     1     -10.877  16.386  64.118  1.00  0.00     0.000 HD 
HETATM    9  C   UNL     1      -8.377  14.626  67.659  1.00  0.00    -0.186 A  
HETATM   10  C   UNL     1      -8.369  16.032  67.734  1.00  0.00    -0.159 A  
BRANCH   7  11
HETATM   11  C   UNL     1      -9.105  12.464  66.581  1.00  0.00    -0.204 C  
HETATM   12  C   UNL     1      -9.248  11.843  65.400  1.00  0.00     0.036 C  
HETATM   13  C   UNL     1      -9.376  10.386  65.361  1.00  0.00    -0.204 C  
HETATM   14  O   UNL     1      -9.517   9.791  64.303  1.00  0.00    -0.263 OA 
HETATM   15  C   UNL     1      -9.348   9.677  66.638  1.00  0.00    -0.200 A  
HETATM   16  C   UNL     1      -9.543   8.300  66.694  1.00  0.00    -0.233 A  
HETATM   17  C   UNL     1      -9.465   7.620  67.904  1.00  0.00    -0.156 A  
HETATM   18  O   UNL     1      -9.794   7.534  65.589  1.00  0.00    -0.099 OA 
HETATM   19  C   UNL     1      -9.173   8.309  69.078  1.00  0.00    -0.147 A  
HETATM   20  H   UNL     1      -9.926   6.594  65.627  1.00  0.00     0.000 HD 
HETATM   21  C   UNL     1      -9.001   9.712  69.022  1.00  0.00    -0.148 A  
HETATM   22  C   UNL     1      -9.115  10.405  67.802  1.00  0.00    -0.131 A  
HETATM   23  O   UNL     1      -8.980  11.785  67.800  1.00  0.00    -0.161 OA 
BRANCH  19  24
HETATM   24  O   UNL     1      -8.932   7.712  70.286  1.00  0.00    -0.145 OA 
BRANCH  24  25
HETATM   25  C   UNL     1      -9.616   6.489  70.673  1.00  0.00    -0.172 C  
HETATM   26  O   UNL     1      -9.533   6.160  72.069  1.00  0.00    -0.153 OA 
HETATM   27  C   UNL     1     -10.202   4.957  72.464  1.00  0.00    -0.195 C  
HETATM   28  H   UNL     1      -9.426   3.080  68.492  1.00  0.00     0.000 HD 
HETATM   29  C   UNL     1      -9.696   3.765  71.625  1.00  0.00    -0.168 C  
HETATM   30  O   UNL     1      -9.510   5.654  68.362  1.00  0.00    -0.116 OA 
HETATM   31  C   UNL     1      -9.867   4.029  70.141  1.00  0.00    -0.137 C  
HETATM   32  O   UNL     1     -10.338   2.505  71.883  1.00  0.00    -0.085 OA 
HETATM   33  H   UNL     1     -10.027   1.772  71.367  1.00  0.00     0.000 HD 
HETATM   34  H   UNL     1      -9.247   4.948  67.784  1.00  0.00     0.000 HD 
HETATM   35  O   UNL     1      -9.318   2.914  69.421  1.00  0.00    -0.135 OA 
HETATM   36  C   UNL     1      -9.188   5.335  69.730  1.00  0.00    -0.126 C  
BRANCH  27  37
HETATM   37  C   UNL     1      -9.869   4.574  73.922  1.00  0.00    -0.146 C  
BRANCH  37  38
HETATM   38  O   UNL     1      -8.592   4.931  74.433  1.00  0.00    -0.112 OA 
BRANCH  38  39
HETATM   39  C   UNL     1      -8.025   6.027  73.664  1.00  0.00    -0.102 C  
HETATM   40  C   UNL     1      -5.942   6.743  72.625  1.00  0.00    -0.042 C  
HETATM   41  O   UNL     1      -6.659   5.738  73.349  1.00  0.00    -0.070 OA 
HETATM   42  C   UNL     1      -6.040   8.132  73.284  1.00  0.00    -0.077 C  
HETATM   43  C   UNL     1      -6.322   6.735  71.148  1.00  0.00    -0.041 C  
HETATM   44  O   UNL     1      -5.335   8.120  74.537  1.00  0.00    -0.074 OA 
HETATM   45  C   UNL     1      -7.489   8.523  73.572  1.00  0.00     0.008 C  
HETATM   46  O   UNL     1      -8.198   8.854  72.374  1.00  0.00    -0.384 OA 
HETATM   47  C   UNL     1      -8.185   7.410  74.366  1.00  0.00    -0.190 C  
HETATM   48  H   UNL     1      -5.395   8.977  74.944  1.00  0.00     0.000 HD 
HETATM   49  H   UNL     1      -9.099   9.097  72.553  1.00  0.00     0.000 HD 
HETATM   50  O   UNL     1      -9.572   7.724  74.565  1.00  0.00    -0.183 OA 
HETATM   51  H   UNL     1      -9.670   8.567  74.992  1.00  0.00     0.000 HD 
ENDBRANCH  38  39
ENDBRANCH  37  38
ENDBRANCH  27  37
ENDBRANCH  24  25
ENDBRANCH  19  24
ENDBRANCH   7  11
ENDBRANCH   2   3
TORSDOF 7
ENDMDL
MODEL      147
REMARK 921   NORMALIZED FREE ENERGY PREDICTED BY IDOCK:   -0.22 KCAL/MOL
REMARK 922        TOTAL FREE ENERGY PREDICTED BY IDOCK:   -2.24 KCAL/MOL
REMARK 923 INTER-LIGAND FREE ENERGY PREDICTED BY IDOCK:   -0.82 KCAL/MOL
REMARK 924 INTRA-LIGAND FREE ENERGY PREDICTED BY IDOCK:   -1.43 KCAL/MOL
REMARK 927      BINDING AFFINITY PREDICTED BY RF-SCORE:    0.00 PKD
ROOT
HETATM    1  C   UNL     1     -13.948  13.870  63.472  1.00  0.00     6.602 C  
HETATM    2  O   UNL     1     -12.564  14.134  63.261  1.00  0.00    -0.766 OA 
ENDROOT
BRANCH   2   3
HETATM    3  C   UNL     1     -11.741  13.814  64.310  1.00  0.00    -0.395 A  
HETATM    4  C   UNL     1     -10.993  14.869  64.829  1.00  0.00    -0.375 A  
HETATM    5  C   UNL     1     -10.101  14.678  65.881  1.00  0.00    -0.341 A  
HETATM    6  O   UNL     1     -11.104  16.125  64.295  1.00  0.00    -1.042 OA 
HETATM    7  C   UNL     1      -9.943  13.409  66.475  1.00  0.00    -0.286 A  
HETATM    8  H   UNL     1     -10.595  16.844  64.648  1.00  0.00     0.000 HD 
HETATM    9  C   UNL     1     -10.719  12.357  65.964  1.00  0.00    -0.294 A  
HETATM   10  C   UNL     1     -11.614  12.557  64.895  1.00  0.00    -0.386 A  
BRANCH   7  11
HETATM   11  C   UNL     1      -8.975  13.192  67.585  1.00  0.00    -0.192 C  
HETATM   12  C   UNL     1      -8.170  14.190  67.981  1.00  0.00    -0.152 C  
HETATM   13  C   UNL     1      -7.157  13.938  69.006  1.00  0.00    -0.098 C  
HETATM   14  O   UNL     1      -6.402  14.823  69.382  1.00  0.00    -0.107 OA 
HETATM   15  C   UNL     1      -7.074  12.583  69.545  1.00  0.00     0.265 A  
HETATM   16  C   UNL     1      -6.087  12.241  70.465  1.00  0.00     0.079 A  
HETATM   17  C   UNL     1      -6.041  10.966  71.017  1.00  0.00     0.206 A  
HETATM   18  O   UNL     1      -5.132  13.119  70.900  1.00  0.00    -0.110 OA 
HETATM   19  C   UNL     1      -6.996  10.016  70.666  1.00  0.00    -0.020 A  
HETATM   20  H   UNL     1      -4.459  12.886  71.529  1.00  0.00     0.000 HD 
HETATM   21  C   UNL     1      -7.982  10.357  69.711  1.00  0.00    -0.082 A  
HETATM   22  C   UNL     1      -8.007  11.638  69.127  1.00  0.00     0.159 A  
HETATM   23  O   UNL     1      -8.966  11.917  68.165  1.00  0.00    -0.174 OA 
BRANCH  19  24
HETATM   24  O   UNL     1      -7.120   8.789  71.259  1.00  0.00    -0.077 OA 
BRANCH  24  25
HETATM   25  C   UNL     1      -8.274   7.940  71.005  1.00  0.00    -0.100 C  
HETATM   26  O   UNL     1      -8.484   7.593  69.627  1.00  0.00    -0.132 OA 
HETATM   27  C   UNL     1      -9.617   6.759  69.363  1.00  0.00    -0.146 C  
HETATM   28  H   UNL     1     -11.864   8.521  72.790  1.00  0.00     0.000 HD 
HETATM   29  C   UNL     1     -10.899   7.403  69.931  1.00  0.00    -0.246 C  
HETATM   30  O   UNL     1      -9.310   8.653  73.119  1.00  0.00    -0.187 OA 
HETATM   31  C   UNL     1     -10.757   7.687  71.414  1.00  0.00    -0.222 C  
HETATM   32  O   UNL     1     -12.102   6.630  69.786  1.00  0.00    -0.638 OA 
HETATM   33  H   UNL     1     -12.890   7.026  70.135  1.00  0.00     0.000 HD 
HETATM   34  H   UNL     1     -10.075   9.023  73.544  1.00  0.00     0.000 HD 
HETATM   35  O   UNL     1     -11.953   8.344  71.861  1.00  0.00    -0.295 OA 
HETATM   36  C   UNL     1      -9.523   8.544  71.698  1.00  0.00    -0.246 C  
BRANCH  27  37
HETATM   37  C   UNL     1      -9.887   6.629  67.848  1.00  0.00    -0.124 C  
BRANCH  37  38
HETATM   38  O   UNL     1      -8.799   6.282  67.002  1.00  0.00    -0.107 OA 
BRANCH  38  39
HETATM   39  C   UNL     1      -8.004   7.460  66.687  1.00  0.00    -0.121 C  
HETATM   40  C   UNL     1      -7.588   9.046  64.888  1.00  0.00    -0.107 C  
HETATM   41  O   UNL     1      -8.319   7.913  65.367  1.00  0.00    -0.136 OA 
HETATM   42  C   UNL     1      -6.063   8.871  65.028  1.00  0.00    -0.060 C  
HETATM   43  C   UNL     1      -8.116  10.340  65.497  1.00  0.00    -0.156 C  
HETATM   44  O   UNL     1      -5.614   7.839  64.134  1.00  0.00    -0.040 OA 
HETATM   45  C   UNL     1      -5.667   8.461  66.445  1.00  0.00    -0.040 C  
HETATM   46  O   UNL     1      -5.798   9.545  67.370  1.00  0.00    -0.044 OA 
HETATM   47  C   UNL     1      -6.474   7.231  66.881  1.00  0.00    -0.055 C  
HETATM   48  H   UNL     1      -4.674   7.731  64.220  1.00  0.00     0.000 HD 
HETATM   49  H   UNL     1      -5.551   9.290  68.251  1.00  0.00     0.000 HD 
HETATM   50  O   UNL     1      -6.177   6.889  68.244  1.00  0.00    -0.031 OA 
HETATM   51  H   UNL     1      -5.245   6.750  68.362  1.00  0.00     0.000 HD 
ENDBRANCH  38  39
ENDBRANCH  37  38
ENDBRANCH  27  37
ENDBRANCH  24  25
ENDBRANCH  19  24
ENDBRANCH   7  11
ENDBRANCH   2   3
TORSDOF 7
ENDMDL
MODEL      148
REMARK 921   NORMALIZED FREE ENERGY PREDICTED BY IDOCK:    0.03 KCAL/MOL
REMARK 922        TOTAL FREE ENERGY PREDICTED BY IDOCK:   -1.89 KCAL/MOL
REMARK 923 INTER-LIGAND FREE ENERGY PREDICTED BY IDOCK:   -3.39 KCAL/MOL
REMARK 924 INTRA-LIGAND FREE ENERGY PREDICTED BY IDOCK:    1.50 KCAL/MOL
REMARK 927      BINDING AFFINITY PREDICTED BY RF-SCORE:    0.00 PKD
ROOT
HETATM    1  C   UNL     1     -10.545  18.204  66.071  1.00  0.00    -0.264 C  
HETATM    2  O   UNL     1     -11.059  17.093  65.342  1.00  0.00    -0.201 OA 
ENDROOT
BRANCH   2   3
HETATM    3  C   UNL     1     -10.483  15.884  65.634  1.00  0.00    -0.392 A  
HETATM    4  C   UNL     1      -9.128  15.927  65.953  1.00  0.00    -0.269 A  
HETATM    5  C   UNL     1      -8.414  14.767  66.248  1.00  0.00     0.351 A  
HETATM    6  O   UNL     1      -8.456  17.119  65.962  1.00  0.00    -0.482 OA 
HETATM    7  C   UNL     1      -9.050  13.508  66.257  1.00  0.00     0.010 A  
HETATM    8  H   UNL     1      -7.532  17.149  66.180  1.00  0.00     0.000 HD 
HETATM    9  C   UNL     1     -10.421  13.477  65.960  1.00  0.00    -0.299 A  
HETATM   10  C   UNL     1     -11.134  14.652  65.656  1.00  0.00    -0.338 A  
BRANCH   7  11
HETATM   11  C   UNL     1      -8.289  12.263  66.549  1.00  0.00     0.064 C  
HETATM   12  C   UNL     1      -7.025  12.129  66.119  1.00  0.00     1.176 C  
HETATM   13  C   UNL     1      -6.320  10.864  66.328  1.00  0.00    -0.132 C  
HETATM   14  O   UNL     1      -5.172  10.707  65.941  1.00  0.00    -0.071 OA 
HETATM   15  C   UNL     1      -7.053   9.793  67.000  1.00  0.00    -0.086 A  
HETATM   16  C   UNL     1      -6.483   8.535  67.167  1.00  0.00    -0.058 A  
HETATM   17  C   UNL     1      -7.161   7.533  67.852  1.00  0.00    -0.085 A  
HETATM   18  O   UNL     1      -5.238   8.209  66.703  1.00  0.00    -0.027 OA 
HETATM   19  C   UNL     1      -8.417   7.783  68.397  1.00  0.00    -0.125 A  
HETATM   20  H   UNL     1      -4.848   7.350  66.817  1.00  0.00     0.000 HD 
HETATM   21  C   UNL     1      -9.005   9.054  68.204  1.00  0.00    -0.133 A  
HETATM   22  C   UNL     1      -8.334  10.057  67.480  1.00  0.00    -0.118 A  
HETATM   23  O   UNL     1      -8.964  11.276  67.279  1.00  0.00    -0.146 OA 
BRANCH  19  24
HETATM   24  O   UNL     1      -9.095   6.914  69.208  1.00  0.00    -0.140 OA 
BRANCH  24  25
HETATM   25  C   UNL     1      -9.917   7.392  70.309  1.00  0.00    -0.188 C  
HETATM   26  O   UNL     1      -9.557   6.884  71.603  1.00  0.00    -0.162 OA 
HETATM   27  C   UNL     1     -10.358   7.347  72.696  1.00  0.00    -0.244 C  
HETATM   28  H   UNL     1     -13.950   7.690  70.072  1.00  0.00     0.000 HD 
HETATM   29  C   UNL     1     -11.849   7.055  72.426  1.00  0.00    -0.176 C  
HETATM   30  O   UNL     1     -11.746   7.934  68.756  1.00  0.00     0.439 OA 
HETATM   31  C   UNL     1     -12.298   7.670  71.114  1.00  0.00    -0.267 C  
HETATM   32  O   UNL     1     -12.767   7.531  73.425  1.00  0.00     0.690 OA 
HETATM   33  H   UNL     1     -13.684   7.351  73.259  1.00  0.00     0.000 HD 
HETATM   34  H   UNL     1     -12.664   7.820  68.539  1.00  0.00     0.000 HD 
HETATM   35  O   UNL     1     -13.669   7.305  70.894  1.00  0.00    -0.144 OA 
HETATM   36  C   UNL     1     -11.415   7.206  69.955  1.00  0.00    -0.161 C  
BRANCH  27  37
HETATM   37  C   UNL     1     -10.042   6.580  73.998  1.00  0.00    -0.326 C  
BRANCH  37  38
HETATM   38  O   UNL     1      -8.703   6.155  74.216  1.00  0.00    -0.121 OA 
BRANCH  38  39
HETATM   39  C   UNL     1      -8.408   4.976  73.418  1.00  0.00    -0.110 C  
HETATM   40  C   UNL     1      -7.404   4.317  71.300  1.00  0.00    -0.051 C  
HETATM   41  O   UNL     1      -7.731   5.364  72.218  1.00  0.00    -0.098 OA 
HETATM   42  C   UNL     1      -8.618   3.436  70.948  1.00  0.00    -0.071 C  
HETATM   43  C   UNL     1      -6.189   3.527  71.773  1.00  0.00    -0.014 C  
HETATM   44  O   UNL     1      -9.566   4.204  70.186  1.00  0.00    -0.171 OA 
HETATM   45  C   UNL     1      -9.334   2.930  72.200  1.00  0.00    -0.107 C  
HETATM   46  O   UNL     1      -8.579   1.917  72.872  1.00  0.00    -0.061 OA 
HETATM   47  C   UNL     1      -9.670   4.107  73.125  1.00  0.00    -0.125 C  
HETATM   48  H   UNL     1     -10.315   3.661  69.970  1.00  0.00     0.000 HD 
HETATM   49  H   UNL     1      -9.024   1.602  73.650  1.00  0.00     0.000 HD 
HETATM   50  O   UNL     1     -10.261   3.637  74.346  1.00  0.00    -0.152 OA 
HETATM   51  H   UNL     1     -11.029   3.108  74.168  1.00  0.00     0.000 HD 
ENDBRANCH  38  39
ENDBRANCH  37  38
ENDBRANCH  27  37
ENDBRANCH  24  25
ENDBRANCH  19  24
ENDBRANCH   7  11
ENDBRANCH   2   3
TORSDOF 7
ENDMDL
MODEL      149
REMARK 921   NORMALIZED FREE ENERGY PREDICTED BY IDOCK:    0.09 KCAL/MOL
REMARK 922        TOTAL FREE ENERGY PREDICTED BY IDOCK:   -1.81 KCAL/MOL
REMARK 923 INTER-LIGAND FREE ENERGY PREDICTED BY IDOCK:   -1.96 KCAL/MOL
REMARK 924 INTRA-LIGAND FREE ENERGY PREDICTED BY IDOCK:    0.15 KCAL/MOL
REMARK 927      BINDING AFFINITY PREDICTED BY RF-SCORE:    0.00 PKD
ROOT
HETATM    1  C   UNL     1     -13.887  13.877  63.479  1.00  0.00     5.678 C  
HETATM    2  O   UNL     1     -12.504  14.168  63.291  1.00  0.00    -0.758 OA 
ENDROOT
BRANCH   2   3
HETATM    3  C   UNL     1     -11.684  13.805  64.329  1.00  0.00    -0.395 A  
HETATM    4  C   UNL     1     -10.968  14.843  64.918  1.00  0.00    -0.408 A  
HETATM    5  C   UNL     1     -10.081  14.610  65.968  1.00  0.00    -0.330 A  
HETATM    6  O   UNL     1     -11.103  16.127  64.460  1.00  0.00    -0.826 OA 
HETATM    7  C   UNL     1      -9.898  13.311  66.485  1.00  0.00    -0.281 A  
HETATM    8  H   UNL     1     -10.615  16.835  64.862  1.00  0.00     0.000 HD 
HETATM    9  C   UNL     1     -10.644  12.274  65.903  1.00  0.00    -0.290 A  
HETATM   10  C   UNL     1     -11.533  12.517  64.838  1.00  0.00    -0.367 A  
BRANCH   7  11
HETATM   11  C   UNL     1      -8.937  13.050  67.591  1.00  0.00    -0.192 C  
HETATM   12  C   UNL     1      -8.161  14.041  68.056  1.00  0.00    -0.152 C  
HETATM   13  C   UNL     1      -7.152  13.752  69.076  1.00  0.00    -0.088 C  
HETATM   14  O   UNL     1      -6.423  14.629  69.514  1.00  0.00    -0.117 OA 
HETATM   15  C   UNL     1      -7.041  12.368  69.532  1.00  0.00     0.243 A  
HETATM   16  C   UNL     1      -6.055  11.994  70.441  1.00  0.00    -0.027 A  
HETATM   17  C   UNL     1      -5.983  10.689  70.914  1.00  0.00    -0.001 A  
HETATM   18  O   UNL     1      -5.127  12.867  70.940  1.00  0.00    -0.115 OA 
HETATM   19  C   UNL     1      -6.910   9.740  70.495  1.00  0.00    -0.127 A  
HETATM   20  H   UNL     1      -4.454  12.612  71.560  1.00  0.00     0.000 HD 
HETATM   21  C   UNL     1      -7.895  10.115  69.552  1.00  0.00    -0.165 A  
HETATM   22  C   UNL     1      -7.946  11.428  69.047  1.00  0.00    -0.024 A  
HETATM   23  O   UNL     1      -8.902  11.743  68.093  1.00  0.00    -0.157 OA 
BRANCH  19  24
HETATM   24  O   UNL     1      -7.011   8.476  71.011  1.00  0.00    -0.050 OA 
BRANCH  24  25
HETATM   25  C   UNL     1      -8.128   7.609  70.673  1.00  0.00    -0.108 C  
HETATM   26  O   UNL     1      -8.294   7.346  69.271  1.00  0.00    -0.129 OA 
HETATM   27  C   UNL     1      -9.391   6.494  68.925  1.00  0.00    -0.131 C  
HETATM   28  H   UNL     1     -11.777   7.952  72.401  1.00  0.00     0.000 HD 
HETATM   29  C   UNL     1     -10.707   7.057  69.501  1.00  0.00    -0.241 C  
HETATM   30  O   UNL     1      -9.237   8.147  72.802  1.00  0.00    -0.220 OA 
HETATM   31  C   UNL     1     -10.610   7.247  71.002  1.00  0.00    -0.221 C  
HETATM   32  O   UNL     1     -11.879   6.255  69.275  1.00  0.00    -0.436 OA 
HETATM   33  H   UNL     1     -12.689   6.602  69.629  1.00  0.00     0.000 HD 
HETATM   34  H   UNL     1     -10.024   8.463  73.230  1.00  0.00     0.000 HD 
HETATM   35  O   UNL     1     -11.838   7.833  71.460  1.00  0.00    -0.276 OA 
HETATM   36  C   UNL     1      -9.413   8.124  71.372  1.00  0.00    -0.166 C  
BRANCH  27  37
HETATM   37  C   UNL     1      -9.621   6.454  67.399  1.00  0.00    -0.120 C  
BRANCH  37  38
HETATM   38  O   UNL     1      -9.855   5.191  66.790  1.00  0.00    -0.150 OA 
BRANCH  38  39
HETATM   39  C   UNL     1      -9.099   5.076  65.552  1.00  0.00    -0.158 C  
HETATM   40  C   UNL     1      -8.491   3.454  63.841  1.00  0.00    -0.090 C  
HETATM   41  O   UNL     1      -9.215   3.744  65.040  1.00  0.00    -0.133 OA 
HETATM   42  C   UNL     1      -7.004   3.845  63.936  1.00  0.00    -0.045 C  
HETATM   43  C   UNL     1      -9.199   4.026  62.617  1.00  0.00    -0.111 C  
HETATM   44  O   UNL     1      -6.342   2.994  64.887  1.00  0.00    -0.023 OA 
HETATM   45  C   UNL     1      -6.826   5.289  64.407  1.00  0.00    -0.048 C  
HETATM   46  O   UNL     1      -7.183   6.228  63.388  1.00  0.00    -0.050 OA 
HETATM   47  C   UNL     1      -7.611   5.519  65.704  1.00  0.00    -0.083 C  
HETATM   48  H   UNL     1      -5.425   3.235  64.946  1.00  0.00     0.000 HD 
HETATM   49  H   UNL     1      -7.072   7.126  63.681  1.00  0.00     0.000 HD 
HETATM   50  O   UNL     1      -7.527   6.894  66.108  1.00  0.00    -0.077 OA 
HETATM   51  H   UNL     1      -6.621   7.164  66.201  1.00  0.00     0.000 HD 
ENDBRANCH  38  39
ENDBRANCH  37  38
ENDBRANCH  27  37
ENDBRANCH  24  25
ENDBRANCH  19  24
ENDBRANCH   7  11
ENDBRANCH   2   3
TORSDOF 7
ENDMDL
MODEL      150
REMARK 921   NORMALIZED FREE ENERGY PREDICTED BY IDOCK:    0.70 KCAL/MOL
REMARK 922        TOTAL FREE ENERGY PREDICTED BY IDOCK:   -0.94 KCAL/MOL
REMARK 923 INTER-LIGAND FREE ENERGY PREDICTED BY IDOCK:   -4.73 KCAL/MOL
REMARK 924 INTRA-LIGAND FREE ENERGY PREDICTED BY IDOCK:    3.79 KCAL/MOL
REMARK 927      BINDING AFFINITY PREDICTED BY RF-SCORE:    0.00 PKD
ROOT
HETATM    1  C   UNL     1      -5.855  20.471  66.458  1.00  0.00    -0.186 C  
HETATM    2  O   UNL     1      -5.382  19.212  66.928  1.00  0.00    -0.162 OA 
ENDROOT
BRANCH   2   3
HETATM    3  C   UNL     1      -6.357  18.323  67.304  1.00  0.00    -0.177 A  
HETATM    4  C   UNL     1      -6.199  17.024  66.828  1.00  0.00    -0.210 A  
HETATM    5  C   UNL     1      -7.130  16.028  67.116  1.00  0.00    -0.248 A  
HETATM    6  O   UNL     1      -5.128  16.699  66.039  1.00  0.00    -0.080 OA 
HETATM    7  C   UNL     1      -8.253  16.298  67.924  1.00  0.00    -0.156 A  
HETATM    8  H   UNL     1      -5.021  15.813  65.714  1.00  0.00     0.000 HD 
HETATM    9  C   UNL     1      -8.390  17.604  68.422  1.00  0.00    -0.290 A  
HETATM   10  C   UNL     1      -7.449  18.607  68.120  1.00  0.00    -0.288 A  
BRANCH   7  11
HETATM   11  C   UNL     1      -9.263  15.245  68.218  1.00  0.00    -0.189 C  
HETATM   12  C   UNL     1     -10.539  15.584  68.458  1.00  0.00    -0.246 C  
HETATM   13  C   UNL     1     -11.502  14.550  68.841  1.00  0.00    -0.300 C  
HETATM   14  O   UNL     1     -12.668  14.826  69.075  1.00  0.00     0.129 OA 
HETATM   15  C   UNL     1     -11.004  13.180  68.949  1.00  0.00    -0.270 A  
HETATM   16  C   UNL     1     -11.836  12.152  69.384  1.00  0.00    -0.309 A  
HETATM   17  C   UNL     1     -11.376  10.841  69.437  1.00  0.00    -0.351 A  
HETATM   18  O   UNL     1     -13.137  12.349  69.757  1.00  0.00     0.835 OA 
HETATM   19  C   UNL     1     -10.078  10.537  69.039  1.00  0.00    -0.217 A  
HETATM   20  H   UNL     1     -13.705  11.647  70.053  1.00  0.00     0.000 HD 
HETATM   21  C   UNL     1      -9.227  11.587  68.622  1.00  0.00    -0.136 A  
HETATM   22  C   UNL     1      -9.681  12.919  68.602  1.00  0.00    -0.040 A  
HETATM   23  O   UNL     1      -8.801  13.922  68.225  1.00  0.00    -0.177 OA 
BRANCH  19  24
HETATM   24  O   UNL     1      -9.584   9.266  68.917  1.00  0.00    -0.152 OA 
BRANCH  24  25
HETATM   25  C   UNL     1      -8.842   8.854  67.736  1.00  0.00    -0.135 C  
HETATM   26  O   UNL     1      -8.269   7.538  67.804  1.00  0.00    -0.117 OA 
HETATM   27  C   UNL     1      -7.536   7.120  66.648  1.00  0.00    -0.093 C  
HETATM   28  H   UNL     1      -6.288  11.314  65.775  1.00  0.00     0.000 HD 
HETATM   29  C   UNL     1      -6.430   8.144  66.317  1.00  0.00    -0.047 C  
HETATM   30  O   UNL     1      -8.510  11.202  67.080  1.00  0.00    -0.131 OA 
HETATM   31  C   UNL     1      -7.010   9.533  66.130  1.00  0.00    -0.091 C  
HETATM   32  O   UNL     1      -5.660   7.870  65.135  1.00  0.00    -0.036 OA 
HETATM   33  H   UNL     1      -4.980   8.500  64.932  1.00  0.00     0.000 HD 
HETATM   34  H   UNL     1      -7.888  11.880  66.844  1.00  0.00     0.000 HD 
HETATM   35  O   UNL     1      -5.925  10.444  65.893  1.00  0.00    -0.082 OA 
HETATM   36  C   UNL     1      -7.827   9.961  67.350  1.00  0.00    -0.098 C  
BRANCH  27  37
HETATM   37  C   UNL     1      -6.778   5.799  66.902  1.00  0.00    -0.058 C  
BRANCH  37  38
HETATM   38  O   UNL     1      -6.309   5.070  65.776  1.00  0.00    -0.033 OA 
BRANCH  38  39
HETATM   39  C   UNL     1      -7.428   4.571  64.992  1.00  0.00    -0.073 C  
HETATM   40  C   UNL     1      -8.633   2.514  64.494  1.00  0.00    -0.091 C  
HETATM   41  O   UNL     1      -7.593   3.169  65.227  1.00  0.00    -0.078 OA 
HETATM   42  C   UNL     1      -8.548   2.780  62.979  1.00  0.00    -0.085 C  
HETATM   43  C   UNL     1     -10.003   2.813  65.094  1.00  0.00     0.319 C  
HETATM   44  O   UNL     1      -7.374   2.145  62.444  1.00  0.00    -0.034 OA 
HETATM   45  C   UNL     1      -8.448   4.273  62.669  1.00  0.00    -0.090 C  
HETATM   46  O   UNL     1      -9.690   4.947  62.889  1.00  0.00    -0.359 OA 
HETATM   47  C   UNL     1      -7.301   4.900  63.473  1.00  0.00    -0.050 C  
HETATM   48  H   UNL     1      -7.321   2.308  61.510  1.00  0.00     0.000 HD 
HETATM   49  H   UNL     1      -9.628   5.875  62.696  1.00  0.00     0.000 HD 
HETATM   50  O   UNL     1      -7.253   6.319  63.260  1.00  0.00    -0.049 OA 
HETATM   51  H   UNL     1      -7.176   6.520  62.335  1.00  0.00     0.000 HD 
ENDBRANCH  38  39
ENDBRANCH  37  38
ENDBRANCH  27  37
ENDBRANCH  24  25
ENDBRANCH  19  24
ENDBRANCH   7  11
ENDBRANCH   2   3
TORSDOF 7
ENDMDL
MODEL      151
REMARK 921   NORMALIZED FREE ENERGY PREDICTED BY IDOCK:    1.39 KCAL/MOL
REMARK 922        TOTAL FREE ENERGY PREDICTED BY IDOCK:    0.03 KCAL/MOL
REMARK 923 INTER-LIGAND FREE ENERGY PREDICTED BY IDOCK:   -4.26 KCAL/MOL
REMARK 924 INTRA-LIGAND FREE ENERGY PREDICTED BY IDOCK:    4.29 KCAL/MOL
REMARK 927      BINDING AFFINITY PREDICTED BY RF-SCORE:    0.00 PKD
ROOT
HETATM    1  C   UNL     1      -6.143  20.962  67.877  1.00  0.00    -0.332 C  
HETATM    2  O   UNL     1      -5.599  19.688  68.209  1.00  0.00    -0.201 OA 
ENDROOT
BRANCH   2   3
HETATM    3  C   UNL     1      -6.521  18.692  68.408  1.00  0.00    -0.226 A  
HETATM    4  C   UNL     1      -6.250  17.487  67.764  1.00  0.00    -0.160 A  
HETATM    5  C   UNL     1      -7.116  16.400  67.863  1.00  0.00    -0.149 A  
HETATM    6  O   UNL     1      -5.127  17.350  66.992  1.00  0.00    -0.120 OA 
HETATM    7  C   UNL     1      -8.288  16.477  68.644  1.00  0.00    -0.235 A  
HETATM    8  H   UNL     1      -4.943  16.529  66.552  1.00  0.00     0.000 HD 
HETATM    9  C   UNL     1      -8.539  17.686  69.312  1.00  0.00     0.270 A  
HETATM   10  C   UNL     1      -7.663  18.782  69.200  1.00  0.00    -0.144 A  
BRANCH   7  11
HETATM   11  C   UNL     1      -9.229  15.328  68.737  1.00  0.00    -0.203 C  
HETATM   12  C   UNL     1     -10.530  15.541  68.985  1.00  0.00    -0.231 C  
HETATM   13  C   UNL     1     -11.428  14.401  69.171  1.00  0.00    -0.294 C  
HETATM   14  O   UNL     1     -12.616  14.561  69.407  1.00  0.00    -0.162 OA 
HETATM   15  C   UNL     1     -10.840  13.066  69.081  1.00  0.00    -0.133 A  
HETATM   16  C   UNL     1     -11.608  11.931  69.323  1.00  0.00    -0.315 A  
HETATM   17  C   UNL     1     -11.061  10.660  69.187  1.00  0.00    -0.309 A  
HETATM   18  O   UNL     1     -12.928  11.982  69.679  1.00  0.00     0.586 OA 
HETATM   19  C   UNL     1      -9.736  10.507  68.788  1.00  0.00    -0.184 A  
HETATM   20  H   UNL     1     -13.452  11.207  69.844  1.00  0.00     0.000 HD 
HETATM   21  C   UNL     1      -8.950  11.662  68.568  1.00  0.00    -0.138 A  
HETATM   22  C   UNL     1      -9.495  12.948  68.740  1.00  0.00     0.120 A  
HETATM   23  O   UNL     1      -8.677  14.053  68.554  1.00  0.00    -0.181 OA 
BRANCH  19  24
HETATM   24  O   UNL     1      -9.153   9.306  68.487  1.00  0.00    -0.132 OA 
BRANCH  24  25
HETATM   25  C   UNL     1      -8.417   9.113  67.247  1.00  0.00    -0.121 C  
HETATM   26  O   UNL     1      -7.735   7.854  67.132  1.00  0.00    -0.098 OA 
HETATM   27  C   UNL     1      -7.006   7.652  65.917  1.00  0.00    -0.061 C  
HETATM   28  H   UNL     1      -6.138  12.015  65.572  1.00  0.00     0.000 HD 
HETATM   29  C   UNL     1      -6.000   8.802  65.700  1.00  0.00    -0.051 C  
HETATM   30  O   UNL     1      -8.301  11.545  66.896  1.00  0.00    -0.155 OA 
HETATM   31  C   UNL     1      -6.698  10.148  65.707  1.00  0.00    -0.110 C  
HETATM   32  O   UNL     1      -5.247   8.748  64.477  1.00  0.00    -0.042 OA 
HETATM   33  H   UNL     1      -4.628   9.456  64.344  1.00  0.00     0.000 HD 
HETATM   34  H   UNL     1      -7.746  12.299  66.737  1.00  0.00     0.000 HD 
HETATM   35  O   UNL     1      -5.700  11.171  65.568  1.00  0.00    -0.107 OA 
HETATM   36  C   UNL     1      -7.510  10.344  66.988  1.00  0.00    -0.097 C  
BRANCH  27  37
HETATM   37  C   UNL     1      -6.134   6.380  65.981  1.00  0.00    -0.033 C  
BRANCH  37  38
HETATM   38  O   UNL     1      -6.775   5.120  65.834  1.00  0.00    -0.050 OA 
BRANCH  38  39
HETATM   39  C   UNL     1      -7.362   4.697  67.096  1.00  0.00    -0.077 C  
HETATM   40  C   UNL     1      -9.297   5.091  68.519  1.00  0.00    -0.127 C  
HETATM   41  O   UNL     1      -8.609   5.369  67.296  1.00  0.00    -0.110 OA 
HETATM   42  C   UNL     1      -8.403   5.279  69.759  1.00  0.00    -0.098 C  
HETATM   43  C   UNL     1      -9.995   3.736  68.464  1.00  0.00     0.203 C  
HETATM   44  O   UNL     1      -8.084   6.672  69.916  1.00  0.00    -0.121 OA 
HETATM   45  C   UNL     1      -7.085   4.516  69.629  1.00  0.00    -0.050 C  
HETATM   46  O   UNL     1      -7.272   3.104  69.767  1.00  0.00    -0.041 OA 
HETATM   47  C   UNL     1      -6.396   4.879  68.307  1.00  0.00    -0.036 C  
HETATM   48  H   UNL     1      -7.532   6.788  70.681  1.00  0.00     0.000 HD 
HETATM   49  H   UNL     1      -6.453   2.629  69.687  1.00  0.00     0.000 HD 
HETATM   50  O   UNL     1      -5.202   4.101  68.130  1.00  0.00    -0.007 OA 
HETATM   51  H   UNL     1      -4.614   4.212  68.867  1.00  0.00     0.000 HD 
ENDBRANCH  38  39
ENDBRANCH  37  38
ENDBRANCH  27  37
ENDBRANCH  24  25
ENDBRANCH  19  24
ENDBRANCH   7  11
ENDBRANCH   2   3
TORSDOF 7
ENDMDL
MODEL      152
REMARK 921   NORMALIZED FREE ENERGY PREDICTED BY IDOCK:    2.52 KCAL/MOL
REMARK 922        TOTAL FREE ENERGY PREDICTED BY IDOCK:    1.61 KCAL/MOL
REMARK 923 INTER-LIGAND FREE ENERGY PREDICTED BY IDOCK:    2.39 KCAL/MOL
REMARK 924 INTRA-LIGAND FREE ENERGY PREDICTED BY IDOCK:   -0.77 KCAL/MOL
REMARK 927      BINDING AFFINITY PREDICTED BY RF-SCORE:    0.00 PKD
ROOT
HETATM    1  C   UNL     1      -7.323   1.469  68.375  1.00  0.00    -0.043 C  
HETATM    2  O   UNL     1      -7.621   2.449  69.366  1.00  0.00    -0.043 OA 
ENDROOT
BRANCH   2   3
HETATM    3  C   UNL     1      -7.455   3.751  68.969  1.00  0.00    -0.053 A  
HETATM    4  C   UNL     1      -7.346   4.682  69.998  1.00  0.00    -0.054 A  
HETATM    5  C   UNL     1      -7.197   6.043  69.734  1.00  0.00    -0.074 A  
HETATM    6  O   UNL     1      -7.406   4.281  71.306  1.00  0.00    -0.048 OA 
HETATM    7  C   UNL     1      -7.127   6.519  68.409  1.00  0.00    -0.083 A  
HETATM    8  H   UNL     1      -7.332   4.916  72.008  1.00  0.00     0.000 HD 
HETATM    9  C   UNL     1      -7.211   5.571  67.378  1.00  0.00    -0.075 A  
HETATM   10  C   UNL     1      -7.368   4.199  67.653  1.00  0.00    -0.068 A  
BRANCH   7  11
HETATM   11  C   UNL     1      -6.990   7.973  68.119  1.00  0.00    -0.077 C  
HETATM   12  C   UNL     1      -6.063   8.702  68.758  1.00  0.00    -0.045 C  
HETATM   13  C   UNL     1      -6.002  10.148  68.537  1.00  0.00    -0.041 C  
HETATM   14  O   UNL     1      -5.176  10.842  69.110  1.00  0.00    -0.042 OA 
HETATM   15  C   UNL     1      -6.980  10.726  67.619  1.00  0.00    -0.082 A  
HETATM   16  C   UNL     1      -7.041  12.101  67.414  1.00  0.00    -0.146 A  
HETATM   17  C   UNL     1      -7.937  12.645  66.502  1.00  0.00     0.406 A  
HETATM   18  O   UNL     1      -6.227  12.990  68.061  1.00  0.00    -0.084 OA 
HETATM   19  C   UNL     1      -8.778  11.815  65.766  1.00  0.00     0.134 A  
HETATM   20  H   UNL     1      -6.267  13.929  67.921  1.00  0.00     0.000 HD 
HETATM   21  C   UNL     1      -8.734  10.420  65.994  1.00  0.00    -0.163 A  
HETATM   22  C   UNL     1      -7.850   9.873  66.944  1.00  0.00    -0.102 A  
HETATM   23  O   UNL     1      -7.868   8.504  67.165  1.00  0.00    -0.096 OA 
BRANCH  19  24
HETATM   24  O   UNL     1      -9.586  12.241  64.746  1.00  0.00    -0.070 OA 
BRANCH  24  25
HETATM   25  C   UNL     1     -10.388  13.448  64.871  1.00  0.00    -0.366 C  
HETATM   26  O   UNL     1     -10.831  13.750  66.204  1.00  0.00    -0.279 OA 
HETATM   27  C   UNL     1     -11.622  14.936  66.340  1.00  0.00    -0.238 C  
HETATM   28  H   UNL     1     -13.314  14.423  62.244  1.00  0.00     0.000 HD 
HETATM   29  C   UNL     1     -12.840  14.878  65.395  1.00  0.00     0.314 C  
HETATM   30  O   UNL     1     -10.987  13.341  62.487  1.00  0.00     1.035 OA 
HETATM   31  C   UNL     1     -12.406  14.666  63.957  1.00  0.00    -0.132 C  
HETATM   32  O   UNL     1     -13.682  16.042  65.391  1.00  0.00     2.987 OA 
HETATM   33  H   UNL     1     -14.432  16.006  64.810  1.00  0.00     0.000 HD 
HETATM   34  H   UNL     1     -11.685  13.325  61.844  1.00  0.00     0.000 HD 
HETATM   35  O   UNL     1     -13.586  14.555  63.145  1.00  0.00     2.352 OA 
HETATM   36  C   UNL     1     -11.528  13.423  63.820  1.00  0.00    -0.241 C  
BRANCH  27  37
HETATM   37  C   UNL     1     -12.233  15.053  67.753  1.00  0.00     0.214 C  
BRANCH  37  38
HETATM   38  O   UNL     1     -11.803  16.125  68.582  1.00  0.00    -0.321 OA 
BRANCH  38  39
HETATM   39  C   UNL     1     -10.464  16.552  68.206  1.00  0.00    -0.313 C  
HETATM   40  C   UNL     1      -8.304  17.110  69.181  1.00  0.00    -0.001 C  
HETATM   41  O   UNL     1      -9.647  16.658  69.377  1.00  0.00    -0.188 OA 
HETATM   42  C   UNL     1      -8.230  18.422  68.376  1.00  0.00    -0.312 C  
HETATM   43  C   UNL     1      -7.423  15.997  68.623  1.00  0.00    -0.166 C  
HETATM   44  O   UNL     1      -8.786  19.496  69.154  1.00  0.00    -0.294 OA 
HETATM   45  C   UNL     1      -9.026  18.334  67.074  1.00  0.00    -0.274 C  
HETATM   46  O   UNL     1      -8.375  17.506  66.107  1.00  0.00    -0.432 OA 
HETATM   47  C   UNL     1     -10.458  17.865  67.365  1.00  0.00    -0.383 C  
HETATM   48  H   UNL     1      -8.741  20.305  68.658  1.00  0.00     0.000 HD 
HETATM   49  H   UNL     1      -8.869  17.451  65.297  1.00  0.00     0.000 HD 
HETATM   50  O   UNL     1     -11.190  17.691  66.142  1.00  0.00     0.374 OA 
HETATM   51  H   UNL     1     -11.186  18.491  65.629  1.00  0.00     0.000 HD 
ENDBRANCH  38  39
ENDBRANCH  37  38
ENDBRANCH  27  37
ENDBRANCH  24  25
ENDBRANCH  19  24
ENDBRANCH   7  11
ENDBRANCH   2   3
TORSDOF 7
ENDMDL
MODEL      153
REMARK 921   NORMALIZED FREE ENERGY PREDICTED BY IDOCK:    2.92 KCAL/MOL
REMARK 922        TOTAL FREE ENERGY PREDICTED BY IDOCK:    2.19 KCAL/MOL
REMARK 923 INTER-LIGAND FREE ENERGY PREDICTED BY IDOCK:    0.05 KCAL/MOL
REMARK 924 INTRA-LIGAND FREE ENERGY PREDICTED BY IDOCK:    2.13 KCAL/MOL
REMARK 927      BINDING AFFINITY PREDICTED BY RF-SCORE:    0.00 PKD
ROOT
HETATM    1  C   UNL     1     -13.188   8.105  73.440  1.00  0.00     1.983 C  
HETATM    2  O   UNL     1     -13.322   7.689  72.084  1.00  0.00    -0.189 OA 
ENDROOT
BRANCH   2   3
HETATM    3  C   UNL     1     -12.405   8.223  71.214  1.00  0.00    -0.263 A  
HETATM    4  C   UNL     1     -11.081   7.856  71.439  1.00  0.00    -0.243 A  
HETATM    5  C   UNL     1     -10.046   8.345  70.644  1.00  0.00    -0.220 A  
HETATM    6  O   UNL     1     -10.760   7.015  72.472  1.00  0.00    -0.220 OA 
HETATM    7  C   UNL     1     -10.311   9.212  69.565  1.00  0.00    -0.220 A  
HETATM    8  H   UNL     1      -9.857   6.765  72.625  1.00  0.00     0.000 HD 
HETATM    9  C   UNL     1     -11.652   9.557  69.328  1.00  0.00     0.281 A  
HETATM   10  C   UNL     1     -12.691   9.064  70.141  1.00  0.00     1.021 A  
BRANCH   7  11
HETATM   11  C   UNL     1      -9.210   9.756  68.724  1.00  0.00    -0.143 C  
HETATM   12  C   UNL     1      -8.647   8.993  67.775  1.00  0.00    -0.121 C  
HETATM   13  C   UNL     1      -7.501   9.503  67.021  1.00  0.00    -0.091 C  
HETATM   14  O   UNL     1      -6.961   8.830  66.157  1.00  0.00    -0.078 OA 
HETATM   15  C   UNL     1      -7.022  10.842  67.359  1.00  0.00    -0.083 A  
HETATM   16  C   UNL     1      -5.890  11.369  66.744  1.00  0.00    -0.135 A  
HETATM   17  C   UNL     1      -5.465  12.662  67.028  1.00  0.00     0.213 A  
HETATM   18  O   UNL     1      -5.149  10.682  65.823  1.00  0.00    -0.068 OA 
HETATM   19  C   UNL     1      -6.180  13.455  67.922  1.00  0.00    -0.147 A  
HETATM   20  H   UNL     1      -4.377  11.042  65.403  1.00  0.00     0.000 HD 
HETATM   21  C   UNL     1      -7.314  12.907  68.565  1.00  0.00    -0.115 A  
HETATM   22  C   UNL     1      -7.724  11.586  68.304  1.00  0.00    -0.123 A  
HETATM   23  O   UNL     1      -8.818  11.076  68.987  1.00  0.00    -0.145 OA 
BRANCH  19  24
HETATM   24  O   UNL     1      -5.927  14.779  68.155  1.00  0.00    -0.118 OA 
BRANCH  24  25
HETATM   25  C   UNL     1      -6.832  15.593  68.951  1.00  0.00    -0.126 C  
HETATM   26  O   UNL     1      -8.202  15.161  68.948  1.00  0.00    -0.156 OA 
HETATM   27  C   UNL     1      -9.104  15.954  69.729  1.00  0.00     0.097 C  
HETATM   28  H   UNL     1      -6.715  19.642  68.962  1.00  0.00     0.000 HD 
HETATM   29  C   UNL     1      -9.030  17.432  69.292  1.00  0.00     0.198 C  
HETATM   30  O   UNL     1      -5.284  17.501  68.828  1.00  0.00    -0.149 OA 
HETATM   31  C   UNL     1      -7.611  17.959  69.385  1.00  0.00     0.207 C  
HETATM   32  O   UNL     1      -9.846  18.345  70.046  1.00  0.00     0.581 OA 
HETATM   33  H   UNL     1      -9.800  19.254  69.777  1.00  0.00     0.000 HD 
HETATM   34  H   UNL     1      -5.169  18.416  68.603  1.00  0.00     0.000 HD 
HETATM   35  O   UNL     1      -7.604  19.312  68.903  1.00  0.00    -0.345 OA 
HETATM   36  C   UNL     1      -6.643  17.087  68.585  1.00  0.00    -0.177 C  
BRANCH  27  37
HETATM   37  C   UNL     1     -10.574  15.550  69.484  1.00  0.00    -0.258 C  
BRANCH  37  38
HETATM   38  O   UNL     1     -11.485  16.559  69.070  1.00  0.00    -0.249 OA 
BRANCH  38  39
HETATM   39  C   UNL     1     -11.371  16.791  67.639  1.00  0.00     0.164 C  
HETATM   40  C   UNL     1     -10.680  15.685  65.582  1.00  0.00    -0.364 C  
HETATM   41  O   UNL     1     -10.887  15.607  66.996  1.00  0.00    -0.318 OA 
HETATM   42  C   UNL     1      -9.808  16.888  65.176  1.00  0.00     0.882 C  
HETATM   43  C   UNL     1     -12.001  15.600  64.826  1.00  0.00     0.049 C  
HETATM   44  O   UNL     1      -8.466  16.694  65.656  1.00  0.00    -0.345 OA 
HETATM   45  C   UNL     1     -10.328  18.194  65.776  1.00  0.00    -0.172 C  
HETATM   46  O   UNL     1     -11.529  18.632  65.135  1.00  0.00     0.456 OA 
HETATM   47  C   UNL     1     -10.505  18.042  67.292  1.00  0.00    -0.380 C  
HETATM   48  H   UNL     1      -7.928  17.436  65.405  1.00  0.00     0.000 HD 
HETATM   49  H   UNL     1     -11.853  19.445  65.508  1.00  0.00     0.000 HD 
HETATM   50  O   UNL     1     -11.079  19.231  67.855  1.00  0.00    -0.321 OA 
HETATM   51  H   UNL     1     -10.552  19.993  67.644  1.00  0.00     0.000 HD 
ENDBRANCH  38  39
ENDBRANCH  37  38
ENDBRANCH  27  37
ENDBRANCH  24  25
ENDBRANCH  19  24
ENDBRANCH   7  11
ENDBRANCH   2   3
TORSDOF 7
ENDMDL
MODEL      154
REMARK 921   NORMALIZED FREE ENERGY PREDICTED BY IDOCK:    4.17 KCAL/MOL
REMARK 922        TOTAL FREE ENERGY PREDICTED BY IDOCK:    3.95 KCAL/MOL
REMARK 923 INTER-LIGAND FREE ENERGY PREDICTED BY IDOCK:    4.32 KCAL/MOL
REMARK 924 INTRA-LIGAND FREE ENERGY PREDICTED BY IDOCK:   -0.37 KCAL/MOL
REMARK 927      BINDING AFFINITY PREDICTED BY RF-SCORE:    0.00 PKD
ROOT
HETATM    1  C   UNL     1      -8.103  20.341  71.639  1.00  0.00     2.100 C  
HETATM    2  O   UNL     1      -9.454  20.144  71.231  1.00  0.00     1.388 OA 
ENDROOT
BRANCH   2   3
HETATM    3  C   UNL     1      -9.713  18.940  70.627  1.00  0.00     2.312 A  
HETATM    4  C   UNL     1      -8.895  18.624  69.545  1.00  0.00     0.560 A  
HETATM    5  C   UNL     1      -9.064  17.442  68.828  1.00  0.00    -0.227 A  
HETATM    6  O   UNL     1      -7.909  19.487  69.146  1.00  0.00    -0.348 OA 
HETATM    7  C   UNL     1     -10.060  16.511  69.191  1.00  0.00    -0.287 A  
HETATM    8  H   UNL     1      -7.351  19.271  68.408  1.00  0.00     0.000 HD 
HETATM    9  C   UNL     1     -10.863  16.826  70.298  1.00  0.00     0.068 A  
HETATM   10  C   UNL     1     -10.690  18.026  71.014  1.00  0.00     2.463 A  
BRANCH   7  11
HETATM   11  C   UNL     1     -10.262  15.257  68.415  1.00  0.00    -0.223 C  
HETATM   12  C   UNL     1     -11.459  14.986  67.872  1.00  0.00    -0.354 C  
HETATM   13  C   UNL     1     -11.673  13.707  67.195  1.00  0.00    -0.383 C  
HETATM   14  O   UNL     1     -12.752  13.426  66.698  1.00  0.00    -0.155 OA 
HETATM   15  C   UNL     1     -10.548  12.774  67.157  1.00  0.00    -0.249 A  
HETATM   16  C   UNL     1     -10.693  11.506  66.602  1.00  0.00    -0.268 A  
HETATM   17  C   UNL     1      -9.609  10.639  66.519  1.00  0.00    -0.218 A  
HETATM   18  O   UNL     1     -11.874  11.043  66.090  1.00  0.00     0.197 OA 
HETATM   19  C   UNL     1      -8.356  11.037  66.977  1.00  0.00    -0.137 A  
HETATM   20  H   UNL     1     -11.972  10.177  65.711  1.00  0.00     0.000 HD 
HETATM   21  C   UNL     1      -8.218  12.317  67.564  1.00  0.00    -0.170 A  
HETATM   22  C   UNL     1      -9.323  13.181  67.680  1.00  0.00    -0.205 A  
HETATM   23  O   UNL     1      -9.152  14.410  68.299  1.00  0.00    -0.180 OA 
BRANCH  19  24
HETATM   24  O   UNL     1      -7.205  10.317  66.808  1.00  0.00    -0.098 OA 
BRANCH  24  25
HETATM   25  C   UNL     1      -7.240   8.929  66.374  1.00  0.00    -0.084 C  
HETATM   26  O   UNL     1      -6.573   8.001  67.244  1.00  0.00    -0.055 OA 
HETATM   27  C   UNL     1      -6.599   6.631  66.828  1.00  0.00    -0.048 C  
HETATM   28  H   UNL     1      -6.633   7.813  62.527  1.00  0.00     0.000 HD 
HETATM   29  C   UNL     1      -6.031   6.495  65.401  1.00  0.00    -0.033 C  
HETATM   30  O   UNL     1      -7.651   9.627  64.051  1.00  0.00    -0.117 OA 
HETATM   31  C   UNL     1      -6.782   7.382  64.426  1.00  0.00    -0.047 C  
HETATM   32  O   UNL     1      -6.061   5.172  64.841  1.00  0.00    -0.024 OA 
HETATM   33  H   UNL     1      -5.711   5.088  63.963  1.00  0.00     0.000 HD 
HETATM   34  H   UNL     1      -7.374   9.571  63.145  1.00  0.00     0.000 HD 
HETATM   35  O   UNL     1      -6.162   7.258  63.137  1.00  0.00    -0.051 OA 
HETATM   36  C   UNL     1      -6.788   8.838  64.893  1.00  0.00    -0.073 C  
BRANCH  27  37
HETATM   37  C   UNL     1      -5.674   5.754  67.700  1.00  0.00    -0.013 C  
BRANCH  37  38
HETATM   38  O   UNL     1      -5.324   6.229  68.993  1.00  0.00    -0.010 OA 
BRANCH  38  39
HETATM   39  C   UNL     1      -6.402   5.975  69.936  1.00  0.00    -0.031 C  
HETATM   40  C   UNL     1      -8.082   7.137  71.261  1.00  0.00    -0.107 C  
HETATM   41  O   UNL     1      -7.023   7.212  70.302  1.00  0.00    -0.058 OA 
HETATM   42  C   UNL     1      -7.680   6.363  72.530  1.00  0.00    -0.101 C  
HETATM   43  C   UNL     1      -9.372   6.638  70.619  1.00  0.00    -0.164 C  
HETATM   44  O   UNL     1      -6.687   7.109  73.254  1.00  0.00    -0.065 OA 
HETATM   45  C   UNL     1      -7.080   4.998  72.197  1.00  0.00    -0.075 C  
HETATM   46  O   UNL     1      -8.076   4.075  71.745  1.00  0.00    -0.078 OA 
HETATM   47  C   UNL     1      -5.941   5.159  71.182  1.00  0.00    -0.021 C  
HETATM   48  H   UNL     1      -6.438   6.632  74.038  1.00  0.00     0.000 HD 
HETATM   49  H   UNL     1      -7.703   3.226  71.537  1.00  0.00     0.000 HD 
HETATM   50  O   UNL     1      -5.428   3.876  70.791  1.00  0.00    -0.010 OA 
HETATM   51  H   UNL     1      -5.147   3.378  71.550  1.00  0.00     0.000 HD 
ENDBRANCH  38  39
ENDBRANCH  37  38
ENDBRANCH  27  37
ENDBRANCH  24  25
ENDBRANCH  19  24
ENDBRANCH   7  11
ENDBRANCH   2   3
TORSDOF 7
ENDMDL
MODEL      155
REMARK 921   NORMALIZED FREE ENERGY PREDICTED BY IDOCK:    4.46 KCAL/MOL
REMARK 922        TOTAL FREE ENERGY PREDICTED BY IDOCK:    4.36 KCAL/MOL
REMARK 923 INTER-LIGAND FREE ENERGY PREDICTED BY IDOCK:    5.27 KCAL/MOL
REMARK 924 INTRA-LIGAND FREE ENERGY PREDICTED BY IDOCK:   -0.91 KCAL/MOL
REMARK 927      BINDING AFFINITY PREDICTED BY RF-SCORE:    0.00 PKD
ROOT
HETATM    1  C   UNL     1     -13.299   2.901  72.529  1.00  0.00     3.651 C  
HETATM    2  O   UNL     1     -11.978   2.480  72.200  1.00  0.00     2.115 OA 
ENDROOT
BRANCH   2   3
HETATM    3  C   UNL     1     -11.073   3.492  72.007  1.00  0.00     1.097 A  
HETATM    4  C   UNL     1     -11.057   4.478  72.991  1.00  0.00    -0.213 A  
HETATM    5  C   UNL     1     -10.201   5.574  72.906  1.00  0.00    -0.214 A  
HETATM    6  O   UNL     1     -11.907   4.402  74.062  1.00  0.00    -0.000 OA 
HETATM    7  C   UNL     1      -9.301   5.709  71.829  1.00  0.00    -0.163 A  
HETATM    8  H   UNL     1     -11.896   5.075  74.732  1.00  0.00     0.000 HD 
HETATM    9  C   UNL     1      -9.305   4.697  70.856  1.00  0.00    -0.214 A  
HETATM   10  C   UNL     1     -10.178   3.596  70.945  1.00  0.00     0.297 A  
BRANCH   7  11
HETATM   11  C   UNL     1      -8.400   6.888  71.721  1.00  0.00    -0.108 C  
HETATM   12  C   UNL     1      -7.300   6.967  72.485  1.00  0.00    -0.080 C  
HETATM   13  C   UNL     1      -6.473   8.174  72.440  1.00  0.00    -0.078 C  
HETATM   14  O   UNL     1      -5.471   8.282  73.130  1.00  0.00    -0.046 OA 
HETATM   15  C   UNL     1      -6.908   9.249  71.552  1.00  0.00     0.054 A  
HETATM   16  C   UNL     1      -6.223  10.460  71.509  1.00  0.00     0.574 A  
HETATM   17  C   UNL     1      -6.606  11.463  70.626  1.00  0.00     0.753 A  
HETATM   18  O   UNL     1      -5.137  10.733  72.295  1.00  0.00    -0.293 OA 
HETATM   19  C   UNL     1      -7.675  11.261  69.757  1.00  0.00     0.530 A  
HETATM   20  H   UNL     1      -4.669  11.560  72.266  1.00  0.00     0.000 HD 
HETATM   21  C   UNL     1      -8.386  10.040  69.820  1.00  0.00    -0.187 A  
HETATM   22  C   UNL     1      -8.019   9.038  70.739  1.00  0.00    -0.148 A  
HETATM   23  O   UNL     1      -8.769   7.873  70.796  1.00  0.00    -0.130 OA 
BRANCH  19  24
HETATM   24  O   UNL     1      -8.034  12.125  68.758  1.00  0.00    -0.098 OA 
BRANCH  24  25
HETATM   25  C   UNL     1      -9.348  12.060  68.140  1.00  0.00    -0.199 C  
HETATM   26  O   UNL     1      -9.407  11.323  66.908  1.00  0.00    -0.173 OA 
HETATM   27  C   UNL     1     -10.696  11.252  66.289  1.00  0.00    -0.257 C  
HETATM   28  H   UNL     1     -11.819  15.261  67.891  1.00  0.00     0.000 HD 
HETATM   29  C   UNL     1     -11.260  12.671  66.065  1.00  0.00    -0.306 C  
HETATM   30  O   UNL     1     -10.061  14.075  69.358  1.00  0.00    -0.420 OA 
HETATM   31  C   UNL     1     -11.315  13.448  67.366  1.00  0.00    -0.309 C  
HETATM   32  O   UNL     1     -12.582  12.734  65.505  1.00  0.00    -0.611 OA 
HETATM   33  H   UNL     1     -12.928  13.607  65.367  1.00  0.00     0.000 HD 
HETATM   34  H   UNL     1     -10.427  14.949  69.301  1.00  0.00     0.000 HD 
HETATM   35  O   UNL     1     -11.784  14.774  67.076  1.00  0.00    -0.368 OA 
HETATM   36  C   UNL     1      -9.947  13.487  68.047  1.00  0.00    -0.248 C  
BRANCH  27  37
HETATM   37  C   UNL     1     -10.614  10.640  64.873  1.00  0.00    -0.122 C  
BRANCH  37  38
HETATM   38  O   UNL     1     -10.659   9.225  64.753  1.00  0.00     1.887 OA 
BRANCH  38  39
HETATM   39  C   UNL     1      -9.461   8.627  65.320  1.00  0.00     0.265 C  
HETATM   40  C   UNL     1      -7.362   7.584  64.661  1.00  0.00    -0.078 C  
HETATM   41  O   UNL     1      -8.576   8.230  64.268  1.00  0.00    -0.044 OA 
HETATM   42  C   UNL     1      -7.603   6.396  65.612  1.00  0.00    -0.086 C  
HETATM   43  C   UNL     1      -6.345   8.593  65.184  1.00  0.00    -0.060 C  
HETATM   44  O   UNL     1      -8.275   5.341  64.903  1.00  0.00    -0.122 OA 
HETATM   45  C   UNL     1      -8.482   6.788  66.799  1.00  0.00    -0.117 C  
HETATM   46  O   UNL     1      -7.778   7.612  67.733  1.00  0.00    -0.116 OA 
HETATM   47  C   UNL     1      -9.771   7.454  66.300  1.00  0.00    -0.013 C  
HETATM   48  H   UNL     1      -8.424   4.608  65.489  1.00  0.00     0.000 HD 
HETATM   49  H   UNL     1      -8.324   7.856  68.471  1.00  0.00     0.000 HD 
HETATM   50  O   UNL     1     -10.565   7.909  67.407  1.00  0.00    -0.326 OA 
HETATM   51  H   UNL     1     -10.754   7.195  68.004  1.00  0.00     0.000 HD 
ENDBRANCH  38  39
ENDBRANCH  37  38
ENDBRANCH  27  37
ENDBRANCH  24  25
ENDBRANCH  19  24
ENDBRANCH   7  11
ENDBRANCH   2   3
TORSDOF 7
ENDMDL
MODEL      156
REMARK 921   NORMALIZED FREE ENERGY PREDICTED BY IDOCK:    6.58 KCAL/MOL
REMARK 922        TOTAL FREE ENERGY PREDICTED BY IDOCK:    7.35 KCAL/MOL
REMARK 923 INTER-LIGAND FREE ENERGY PREDICTED BY IDOCK:    6.97 KCAL/MOL
REMARK 924 INTRA-LIGAND FREE ENERGY PREDICTED BY IDOCK:    0.38 KCAL/MOL
REMARK 927      BINDING AFFINITY PREDICTED BY RF-SCORE:    0.00 PKD
ROOT
HETATM    1  C   UNL     1      -8.105  20.339  71.648  1.00  0.00     2.100 C  
HETATM    2  O   UNL     1      -9.473  20.151  71.300  1.00  0.00     1.388 OA 
ENDROOT
BRANCH   2   3
HETATM    3  C   UNL     1      -9.771  18.938  70.734  1.00  0.00     2.639 A  
HETATM    4  C   UNL     1      -9.006  18.590  69.624  1.00  0.00     0.810 A  
HETATM    5  C   UNL     1      -9.220  17.395  68.940  1.00  0.00    -0.168 A  
HETATM    6  O   UNL     1      -8.031  19.434  69.162  1.00  0.00    -0.329 OA 
HETATM    7  C   UNL     1     -10.207  16.483  69.367  1.00  0.00    -0.264 A  
HETATM    8  H   UNL     1      -7.509  19.197  68.405  1.00  0.00     0.000 HD 
HETATM    9  C   UNL     1     -10.956  16.829  70.502  1.00  0.00     0.202 A  
HETATM   10  C   UNL     1     -10.739  18.042  71.184  1.00  0.00     2.579 A  
BRANCH   7  11
HETATM   11  C   UNL     1     -10.456  15.215  68.628  1.00  0.00    -0.234 C  
HETATM   12  C   UNL     1     -11.681  14.942  68.153  1.00  0.00    -0.344 C  
HETATM   13  C   UNL     1     -11.938  13.651  67.514  1.00  0.00    -0.358 C  
HETATM   14  O   UNL     1     -13.043  13.368  67.079  1.00  0.00     0.697 OA 
HETATM   15  C   UNL     1     -10.822  12.710  67.436  1.00  0.00    -0.272 A  
HETATM   16  C   UNL     1     -11.003  11.433  66.915  1.00  0.00    -0.299 A  
HETATM   17  C   UNL     1      -9.930  10.557  66.794  1.00  0.00    -0.252 A  
HETATM   18  O   UNL     1     -12.211  10.968  66.474  1.00  0.00     0.922 OA 
HETATM   19  C   UNL     1      -8.653  10.955  67.178  1.00  0.00    -0.130 A  
HETATM   20  H   UNL     1     -12.334  10.095  66.118  1.00  0.00     0.000 HD 
HETATM   21  C   UNL     1      -8.477  12.245  67.731  1.00  0.00    -0.163 A  
HETATM   22  C   UNL     1      -9.569  13.119  67.886  1.00  0.00    -0.218 A  
HETATM   23  O   UNL     1      -9.359  14.358  68.471  1.00  0.00    -0.198 OA 
BRANCH  19  24
HETATM   24  O   UNL     1      -7.516  10.223  66.963  1.00  0.00    -0.091 OA 
BRANCH  24  25
HETATM   25  C   UNL     1      -7.374   9.376  65.790  1.00  0.00    -0.095 C  
HETATM   26  O   UNL     1      -7.068   8.000  66.064  1.00  0.00    -0.061 OA 
HETATM   27  C   UNL     1      -6.925   7.155  64.917  1.00  0.00    -0.055 C  
HETATM   28  H   UNL     1      -5.369  10.544  62.468  1.00  0.00     0.000 HD 
HETATM   29  C   UNL     1      -5.865   7.734  63.957  1.00  0.00    -0.052 C  
HETATM   30  O   UNL     1      -6.899  11.340  64.385  1.00  0.00     0.344 OA 
HETATM   31  C   UNL     1      -6.209   9.156  63.556  1.00  0.00    -0.089 C  
HETATM   32  O   UNL     1      -5.672   7.009  62.732  1.00  0.00    -0.038 OA 
HETATM   33  H   UNL     1      -5.020   7.365  62.141  1.00  0.00     0.000 HD 
HETATM   34  H   UNL     1      -6.304  11.750  63.769  1.00  0.00     0.000 HD 
HETATM   35  O   UNL     1      -5.153   9.654  62.720  1.00  0.00    -0.075 OA 
HETATM   36  C   UNL     1      -6.403  10.046  64.783  1.00  0.00    -0.127 C  
BRANCH  27  37
HETATM   37  C   UNL     1      -6.381   5.762  65.301  1.00  0.00    -0.041 C  
BRANCH  37  38
HETATM   38  O   UNL     1      -6.536   5.331  66.647  1.00  0.00    -0.038 OA 
BRANCH  38  39
HETATM   39  C   UNL     1      -7.887   4.840  66.870  1.00  0.00    -0.099 C  
HETATM   40  C   UNL     1      -9.317   3.944  68.625  1.00  0.00    -0.164 C  
HETATM   41  O   UNL     1      -8.048   4.486  68.248  1.00  0.00    -0.083 OA 
HETATM   42  C   UNL     1      -9.748   2.765  67.732  1.00  0.00     0.187 C  
HETATM   43  C   UNL     1     -10.371   5.040  68.746  1.00  0.00    -0.109 C  
HETATM   44  O   UNL     1      -8.876   1.644  67.960  1.00  0.00    -0.089 OA 
HETATM   45  C   UNL     1      -9.668   3.118  66.247  1.00  0.00     0.164 C  
HETATM   46  O   UNL     1     -10.711   4.016  65.857  1.00  0.00    -0.337 OA 
HETATM   47  C   UNL     1      -8.276   3.671  65.914  1.00  0.00    -0.101 C  
HETATM   48  H   UNL     1      -9.142   0.917  67.410  1.00  0.00     0.000 HD 
HETATM   49  H   UNL     1     -10.662   4.236  64.934  1.00  0.00     0.000 HD 
HETATM   50  O   UNL     1      -8.216   4.092  64.543  1.00  0.00    -0.092 OA 
HETATM   51  H   UNL     1      -8.453   3.380  63.960  1.00  0.00     0.000 HD 
ENDBRANCH  38  39
ENDBRANCH  37  38
ENDBRANCH  27  37
ENDBRANCH  24  25
ENDBRANCH  19  24
ENDBRANCH   7  11
ENDBRANCH   2   3
TORSDOF 7
ENDMDL
MODEL      157
REMARK 921   NORMALIZED FREE ENERGY PREDICTED BY IDOCK:    7.55 KCAL/MOL
REMARK 922        TOTAL FREE ENERGY PREDICTED BY IDOCK:    8.71 KCAL/MOL
REMARK 923 INTER-LIGAND FREE ENERGY PREDICTED BY IDOCK:    9.37 KCAL/MOL
REMARK 924 INTRA-LIGAND FREE ENERGY PREDICTED BY IDOCK:   -0.67 KCAL/MOL
REMARK 927      BINDING AFFINITY PREDICTED BY RF-SCORE:    0.00 PKD
ROOT
HETATM    1  C   UNL     1      -5.561  19.799  67.035  1.00  0.00    -0.173 C  
HETATM    2  O   UNL     1      -6.979  19.933  67.069  1.00  0.00    -0.207 OA 
ENDROOT
BRANCH   2   3
HETATM    3  C   UNL     1      -7.679  18.848  66.606  1.00  0.00    -0.248 A  
HETATM    4  C   UNL     1      -8.262  19.001  65.351  1.00  0.00     0.997 A  
HETATM    5  C   UNL     1      -9.020  17.985  64.773  1.00  0.00     4.823 A  
HETATM    6  O   UNL     1      -8.120  20.174  64.659  1.00  0.00     0.283 OA 
HETATM    7  C   UNL     1      -9.202  16.753  65.434  1.00  0.00     0.798 A  
HETATM    8  H   UNL     1      -8.517  20.279  63.803  1.00  0.00     0.000 HD 
HETATM    9  C   UNL     1      -8.589  16.597  66.687  1.00  0.00    -0.293 A  
HETATM   10  C   UNL     1      -7.831  17.631  67.267  1.00  0.00    -0.222 A  
BRANCH   7  11
HETATM   11  C   UNL     1     -10.029  15.671  64.833  1.00  0.00     0.276 C  
HETATM   12  C   UNL     1     -11.078  15.978  64.054  1.00  0.00     0.624 C  
HETATM   13  C   UNL     1     -11.940  14.910  63.548  1.00  0.00     0.881 C  
HETATM   14  O   UNL     1     -12.908  15.156  62.845  1.00  0.00     1.240 OA 
HETATM   15  C   UNL     1     -11.606  13.541  63.936  1.00  0.00    -0.350 A  
HETATM   16  C   UNL     1     -12.421  12.476  63.562  1.00  0.00    -0.459 A  
HETATM   17  C   UNL     1     -12.075  11.169  63.887  1.00  0.00     0.806 A  
HETATM   18  O   UNL     1     -13.576  12.632  62.847  1.00  0.00     0.957 OA 
HETATM   19  C   UNL     1     -10.895  10.908  64.579  1.00  0.00    -0.075 A  
HETATM   20  H   UNL     1     -14.132  11.905  62.592  1.00  0.00     0.000 HD 
HETATM   21  C   UNL     1     -10.083  11.993  64.980  1.00  0.00    -0.293 A  
HETATM   22  C   UNL     1     -10.451  13.319  64.681  1.00  0.00    -0.402 A  
HETATM   23  O   UNL     1      -9.646  14.355  65.129  1.00  0.00    -0.078 OA 
BRANCH  19  24
HETATM   24  O   UNL     1     -10.399   9.654  64.815  1.00  0.00     0.349 OA 
BRANCH  24  25
HETATM   25  C   UNL     1      -9.093   9.462  65.427  1.00  0.00    -0.226 C  
HETATM   26  O   UNL     1      -8.896  10.151  66.672  1.00  0.00    -0.132 OA 
HETATM   27  C   UNL     1      -7.615   9.970  67.284  1.00  0.00    -0.095 C  
HETATM   28  H   UNL     1      -5.642   9.534  63.307  1.00  0.00     0.000 HD 
HETATM   29  C   UNL     1      -6.492  10.358  66.300  1.00  0.00    -0.102 C  
HETATM   30  O   UNL     1      -8.125   8.842  63.252  1.00  0.00    -0.156 OA 
HETATM   31  C   UNL     1      -6.602   9.571  65.008  1.00  0.00    -0.088 C  
HETATM   32  O   UNL     1      -5.150  10.161  66.775  1.00  0.00    -0.039 OA 
HETATM   33  H   UNL     1      -4.460  10.400  66.169  1.00  0.00     0.000 HD 
HETATM   34  H   UNL     1      -7.447   9.008  62.609  1.00  0.00     0.000 HD 
HETATM   35  O   UNL     1      -5.573  10.027  64.116  1.00  0.00    -0.088 OA 
HETATM   36  C   UNL     1      -7.985   9.732  64.377  1.00  0.00    -0.145 C  
BRANCH  27  37
HETATM   37  C   UNL     1      -7.420  10.919  68.487  1.00  0.00    -0.103 C  
BRANCH  37  38
HETATM   38  O   UNL     1      -8.510  11.095  69.383  1.00  0.00     0.050 OA 
BRANCH  38  39
HETATM   39  C   UNL     1      -8.311  10.305  70.588  1.00  0.00     1.172 C  
HETATM   40  C   UNL     1      -6.708   8.796  71.628  1.00  0.00    -0.076 C  
HETATM   41  O   UNL     1      -7.040   9.650  70.529  1.00  0.00    -0.115 OA 
HETATM   42  C   UNL     1      -7.810   7.763  71.930  1.00  0.00    -0.095 C  
HETATM   43  C   UNL     1      -6.275   9.606  72.845  1.00  0.00     0.659 C  
HETATM   44  O   UNL     1      -7.897   6.821  70.847  1.00  0.00    -0.095 OA 
HETATM   45  C   UNL     1      -9.181   8.422  72.079  1.00  0.00    -0.234 C  
HETATM   46  O   UNL     1      -9.291   9.149  73.306  1.00  0.00     0.630 OA 
HETATM   47  C   UNL     1      -9.475   9.303  70.858  1.00  0.00    -0.261 C  
HETATM   48  H   UNL     1      -8.577   6.184  71.032  1.00  0.00     0.000 HD 
HETATM   49  H   UNL     1     -10.143   9.560  73.399  1.00  0.00     0.000 HD 
HETATM   50  O   UNL     1     -10.719  10.000  71.026  1.00  0.00    -0.323 OA 
HETATM   51  H   UNL     1     -11.429   9.390  71.191  1.00  0.00     0.000 HD 
ENDBRANCH  38  39
ENDBRANCH  37  38
ENDBRANCH  27  37
ENDBRANCH  24  25
ENDBRANCH  19  24
ENDBRANCH   7  11
ENDBRANCH   2   3
TORSDOF 7
ENDMDL
MODEL      158
REMARK 921   NORMALIZED FREE ENERGY PREDICTED BY IDOCK:    7.92 KCAL/MOL
REMARK 922        TOTAL FREE ENERGY PREDICTED BY IDOCK:    9.23 KCAL/MOL
REMARK 923 INTER-LIGAND FREE ENERGY PREDICTED BY IDOCK:   -7.27 KCAL/MOL
REMARK 924 INTRA-LIGAND FREE ENERGY PREDICTED BY IDOCK:   16.51 KCAL/MOL
REMARK 927      BINDING AFFINITY PREDICTED BY RF-SCORE:    0.00 PKD
ROOT
HETATM    1  C   UNL     1      -8.926  17.296  68.965  1.00  0.00    -0.083 C  
HETATM    2  O   UNL     1      -9.955  16.642  68.227  1.00  0.00    -0.244 OA 
ENDROOT
BRANCH   2   3
HETATM    3  C   UNL     1     -10.377  15.445  68.747  1.00  0.00    -0.229 A  
HETATM    4  C   UNL     1      -9.788  14.310  68.195  1.00  0.00    -0.226 A  
HETATM    5  C   UNL     1     -10.143  13.030  68.616  1.00  0.00    -0.143 A  
HETATM    6  O   UNL     1      -8.855  14.428  67.201  1.00  0.00    -0.206 OA 
HETATM    7  C   UNL     1     -11.096  12.842  69.638  1.00  0.00     0.028 A  
HETATM    8  H   UNL     1      -8.453  13.654  66.824  1.00  0.00     0.000 HD 
HETATM    9  C   UNL     1     -11.666  13.992  70.208  1.00  0.00    -0.308 A  
HETATM   10  C   UNL     1     -11.307  15.282  69.772  1.00  0.00    -0.306 A  
BRANCH   7  11
HETATM   11  C   UNL     1     -11.497  11.478  70.077  1.00  0.00    -0.220 C  
HETATM   12  C   UNL     1     -12.792  11.183  70.265  1.00  0.00    -0.129 C  
HETATM   13  C   UNL     1     -13.167   9.870  70.790  1.00  0.00    -0.172 C  
HETATM   14  O   UNL     1     -14.337   9.574  70.980  1.00  0.00     0.063 OA 
HETATM   15  C   UNL     1     -12.084   8.937  71.093  1.00  0.00    -0.326 A  
HETATM   16  C   UNL     1     -12.350   7.698  71.668  1.00  0.00    -0.326 A  
HETATM   17  C   UNL     1     -11.324   6.791  71.908  1.00  0.00    -0.306 A  
HETATM   18  O   UNL     1     -13.609   7.285  72.007  1.00  0.00    -0.521 OA 
HETATM   19  C   UNL     1     -10.014   7.106  71.559  1.00  0.00    -0.182 A  
HETATM   20  H   UNL     1     -13.791   6.439  72.400  1.00  0.00     0.000 HD 
HETATM   21  C   UNL     1      -9.742   8.376  70.998  1.00  0.00    -0.218 A  
HETATM   22  C   UNL     1     -10.776   9.308  70.788  1.00  0.00    -0.284 A  
HETATM   23  O   UNL     1     -10.460  10.556  70.274  1.00  0.00    -0.160 OA 
BRANCH  19  24
HETATM   24  O   UNL     1      -8.965   6.230  71.620  1.00  0.00    -0.144 OA 
BRANCH  24  25
HETATM   25  C   UNL     1      -8.437   5.597  70.421  1.00  0.00    -0.127 C  
HETATM   26  O   UNL     1      -8.145   6.494  69.337  1.00  0.00    -0.115 OA 
HETATM   27  C   UNL     1      -7.626   5.884  68.151  1.00  0.00    -0.089 C  
HETATM   28  H   UNL     1      -9.928   2.141  68.923  1.00  0.00     0.000 HD 
HETATM   29  C   UNL     1      -8.580   4.776  67.658  1.00  0.00    -0.103 C  
HETATM   30  O   UNL     1      -9.406   3.437  71.090  1.00  0.00    -0.113 OA 
HETATM   31  C   UNL     1      -8.829   3.746  68.743  1.00  0.00    -0.110 C  
HETATM   32  O   UNL     1      -8.138   4.041  66.504  1.00  0.00    -0.097 OA 
HETATM   33  H   UNL     1      -8.725   3.360  66.201  1.00  0.00     0.000 HD 
HETATM   34  H   UNL     1      -9.962   2.707  70.846  1.00  0.00     0.000 HD 
HETATM   35  O   UNL     1      -9.772   2.786  68.243  1.00  0.00    -0.130 OA 
HETATM   36  C   UNL     1      -9.344   4.405  70.023  1.00  0.00    -0.157 C  
BRANCH  27  37
HETATM   37  C   UNL     1      -7.558   6.887  66.979  1.00  0.00    -0.102 C  
BRANCH  37  38
HETATM   38  O   UNL     1      -7.761   6.392  65.662  1.00  0.00    -0.085 OA 
BRANCH  38  39
HETATM   39  C   UNL     1      -7.888   4.943  65.677  1.00  0.00    -0.095 C  
HETATM   40  C   UNL     1      -6.609   2.917  65.242  1.00  0.00    -0.036 C  
HETATM   41  O   UNL     1      -6.639   4.346  65.314  1.00  0.00    -0.045 OA 
HETATM   42  C   UNL     1      -7.734   2.344  64.360  1.00  0.00    -0.072 C  
HETATM   43  C   UNL     1      -6.542   2.297  66.633  1.00  0.00    -0.038 C  
HETATM   44  O   UNL     1      -7.503   2.707  62.988  1.00  0.00    -0.047 OA 
HETATM   45  C   UNL     1      -9.103   2.892  64.759  1.00  0.00    -0.136 C  
HETATM   46  O   UNL     1      -9.559   2.337  65.996  1.00  0.00    -0.362 OA 
HETATM   47  C   UNL     1      -9.065   4.426  64.794  1.00  0.00    -0.152 C  
HETATM   48  H   UNL     1      -8.196   2.354  62.444  1.00  0.00     0.000 HD 
HETATM   49  H   UNL     1     -10.411   2.678  66.244  1.00  0.00     0.000 HD 
HETATM   50  O   UNL     1     -10.319   4.952  65.255  1.00  0.00    -0.419 OA 
HETATM   51  H   UNL     1     -11.035   4.637  64.717  1.00  0.00     0.000 HD 
ENDBRANCH  38  39
ENDBRANCH  37  38
ENDBRANCH  27  37
ENDBRANCH  24  25
ENDBRANCH  19  24
ENDBRANCH   7  11
ENDBRANCH   2   3
TORSDOF 7
ENDMDL
MODEL      159
REMARK 921   NORMALIZED FREE ENERGY PREDICTED BY IDOCK:    8.38 KCAL/MOL
REMARK 922        TOTAL FREE ENERGY PREDICTED BY IDOCK:    9.88 KCAL/MOL
REMARK 923 INTER-LIGAND FREE ENERGY PREDICTED BY IDOCK:    6.15 KCAL/MOL
REMARK 924 INTRA-LIGAND FREE ENERGY PREDICTED BY IDOCK:    3.73 KCAL/MOL
REMARK 927      BINDING AFFINITY PREDICTED BY RF-SCORE:    0.00 PKD
ROOT
HETATM    1  C   UNL     1     -11.434   4.668  70.596  1.00  0.00     3.058 C  
HETATM    2  O   UNL     1     -10.043   4.968  70.538  1.00  0.00    -0.224 OA 
ENDROOT
BRANCH   2   3
HETATM    3  C   UNL     1      -9.738   6.279  70.274  1.00  0.00    -0.164 A  
HETATM    4  C   UNL     1     -10.022   6.713  68.982  1.00  0.00    -0.153 A  
HETATM    5  C   UNL     1      -9.742   8.016  68.575  1.00  0.00    -0.166 A  
HETATM    6  O   UNL     1     -10.569   5.854  68.067  1.00  0.00    -0.220 OA 
HETATM    7  C   UNL     1      -9.181   8.949  69.471  1.00  0.00    -0.150 A  
HETATM    8  H   UNL     1     -10.762   6.149  67.185  1.00  0.00     0.000 HD 
HETATM    9  C   UNL     1      -8.922   8.511  70.779  1.00  0.00    -0.193 A  
HETATM   10  C   UNL     1      -9.202   7.191  71.181  1.00  0.00    -0.157 A  
BRANCH   7  11
HETATM   11  C   UNL     1      -8.857  10.336  69.037  1.00  0.00    -0.168 C  
HETATM   12  C   UNL     1      -7.877  10.551  68.146  1.00  0.00    -0.109 C  
HETATM   13  C   UNL     1      -7.504  11.923  67.800  1.00  0.00    -0.121 C  
HETATM   14  O   UNL     1      -6.610  12.154  67.000  1.00  0.00    -0.147 OA 
HETATM   15  C   UNL     1      -8.230  13.002  68.466  1.00  0.00    -0.067 A  
HETATM   16  C   UNL     1      -7.884  14.333  68.253  1.00  0.00    -0.141 A  
HETATM   17  C   UNL     1      -8.608  15.360  68.846  1.00  0.00    -0.207 A  
HETATM   18  O   UNL     1      -6.848  14.716  67.446  1.00  0.00    -0.215 OA 
HETATM   19  C   UNL     1      -9.706  15.069  69.651  1.00  0.00    -0.054 A  
HETATM   20  H   UNL     1      -6.611  15.625  67.300  1.00  0.00     0.000 HD 
HETATM   21  C   UNL     1     -10.040  13.715  69.888  1.00  0.00     1.310 A  
HETATM   22  C   UNL     1      -9.285  12.675  69.315  1.00  0.00     0.956 A  
HETATM   23  O   UNL     1      -9.623  11.362  69.606  1.00  0.00     0.440 OA 
BRANCH  19  24
HETATM   24  O   UNL     1     -10.564  16.007  70.158  1.00  0.00    -0.306 OA 
BRANCH  24  25
HETATM   25  C   UNL     1     -10.909  17.201  69.403  1.00  0.00     0.026 C  
HETATM   26  O   UNL     1     -10.633  17.134  67.995  1.00  0.00    -0.348 OA 
HETATM   27  C   UNL     1     -10.968  18.303  67.240  1.00  0.00    -0.079 C  
HETATM   28  H   UNL     1     -10.117  20.946  70.733  1.00  0.00     0.000 HD 
HETATM   29  C   UNL     1     -10.272  19.543  67.840  1.00  0.00    -0.431 C  
HETATM   30  O   UNL     1     -10.809  18.566  71.447  1.00  0.00     1.319 OA 
HETATM   31  C   UNL     1     -10.625  19.712  69.305  1.00  0.00     0.486 C  
HETATM   32  O   UNL     1     -10.579  20.797  67.208  1.00  0.00     0.242 OA 
HETATM   33  H   UNL     1     -10.150  21.559  67.577  1.00  0.00     0.000 HD 
HETATM   34  H   UNL     1     -10.439  19.329  71.875  1.00  0.00     0.000 HD 
HETATM   35  O   UNL     1      -9.895  20.839  69.815  1.00  0.00     0.756 OA 
HETATM   36  C   UNL     1     -10.306  18.447  70.102  1.00  0.00     1.397 C  
BRANCH  27  37
HETATM   37  C   UNL     1     -10.432  18.220  65.794  1.00  0.00    -0.213 C  
BRANCH  37  38
HETATM   38  O   UNL     1      -9.421  17.262  65.509  1.00  0.00    -0.422 OA 
BRANCH  38  39
HETATM   39  C   UNL     1      -8.186  17.607  66.196  1.00  0.00    -0.169 C  
HETATM   40  C   UNL     1      -6.741  19.508  66.669  1.00  0.00    -0.189 C  
HETATM   41  O   UNL     1      -7.946  19.013  66.078  1.00  0.00    -0.399 OA 
HETATM   42  C   UNL     1      -5.493  18.729  66.213  1.00  0.00    -0.150 C  
HETATM   43  C   UNL     1      -6.876  19.621  68.184  1.00  0.00    -0.314 C  
HETATM   44  O   UNL     1      -5.253  18.978  64.818  1.00  0.00    -0.158 OA 
HETATM   45  C   UNL     1      -5.668  17.222  66.391  1.00  0.00    -0.181 C  
HETATM   46  O   UNL     1      -5.613  16.838  67.768  1.00  0.00    -0.113 OA 
HETATM   47  C   UNL     1      -6.966  16.761  65.716  1.00  0.00     1.017 C  
HETATM   48  H   UNL     1      -4.484  18.497  64.536  1.00  0.00     0.000 HD 
HETATM   49  H   UNL     1      -5.722  15.901  67.879  1.00  0.00     0.000 HD 
HETATM   50  O   UNL     1      -7.190  15.363  65.953  1.00  0.00     1.273 OA 
HETATM   51  H   UNL     1      -6.447  14.848  65.661  1.00  0.00     0.000 HD 
ENDBRANCH  38  39
ENDBRANCH  37  38
ENDBRANCH  27  37
ENDBRANCH  24  25
ENDBRANCH  19  24
ENDBRANCH   7  11
ENDBRANCH   2   3
TORSDOF 7
ENDMDL
MODEL      160
REMARK 921   NORMALIZED FREE ENERGY PREDICTED BY IDOCK:    8.63 KCAL/MOL
REMARK 922        TOTAL FREE ENERGY PREDICTED BY IDOCK:   10.24 KCAL/MOL
REMARK 923 INTER-LIGAND FREE ENERGY PREDICTED BY IDOCK:   11.29 KCAL/MOL
REMARK 924 INTRA-LIGAND FREE ENERGY PREDICTED BY IDOCK:   -1.06 KCAL/MOL
REMARK 927      BINDING AFFINITY PREDICTED BY RF-SCORE:    0.00 PKD
ROOT
HETATM    1  C   UNL     1     -11.469   1.687  66.620  1.00  0.00     9.940 C  
HETATM    2  O   UNL     1     -10.104   2.079  66.502  1.00  0.00     0.975 OA 
ENDROOT
BRANCH   2   3
HETATM    3  C   UNL     1      -9.874   3.429  66.573  1.00  0.00     0.193 A  
HETATM    4  C   UNL     1      -9.198   3.980  65.487  1.00  0.00    -0.150 A  
HETATM    5  C   UNL     1      -8.881   5.336  65.442  1.00  0.00    -0.152 A  
HETATM    6  O   UNL     1      -8.807   3.190  64.440  1.00  0.00    -0.100 OA 
HETATM    7  C   UNL     1      -9.257   6.203  66.489  1.00  0.00    -0.161 A  
HETATM    8  H   UNL     1      -8.346   3.565  63.700  1.00  0.00     0.000 HD 
HETATM    9  C   UNL     1      -9.962   5.644  67.567  1.00  0.00    -0.180 A  
HETATM   10  C   UNL     1     -10.273   4.272  67.608  1.00  0.00     0.135 A  
BRANCH   7  11
HETATM   11  C   UNL     1      -8.902   7.648  66.458  1.00  0.00    -0.147 C  
HETATM   12  C   UNL     1      -9.352   8.431  65.465  1.00  0.00     0.026 C  
HETATM   13  C   UNL     1      -8.918   9.827  65.392  1.00  0.00    -0.190 C  
HETATM   14  O   UNL     1      -9.302  10.563  64.496  1.00  0.00    -0.209 OA 
HETATM   15  C   UNL     1      -7.994  10.294  66.422  1.00  0.00    -0.121 A  
HETATM   16  C   UNL     1      -7.473  11.584  66.380  1.00  0.00     0.047 A  
HETATM   17  C   UNL     1      -6.634  12.045  67.389  1.00  0.00    -0.134 A  
HETATM   18  O   UNL     1      -7.759  12.475  65.382  1.00  0.00     1.788 OA 
HETATM   19  C   UNL     1      -6.319  11.224  68.468  1.00  0.00    -0.047 A  
HETATM   20  H   UNL     1      -7.403  13.355  65.353  1.00  0.00     0.000 HD 
HETATM   21  C   UNL     1      -6.829   9.906  68.495  1.00  0.00    -0.059 A  
HETATM   22  C   UNL     1      -7.649   9.427  67.456  1.00  0.00    -0.091 A  
HETATM   23  O   UNL     1      -8.094   8.115  67.503  1.00  0.00    -0.119 OA 
BRANCH  19  24
HETATM   24  O   UNL     1      -5.626  11.634  69.574  1.00  0.00    -0.057 OA 
BRANCH  24  25
HETATM   25  C   UNL     1      -6.062  12.779  70.358  1.00  0.00    -0.024 C  
HETATM   26  O   UNL     1      -5.891  14.055  69.719  1.00  0.00    -0.101 OA 
HETATM   27  C   UNL     1      -6.316  15.190  70.480  1.00  0.00     0.035 C  
HETATM   28  H   UNL     1      -5.282  13.159  74.315  1.00  0.00     0.000 HD 
HETATM   29  C   UNL     1      -5.614  15.207  71.854  1.00  0.00     0.311 C  
HETATM   30  O   UNL     1      -5.847  11.484  72.438  1.00  0.00     0.616 OA 
HETATM   31  C   UNL     1      -5.860  13.914  72.608  1.00  0.00     0.292 C  
HETATM   32  O   UNL     1      -6.004  16.268  72.741  1.00  0.00     1.732 OA 
HETATM   33  H   UNL     1      -5.572  16.277  73.586  1.00  0.00     0.000 HD 
HETATM   34  H   UNL     1      -5.469  11.435  73.308  1.00  0.00     0.000 HD 
HETATM   35  O   UNL     1      -5.127  13.969  73.842  1.00  0.00    -0.299 OA 
HETATM   36  C   UNL     1      -5.444  12.700  71.778  1.00  0.00     0.202 C  
BRANCH  27  37
HETATM   37  C   UNL     1      -5.889  16.515  69.811  1.00  0.00    -0.196 C  
BRANCH  37  38
HETATM   38  O   UNL     1      -6.213  16.707  68.440  1.00  0.00    -0.128 OA 
BRANCH  38  39
HETATM   39  C   UNL     1      -6.924  17.962  68.257  1.00  0.00    -0.222 C  
HETATM   40  C   UNL     1      -9.179  18.880  68.210  1.00  0.00    -0.330 C  
HETATM   41  O   UNL     1      -8.331  17.744  68.403  1.00  0.00    -0.279 OA 
HETATM   42  C   UNL     1      -8.903  19.608  66.881  1.00  0.00    -0.331 C  
HETATM   43  C   UNL     1      -9.158  19.797  69.429  1.00  0.00     0.174 C  
HETATM   44  O   UNL     1      -9.292  18.767  65.782  1.00  0.00    -0.404 OA 
HETATM   45  C   UNL     1      -7.419  19.935  66.710  1.00  0.00    -0.254 C  
HETATM   46  O   UNL     1      -7.006  20.997  67.574  1.00  0.00    -0.352 OA 
HETATM   47  C   UNL     1      -6.577  18.668  66.910  1.00  0.00    -0.188 C  
HETATM   48  H   UNL     1      -9.121  19.216  64.962  1.00  0.00     0.000 HD 
HETATM   49  H   UNL     1      -6.084  21.201  67.469  1.00  0.00     0.000 HD 
HETATM   50  O   UNL     1      -5.176  18.978  66.843  1.00  0.00    -0.146 OA 
HETATM   51  H   UNL     1      -4.964  19.408  66.023  1.00  0.00     0.000 HD 
ENDBRANCH  38  39
ENDBRANCH  37  38
ENDBRANCH  27  37
ENDBRANCH  24  25
ENDBRANCH  19  24
ENDBRANCH   7  11
ENDBRANCH   2   3
TORSDOF 7
ENDMDL
MODEL      161
REMARK 921   NORMALIZED FREE ENERGY PREDICTED BY IDOCK:    8.86 KCAL/MOL
REMARK 922        TOTAL FREE ENERGY PREDICTED BY IDOCK:   10.55 KCAL/MOL
REMARK 923 INTER-LIGAND FREE ENERGY PREDICTED BY IDOCK:    7.91 KCAL/MOL
REMARK 924 INTRA-LIGAND FREE ENERGY PREDICTED BY IDOCK:    2.64 KCAL/MOL
REMARK 927      BINDING AFFINITY PREDICTED BY RF-SCORE:    0.00 PKD
ROOT
HETATM    1  C   UNL     1      -5.875   5.285  65.712  1.00  0.00    -0.018 C  
HETATM    2  O   UNL     1      -6.244   6.295  64.776  1.00  0.00    -0.029 OA 
ENDROOT
BRANCH   2   3
HETATM    3  C   UNL     1      -6.958   7.343  65.298  1.00  0.00    -0.059 A  
HETATM    4  C   UNL     1      -8.328   7.318  65.048  1.00  0.00    -0.048 A  
HETATM    5  C   UNL     1      -9.168   8.333  65.502  1.00  0.00    -0.000 A  
HETATM    6  O   UNL     1      -8.882   6.297  64.323  1.00  0.00    -0.296 OA 
HETATM    7  C   UNL     1      -8.658   9.411  66.254  1.00  0.00    -0.142 A  
HETATM    8  H   UNL     1      -9.816   6.279  64.152  1.00  0.00     0.000 HD 
HETATM    9  C   UNL     1      -7.281   9.415  66.525  1.00  0.00    -0.089 A  
HETATM   10  C   UNL     1      -6.438   8.389  66.057  1.00  0.00    -0.053 A  
BRANCH   7  11
HETATM   11  C   UNL     1      -9.546  10.511  66.723  1.00  0.00    -0.170 C  
HETATM   12  C   UNL     1     -10.552  10.249  67.571  1.00  0.00    -0.320 C  
HETATM   13  C   UNL     1     -11.476  11.319  67.949  1.00  0.00    -0.288 C  
HETATM   14  O   UNL     1     -12.407  11.111  68.712  1.00  0.00    -0.539 OA 
HETATM   15  C   UNL     1     -11.248  12.637  67.363  1.00  0.00    -0.337 A  
HETATM   16  C   UNL     1     -12.127  13.688  67.609  1.00  0.00    -0.293 A  
HETATM   17  C   UNL     1     -11.881  14.955  67.092  1.00  0.00    -0.229 A  
HETATM   18  O   UNL     1     -13.252  13.560  68.376  1.00  0.00     1.401 OA 
HETATM   19  C   UNL     1     -10.739  15.193  66.332  1.00  0.00    -0.317 A  
HETATM   20  H   UNL     1     -13.851  14.277  68.544  1.00  0.00     0.000 HD 
HETATM   21  C   UNL     1      -9.862  14.118  66.062  1.00  0.00    -0.329 A  
HETATM   22  C   UNL     1     -10.129  12.827  66.556  1.00  0.00    -0.258 A  
HETATM   23  O   UNL     1      -9.263  11.793  66.233  1.00  0.00    -0.216 OA 
BRANCH  19  24
HETATM   24  O   UNL     1     -10.338  16.430  65.906  1.00  0.00    -0.336 OA 
BRANCH  24  25
HETATM   25  C   UNL     1      -8.933  16.805  65.892  1.00  0.00    -0.068 C  
HETATM   26  O   UNL     1      -8.152  16.283  66.979  1.00  0.00    -0.170 OA 
HETATM   27  C   UNL     1      -6.767  16.646  66.978  1.00  0.00    -0.207 C  
HETATM   28  H   UNL     1      -7.668  20.556  65.030  1.00  0.00     0.000 HD 
HETATM   29  C   UNL     1      -6.616  18.181  66.929  1.00  0.00    -0.181 C  
HETATM   30  O   UNL     1      -9.429  18.755  64.478  1.00  0.00     3.783 OA 
HETATM   31  C   UNL     1      -7.339  18.762  65.729  1.00  0.00    -0.164 C  
HETATM   32  O   UNL     1      -5.268  18.672  66.859  1.00  0.00    -0.131 OA 
HETATM   33  H   UNL     1      -5.175  19.616  66.829  1.00  0.00     0.000 HD 
HETATM   34  H   UNL     1      -9.353  19.695  64.366  1.00  0.00     0.000 HD 
HETATM   35  O   UNL     1      -7.216  20.192  65.781  1.00  0.00    -0.295 OA 
HETATM   36  C   UNL     1      -8.809  18.340  65.710  1.00  0.00     0.464 C  
BRANCH  27  37
HETATM   37  C   UNL     1      -6.069  16.230  68.291  1.00  0.00    -0.114 C  
BRANCH  37  38
HETATM   38  O   UNL     1      -5.939  17.204  69.318  1.00  0.00    -0.182 OA 
BRANCH  38  39
HETATM   39  C   UNL     1      -7.044  18.148  69.265  1.00  0.00    -0.119 C  
HETATM   40  C   UNL     1      -7.513  20.535  69.385  1.00  0.00     0.719 C  
HETATM   41  O   UNL     1      -6.542  19.484  69.378  1.00  0.00    -0.313 OA 
HETATM   42  C   UNL     1      -8.625  20.308  70.427  1.00  0.00     1.667 C  
HETATM   43  C   UNL     1      -8.036  20.811  67.979  1.00  0.00     0.124 C  
HETATM   44  O   UNL     1      -8.073  20.416  71.750  1.00  0.00     0.626 OA 
HETATM   45  C   UNL     1      -9.250  18.920  70.299  1.00  0.00     1.866 C  
HETATM   46  O   UNL     1     -10.081  18.815  69.139  1.00  0.00    -0.466 OA 
HETATM   47  C   UNL     1      -8.153  17.847  70.320  1.00  0.00     2.933 C  
HETATM   48  H   UNL     1      -8.759  20.277  72.393  1.00  0.00     0.000 HD 
HETATM   49  H   UNL     1     -10.470  17.952  69.059  1.00  0.00     0.000 HD 
HETATM   50  O   UNL     1      -8.718  16.544  70.109  1.00  0.00     1.103 OA 
HETATM   51  H   UNL     1      -9.393  16.360  70.752  1.00  0.00     0.000 HD 
ENDBRANCH  38  39
ENDBRANCH  37  38
ENDBRANCH  27  37
ENDBRANCH  24  25
ENDBRANCH  19  24
ENDBRANCH   7  11
ENDBRANCH   2   3
TORSDOF 7
ENDMDL
MODEL      162
REMARK 921   NORMALIZED FREE ENERGY PREDICTED BY IDOCK:   10.12 KCAL/MOL
REMARK 922        TOTAL FREE ENERGY PREDICTED BY IDOCK:   12.33 KCAL/MOL
REMARK 923 INTER-LIGAND FREE ENERGY PREDICTED BY IDOCK:   -0.75 KCAL/MOL
REMARK 924 INTRA-LIGAND FREE ENERGY PREDICTED BY IDOCK:   13.09 KCAL/MOL
REMARK 927      BINDING AFFINITY PREDICTED BY RF-SCORE:    0.00 PKD
ROOT
HETATM    1  C   UNL     1      -9.497   2.045  66.942  1.00  0.00     0.178 C  
HETATM    2  O   UNL     1      -8.800   3.136  66.347  1.00  0.00    -0.128 OA 
ENDROOT
BRANCH   2   3
HETATM    3  C   UNL     1      -9.293   4.380  66.650  1.00  0.00    -0.160 A  
HETATM    4  C   UNL     1      -8.346   5.398  66.724  1.00  0.00    -0.108 A  
HETATM    5  C   UNL     1      -8.709   6.705  67.045  1.00  0.00    -0.113 A  
HETATM    6  O   UNL     1      -7.022   5.131  66.504  1.00  0.00    -0.064 OA 
HETATM    7  C   UNL     1     -10.057   7.044  67.282  1.00  0.00    -0.265 A  
HETATM    8  H   UNL     1      -6.376   5.825  66.554  1.00  0.00     0.000 HD 
HETATM    9  C   UNL     1     -11.008   6.017  67.179  1.00  0.00    -0.360 A  
HETATM   10  C   UNL     1     -10.633   4.698  66.861  1.00  0.00     0.110 A  
BRANCH   7  11
HETATM   11  C   UNL     1     -10.449   8.433  67.647  1.00  0.00    -0.239 C  
HETATM   12  C   UNL     1     -10.916   8.699  68.877  1.00  0.00     0.083 C  
HETATM   13  C   UNL     1     -11.390  10.047  69.194  1.00  0.00    -0.094 C  
HETATM   14  O   UNL     1     -11.829  10.320  70.301  1.00  0.00    -0.265 OA 
HETATM   15  C   UNL     1     -11.332  11.044  68.127  1.00  0.00    -0.374 A  
HETATM   16  C   UNL     1     -11.835  12.327  68.323  1.00  0.00    -0.310 A  
HETATM   17  C   UNL     1     -11.733  13.290  67.325  1.00  0.00    -0.424 A  
HETATM   18  O   UNL     1     -12.428  12.729  69.488  1.00  0.00    -0.035 OA 
HETATM   19  C   UNL     1     -11.108  12.986  66.119  1.00  0.00    -0.287 A  
HETATM   20  H   UNL     1     -12.771  13.605  69.622  1.00  0.00     0.000 HD 
HETATM   21  C   UNL     1     -10.621  11.674  65.913  1.00  0.00    -0.318 A  
HETATM   22  C   UNL     1     -10.756  10.690  66.910  1.00  0.00    -0.237 A  
HETATM   23  O   UNL     1     -10.301   9.406  66.650  1.00  0.00    -0.249 OA 
BRANCH  19  24
HETATM   24  O   UNL     1     -10.831  13.901  65.140  1.00  0.00    -0.320 OA 
BRANCH  24  25
HETATM   25  C   UNL     1      -9.889  14.985  65.364  1.00  0.00    -0.277 C  
HETATM   26  O   UNL     1      -9.086  14.861  66.549  1.00  0.00    -0.265 OA 
HETATM   27  C   UNL     1      -8.155  15.923  66.781  1.00  0.00    -0.266 C  
HETATM   28  H   UNL     1     -10.852  18.882  64.814  1.00  0.00     0.000 HD 
HETATM   29  C   UNL     1      -8.885  17.281  66.797  1.00  0.00    -0.247 C  
HETATM   30  O   UNL     1     -11.219  16.485  63.938  1.00  0.00    -1.440 OA 
HETATM   31  C   UNL     1      -9.660  17.499  65.511  1.00  0.00     0.565 C  
HETATM   32  O   UNL     1      -8.048  18.438  66.959  1.00  0.00    -0.222 OA 
HETATM   33  H   UNL     1      -8.498  19.274  66.968  1.00  0.00     0.000 HD 
HETATM   34  H   UNL     1     -11.671  17.317  63.864  1.00  0.00     0.000 HD 
HETATM   35  O   UNL     1     -10.367  18.745  65.620  1.00  0.00    -0.551 OA 
HETATM   36  C   UNL     1     -10.625  16.344  65.243  1.00  0.00    -0.299 C  
BRANCH  27  37
HETATM   37  C   UNL     1      -7.507  15.815  68.179  1.00  0.00    -0.124 C  
BRANCH  37  38
HETATM   38  O   UNL     1      -8.059  14.886  69.102  1.00  0.00    -0.167 OA 
BRANCH  38  39
HETATM   39  C   UNL     1      -9.449  15.212  69.381  1.00  0.00    -0.183 C  
HETATM   40  C   UNL     1     -11.558  15.665  68.252  1.00  0.00    -0.319 C  
HETATM   41  O   UNL     1     -10.176  15.309  68.152  1.00  0.00    -0.226 OA 
HETATM   42  C   UNL     1     -11.783  16.938  69.090  1.00  0.00     0.767 C  
HETATM   43  C   UNL     1     -12.402  14.477  68.699  1.00  0.00    -0.040 C  
HETATM   44  O   UNL     1     -11.242  18.074  68.395  1.00  0.00    -0.050 OA 
HETATM   45  C   UNL     1     -11.089  16.853  70.449  1.00  0.00     0.360 C  
HETATM   46  O   UNL     1     -11.758  15.948  71.332  1.00  0.00    -0.394 OA 
HETATM   47  C   UNL     1      -9.611  16.489  70.262  1.00  0.00     1.337 C  
HETATM   48  H   UNL     1     -11.381  18.859  68.912  1.00  0.00     0.000 HD 
HETATM   49  H   UNL     1     -11.327  15.895  72.178  1.00  0.00     0.000 HD 
HETATM   50  O   UNL     1      -8.968  16.316  71.534  1.00  0.00     5.263 OA 
HETATM   51  H   UNL     1      -9.067  17.094  72.070  1.00  0.00     0.000 HD 
ENDBRANCH  38  39
ENDBRANCH  37  38
ENDBRANCH  27  37
ENDBRANCH  24  25
ENDBRANCH  19  24
ENDBRANCH   7  11
ENDBRANCH   2   3
TORSDOF 7
ENDMDL
MODEL      163
REMARK 921   NORMALIZED FREE ENERGY PREDICTED BY IDOCK:   11.18 KCAL/MOL
REMARK 922        TOTAL FREE ENERGY PREDICTED BY IDOCK:   13.82 KCAL/MOL
REMARK 923 INTER-LIGAND FREE ENERGY PREDICTED BY IDOCK:   13.74 KCAL/MOL
REMARK 924 INTRA-LIGAND FREE ENERGY PREDICTED BY IDOCK:    0.09 KCAL/MOL
REMARK 927      BINDING AFFINITY PREDICTED BY RF-SCORE:    0.00 PKD
ROOT
HETATM    1  C   UNL     1      -8.089   2.705  68.110  1.00  0.00    -0.058 C  
HETATM    2  O   UNL     1      -8.562   3.161  69.375  1.00  0.00    -0.060 OA 
ENDROOT
BRANCH   2   3
HETATM    3  C   UNL     1      -9.011   4.457  69.399  1.00  0.00    -0.098 A  
HETATM    4  C   UNL     1      -8.326   5.313  70.257  1.00  0.00    -0.106 A  
HETATM    5  C   UNL     1      -8.693   6.650  70.394  1.00  0.00    -0.151 A  
HETATM    6  O   UNL     1      -7.279   4.850  71.009  1.00  0.00    -0.056 OA 
HETATM    7  C   UNL     1      -9.761   7.188  69.647  1.00  0.00    -0.158 A  
HETATM    8  H   UNL     1      -6.812   5.433  71.594  1.00  0.00     0.000 HD 
HETATM    9  C   UNL     1     -10.429   6.325  68.764  1.00  0.00    -0.279 A  
HETATM   10  C   UNL     1     -10.056   4.973  68.636  1.00  0.00    -0.191 A  
BRANCH   7  11
HETATM   11  C   UNL     1     -10.173   8.609  69.805  1.00  0.00    -0.206 C  
HETATM   12  C   UNL     1     -10.770   9.016  70.936  1.00  0.00    -0.319 C  
HETATM   13  C   UNL     1     -11.258  10.391  71.042  1.00  0.00    -0.010 C  
HETATM   14  O   UNL     1     -11.814  10.790  72.054  1.00  0.00     0.596 OA 
HETATM   15  C   UNL     1     -11.069  11.259  69.882  1.00  0.00    -0.183 A  
HETATM   16  C   UNL     1     -11.574  12.556  69.872  1.00  0.00    -0.169 A  
HETATM   17  C   UNL     1     -11.349  13.398  68.789  1.00  0.00    -0.332 A  
HETATM   18  O   UNL     1     -12.287  13.089  70.911  1.00  0.00    -0.366 OA 
HETATM   19  C   UNL     1     -10.599  12.957  67.703  1.00  0.00    -0.223 A  
HETATM   20  H   UNL     1     -12.632  13.975  70.904  1.00  0.00     0.000 HD 
HETATM   21  C   UNL     1     -10.109  11.630  67.704  1.00  0.00    -0.204 A  
HETATM   22  C   UNL     1     -10.367  10.767  68.785  1.00  0.00    -0.192 A  
HETATM   23  O   UNL     1      -9.902   9.462  68.726  1.00  0.00    -0.156 OA 
BRANCH  19  24
HETATM   24  O   UNL     1     -10.202  13.753  66.662  1.00  0.00    -0.266 OA 
BRANCH  24  25
HETATM   25  C   UNL     1      -9.423  14.960  66.889  1.00  0.00    -0.237 C  
HETATM   26  O   UNL     1      -9.988  15.883  67.834  1.00  0.00    -0.219 OA 
HETATM   27  C   UNL     1      -9.231  17.075  68.065  1.00  0.00    -0.241 C  
HETATM   28  H   UNL     1      -7.672  17.040  63.885  1.00  0.00     0.000 HD 
HETATM   29  C   UNL     1      -8.963  17.805  66.732  1.00  0.00    -0.259 C  
HETATM   30  O   UNL     1      -8.294  14.681  64.721  1.00  0.00     4.102 OA 
HETATM   31  C   UNL     1      -8.266  16.893  65.740  1.00  0.00     0.323 C  
HETATM   32  O   UNL     1      -8.154  18.989  66.822  1.00  0.00    -0.251 OA 
HETATM   33  H   UNL     1      -7.989  19.438  66.002  1.00  0.00     0.000 HD 
HETATM   34  H   UNL     1      -8.070  15.074  63.886  1.00  0.00     0.000 HD 
HETATM   35  O   UNL     1      -8.108  17.611  64.506  1.00  0.00     4.371 OA 
HETATM   36  C   UNL     1      -9.056  15.602  65.526  1.00  0.00     0.297 C  
BRANCH  27  37
HETATM   37  C   UNL     1     -10.021  18.095  68.914  1.00  0.00    -0.338 C  
BRANCH  37  38
HETATM   38  O   UNL     1      -9.580  18.345  70.241  1.00  0.00     1.400 OA 
BRANCH  38  39
HETATM   39  C   UNL     1      -8.126  18.359  70.300  1.00  0.00     2.571 C  
HETATM   40  C   UNL     1      -6.186  19.286  69.157  1.00  0.00    -0.271 C  
HETATM   41  O   UNL     1      -7.610  19.198  69.262  1.00  0.00    -0.275 OA 
HETATM   42  C   UNL     1      -5.509  17.903  69.092  1.00  0.00    -0.192 C  
HETATM   43  C   UNL     1      -5.611  20.202  70.232  1.00  0.00    -0.334 C  
HETATM   44  O   UNL     1      -5.850  17.259  67.853  1.00  0.00    -0.119 OA 
HETATM   45  C   UNL     1      -5.969  16.992  70.229  1.00  0.00    -0.022 C  
HETATM   46  O   UNL     1      -5.417  17.391  71.487  1.00  0.00    -0.034 OA 
HETATM   47  C   UNL     1      -7.502  16.930  70.265  1.00  0.00     1.964 C  
HETATM   48  H   UNL     1      -5.433  16.406  67.813  1.00  0.00     0.000 HD 
HETATM   49  H   UNL     1      -5.703  16.824  72.195  1.00  0.00     0.000 HD 
HETATM   50  O   UNL     1      -7.949  16.150  71.385  1.00  0.00     4.685 OA 
HETATM   51  H   UNL     1      -7.569  15.280  71.364  1.00  0.00     0.000 HD 
ENDBRANCH  38  39
ENDBRANCH  37  38
ENDBRANCH  27  37
ENDBRANCH  24  25
ENDBRANCH  19  24
ENDBRANCH   7  11
ENDBRANCH   2   3
TORSDOF 7
ENDMDL
MODEL      164
REMARK 921   NORMALIZED FREE ENERGY PREDICTED BY IDOCK:   11.37 KCAL/MOL
REMARK 922        TOTAL FREE ENERGY PREDICTED BY IDOCK:   14.09 KCAL/MOL
REMARK 923 INTER-LIGAND FREE ENERGY PREDICTED BY IDOCK:   -2.90 KCAL/MOL
REMARK 924 INTRA-LIGAND FREE ENERGY PREDICTED BY IDOCK:   16.99 KCAL/MOL
REMARK 927      BINDING AFFINITY PREDICTED BY RF-SCORE:    0.00 PKD
ROOT
HETATM    1  C   UNL     1      -5.862  20.467  66.452  1.00  0.00    -0.182 C  
HETATM    2  O   UNL     1      -5.420  19.184  66.887  1.00  0.00    -0.163 OA 
ENDROOT
BRANCH   2   3
HETATM    3  C   UNL     1      -6.419  18.287  67.169  1.00  0.00    -0.174 A  
HETATM    4  C   UNL     1      -6.240  17.008  66.647  1.00  0.00    -0.205 A  
HETATM    5  C   UNL     1      -7.189  16.006  66.840  1.00  0.00    -0.212 A  
HETATM    6  O   UNL     1      -5.127  16.710  65.907  1.00  0.00     0.122 OA 
HETATM    7  C   UNL     1      -8.356  16.250  67.593  1.00  0.00    -0.172 A  
HETATM    8  H   UNL     1      -5.005  15.838  65.552  1.00  0.00     0.000 HD 
HETATM    9  C   UNL     1      -8.515  17.533  68.138  1.00  0.00    -0.254 A  
HETATM   10  C   UNL     1      -7.555  18.542  67.933  1.00  0.00    -0.252 A  
BRANCH   7  11
HETATM   11  C   UNL     1      -9.385  15.191  67.784  1.00  0.00    -0.189 C  
HETATM   12  C   UNL     1     -10.673  15.527  67.953  1.00  0.00    -0.294 C  
HETATM   13  C   UNL     1     -11.661  14.485  68.236  1.00  0.00    -0.329 C  
HETATM   14  O   UNL     1     -12.839  14.758  68.403  1.00  0.00     0.596 OA 
HETATM   15  C   UNL     1     -11.174  13.110  68.328  1.00  0.00    -0.307 A  
HETATM   16  C   UNL     1     -12.035  12.071  68.672  1.00  0.00    -0.235 A  
HETATM   17  C   UNL     1     -11.583  10.757  68.709  1.00  0.00    -0.350 A  
HETATM   18  O   UNL     1     -13.357  12.261  68.966  1.00  0.00     2.217 OA 
HETATM   19  C   UNL     1     -10.262  10.461  68.385  1.00  0.00    -0.165 A  
HETATM   20  H   UNL     1     -13.944  11.552  69.200  1.00  0.00     0.000 HD 
HETATM   21  C   UNL     1      -9.383  11.521  68.062  1.00  0.00    -0.175 A  
HETATM   22  C   UNL     1      -9.832  12.855  68.059  1.00  0.00    -0.223 A  
HETATM   23  O   UNL     1      -8.927  13.867  67.775  1.00  0.00    -0.171 OA 
BRANCH  19  24
HETATM   24  O   UNL     1      -9.763   9.194  68.252  1.00  0.00    -0.149 OA 
BRANCH  24  25
HETATM   25  C   UNL     1      -8.935   8.823  67.115  1.00  0.00    -0.131 C  
HETATM   26  O   UNL     1      -8.229   7.580  67.255  1.00  0.00    -0.113 OA 
HETATM   27  C   UNL     1      -7.409   7.204  66.143  1.00  0.00    -0.075 C  
HETATM   28  H   UNL     1      -6.581  11.475  65.155  1.00  0.00     0.000 HD 
HETATM   29  C   UNL     1      -6.406   8.329  65.814  1.00  0.00    -0.052 C  
HETATM   30  O   UNL     1      -8.829  11.169  66.382  1.00  0.00    -0.167 OA 
HETATM   31  C   UNL     1      -7.123   9.640  65.552  1.00  0.00    -0.098 C  
HETATM   32  O   UNL     1      -5.565   8.099  64.671  1.00  0.00    -0.043 OA 
HETATM   33  H   UNL     1      -4.948   8.792  64.469  1.00  0.00     0.000 HD 
HETATM   34  H   UNL     1      -8.274  11.901  66.142  1.00  0.00     0.000 HD 
HETATM   35  O   UNL     1      -6.132  10.654  65.319  1.00  0.00    -0.126 OA 
HETATM   36  C   UNL     1      -8.029  10.019  66.723  1.00  0.00    -0.114 C  
BRANCH  27  37
HETATM   37  C   UNL     1      -6.525   5.982  66.475  1.00  0.00    -0.046 C  
BRANCH  37  38
HETATM   38  O   UNL     1      -6.797   5.266  67.672  1.00  0.00    -0.057 OA 
BRANCH  38  39
HETATM   39  C   UNL     1      -6.567   6.111  68.834  1.00  0.00    -0.051 C  
HETATM   40  C   UNL     1      -7.252   6.379  71.155  1.00  0.00    -0.079 C  
HETATM   41  O   UNL     1      -7.337   5.628  69.940  1.00  0.00    -0.066 OA 
HETATM   42  C   UNL     1      -7.529   7.880  70.945  1.00  0.00    -0.073 C  
HETATM   43  C   UNL     1      -5.948   6.092  71.891  1.00  0.00    -0.036 C  
HETATM   44  O   UNL     1      -8.908   8.069  70.583  1.00  0.00    -0.139 OA 
HETATM   45  C   UNL     1      -6.672   8.464  69.822  1.00  0.00    -0.039 C  
HETATM   46  O   UNL     1      -5.303   8.598  70.212  1.00  0.00    -0.022 OA 
HETATM   47  C   UNL     1      -6.830   7.621  68.549  1.00  0.00    -0.066 C  
HETATM   48  H   UNL     1      -9.078   8.995  70.454  1.00  0.00     0.000 HD 
HETATM   49  H   UNL     1      -4.770   8.961  69.514  1.00  0.00     0.000 HD 
HETATM   50  O   UNL     1      -5.961   8.104  67.513  1.00  0.00    -0.044 OA 
HETATM   51  H   UNL     1      -6.122   9.025  67.340  1.00  0.00     0.000 HD 
ENDBRANCH  38  39
ENDBRANCH  37  38
ENDBRANCH  27  37
ENDBRANCH  24  25
ENDBRANCH  19  24
ENDBRANCH   7  11
ENDBRANCH   2   3
TORSDOF 7
ENDMDL
MODEL      165
REMARK 921   NORMALIZED FREE ENERGY PREDICTED BY IDOCK:   13.23 KCAL/MOL
REMARK 922        TOTAL FREE ENERGY PREDICTED BY IDOCK:   16.72 KCAL/MOL
REMARK 923 INTER-LIGAND FREE ENERGY PREDICTED BY IDOCK:   12.37 KCAL/MOL
REMARK 924 INTRA-LIGAND FREE ENERGY PREDICTED BY IDOCK:    4.35 KCAL/MOL
REMARK 927      BINDING AFFINITY PREDICTED BY RF-SCORE:    0.00 PKD
ROOT
HETATM    1  C   UNL     1      -9.692   3.714  71.572  1.00  0.00    -0.167 C  
HETATM    2  O   UNL     1      -8.879   4.883  71.532  1.00  0.00    -0.129 OA 
ENDROOT
BRANCH   2   3
HETATM    3  C   UNL     1      -9.317   5.872  70.688  1.00  0.00    -0.160 A  
HETATM    4  C   UNL     1      -8.331   6.725  70.202  1.00  0.00    -0.135 A  
HETATM    5  C   UNL     1      -8.642   7.786  69.354  1.00  0.00    -0.135 A  
HETATM    6  O   UNL     1      -7.023   6.553  70.568  1.00  0.00    -0.060 OA 
HETATM    7  C   UNL     1      -9.969   8.016  68.939  1.00  0.00    -0.199 A  
HETATM    8  H   UNL     1      -6.349   7.135  70.237  1.00  0.00     0.000 HD 
HETATM    9  C   UNL     1     -10.955   7.135  69.412  1.00  0.00    -0.189 A  
HETATM   10  C   UNL     1     -10.633   6.069  70.275  1.00  0.00    -0.338 A  
BRANCH   7  11
HETATM   11  C   UNL     1     -10.313   9.160  68.051  1.00  0.00    -0.222 C  
HETATM   12  C   UNL     1     -11.231   9.010  67.083  1.00  0.00     0.712 C  
HETATM   13  C   UNL     1     -11.490  10.111  66.155  1.00  0.00     1.580 C  
HETATM   14  O   UNL     1     -12.312  10.004  65.259  1.00  0.00     5.480 OA 
HETATM   15  C   UNL     1     -10.711  11.334  66.335  1.00  0.00    -0.320 A  
HETATM   16  C   UNL     1     -10.840  12.398  65.448  1.00  0.00    -0.285 A  
HETATM   17  C   UNL     1     -10.137  13.581  65.649  1.00  0.00    -0.292 A  
HETATM   18  O   UNL     1     -11.665  12.367  64.356  1.00  0.00    -0.331 OA 
HETATM   19  C   UNL     1      -9.305  13.722  66.755  1.00  0.00    -0.266 A  
HETATM   20  H   UNL     1     -11.753  13.094  63.750  1.00  0.00     0.000 HD 
HETATM   21  C   UNL     1      -9.155  12.630  67.642  1.00  0.00    -0.192 A  
HETATM   22  C   UNL     1      -9.840  11.420  67.418  1.00  0.00    -0.182 A  
HETATM   23  O   UNL     1      -9.632  10.361  68.289  1.00  0.00    -0.139 OA 
BRANCH  19  24
HETATM   24  O   UNL     1      -8.689  14.889  67.117  1.00  0.00    -0.192 OA 
BRANCH  24  25
HETATM   25  C   UNL     1      -9.265  15.767  68.123  1.00  0.00    -0.189 C  
HETATM   26  O   UNL     1      -8.381  16.781  68.627  1.00  0.00    -0.232 OA 
HETATM   27  C   UNL     1      -8.936  17.651  69.618  1.00  0.00     0.929 C  
HETATM   28  H   UNL     1     -11.592  14.411  71.150  1.00  0.00     0.000 HD 
HETATM   29  C   UNL     1      -9.498  16.830  70.797  1.00  0.00     3.469 C  
HETATM   30  O   UNL     1     -10.973  14.082  68.668  1.00  0.00    -0.245 OA 
HETATM   31  C   UNL     1     -10.521  15.817  70.318  1.00  0.00    -0.225 C  
HETATM   32  O   UNL     1     -10.143  17.588  71.834  1.00  0.00     4.668 OA 
HETATM   33  H   UNL     1     -10.488  17.082  72.559  1.00  0.00     0.000 HD 
HETATM   34  H   UNL     1     -11.385  13.560  69.346  1.00  0.00     0.000 HD 
HETATM   35  O   UNL     1     -10.951  15.045  71.450  1.00  0.00    -0.221 OA 
HETATM   36  C   UNL     1      -9.939  14.915  69.229  1.00  0.00    -0.175 C  
BRANCH  27  37
HETATM   37  C   UNL     1      -7.854  18.551  70.254  1.00  0.00     2.187 C  
BRANCH  37  38
HETATM   38  O   UNL     1      -6.765  18.966  69.441  1.00  0.00    -0.292 OA 
BRANCH  38  39
HETATM   39  C   UNL     1      -7.060  18.728  68.036  1.00  0.00    -0.237 C  
HETATM   40  C   UNL     1      -5.979  18.626  65.857  1.00  0.00    -0.187 C  
HETATM   41  O   UNL     1      -5.852  18.799  67.272  1.00  0.00    -0.159 OA 
HETATM   42  C   UNL     1      -7.040  19.556  65.238  1.00  0.00    -0.053 C  
HETATM   43  C   UNL     1      -6.163  17.156  65.496  1.00  0.00     1.062 C  
HETATM   44  O   UNL     1      -6.594  20.920  65.324  1.00  0.00    -0.443 OA 
HETATM   45  C   UNL     1      -8.377  19.460  65.973  1.00  0.00    -0.220 C  
HETATM   46  O   UNL     1      -9.049  18.228  65.696  1.00  0.00    -0.277 OA 
HETATM   47  C   UNL     1      -8.166  19.675  67.477  1.00  0.00    -0.297 C  
HETATM   48  H   UNL     1      -7.248  21.493  64.943  1.00  0.00     0.000 HD 
HETATM   49  H   UNL     1      -9.880  18.167  66.152  1.00  0.00     0.000 HD 
HETATM   50  O   UNL     1      -9.399  19.498  68.190  1.00  0.00    -0.327 OA 
HETATM   51  H   UNL     1     -10.072  20.075  67.850  1.00  0.00     0.000 HD 
ENDBRANCH  38  39
ENDBRANCH  37  38
ENDBRANCH  27  37
ENDBRANCH  24  25
ENDBRANCH  19  24
ENDBRANCH   7  11
ENDBRANCH   2   3
TORSDOF 7
ENDMDL
MODEL      166
REMARK 921   NORMALIZED FREE ENERGY PREDICTED BY IDOCK:   17.22 KCAL/MOL
REMARK 922        TOTAL FREE ENERGY PREDICTED BY IDOCK:   22.34 KCAL/MOL
REMARK 923 INTER-LIGAND FREE ENERGY PREDICTED BY IDOCK:    8.93 KCAL/MOL
REMARK 924 INTRA-LIGAND FREE ENERGY PREDICTED BY IDOCK:   13.41 KCAL/MOL
REMARK 927      BINDING AFFINITY PREDICTED BY RF-SCORE:    0.00 PKD
ROOT
HETATM    1  C   UNL     1     -11.309  19.785  72.409  1.00  0.00     8.654 C  
HETATM    2  O   UNL     1     -10.169  19.929  71.567  1.00  0.00     1.793 OA 
ENDROOT
BRANCH   2   3
HETATM    3  C   UNL     1     -10.168  19.142  70.443  1.00  0.00     1.417 A  
HETATM    4  C   UNL     1     -10.578  17.825  70.634  1.00  0.00     1.798 A  
HETATM    5  C   UNL     1     -10.604  16.913  69.581  1.00  0.00    -0.172 A  
HETATM    6  O   UNL     1     -10.948  17.387  71.878  1.00  0.00     0.768 OA 
HETATM    7  C   UNL     1     -10.236  17.303  68.277  1.00  0.00    -0.348 A  
HETATM    8  H   UNL     1     -11.228  16.489  72.008  1.00  0.00     0.000 HD 
HETATM    9  C   UNL     1      -9.850  18.639  68.088  1.00  0.00    -0.391 A  
HETATM   10  C   UNL     1      -9.820  19.553  69.159  1.00  0.00    -0.431 A  
BRANCH   7  11
HETATM   11  C   UNL     1     -10.239  16.328  67.152  1.00  0.00    -0.276 C  
HETATM   12  C   UNL     1     -10.917  16.602  66.026  1.00  0.00     0.085 C  
HETATM   13  C   UNL     1     -10.993  15.596  64.966  1.00  0.00    -0.431 C  
HETATM   14  O   UNL     1     -11.610  15.810  63.933  1.00  0.00    -0.394 OA 
HETATM   15  C   UNL     1     -10.318  14.322  65.203  1.00  0.00    -0.440 A  
HETATM   16  C   UNL     1     -10.408  13.285  64.279  1.00  0.00    -0.294 A  
HETATM   17  C   UNL     1      -9.724  12.092  64.481  1.00  0.00    -0.060 A  
HETATM   18  O   UNL     1     -11.138  13.372  63.125  1.00  0.00    -0.144 OA 
HETATM   19  C   UNL     1      -8.922  11.926  65.607  1.00  0.00     0.111 A  
HETATM   20  H   UNL     1     -11.199  12.664  62.494  1.00  0.00     0.000 HD 
HETATM   21  C   UNL     1      -8.853  12.972  66.557  1.00  0.00    -0.009 A  
HETATM   22  C   UNL     1      -9.574  14.166  66.369  1.00  0.00    -0.293 A  
HETATM   23  O   UNL     1      -9.510  15.148  67.346  1.00  0.00    -0.201 OA 
BRANCH  19  24
HETATM   24  O   UNL     1      -8.100  10.853  65.819  1.00  0.00    -0.157 OA 
BRANCH  24  25
HETATM   25  C   UNL     1      -8.513   9.503  65.469  1.00  0.00    -0.140 C  
HETATM   26  O   UNL     1      -8.185   8.495  66.438  1.00  0.00    -0.104 OA 
HETATM   27  C   UNL     1      -8.587   7.161  66.105  1.00  0.00    -0.146 C  
HETATM   28  H   UNL     1      -8.068   7.965  61.748  1.00  0.00     0.000 HD 
HETATM   29  C   UNL     1      -8.013   6.758  64.731  1.00  0.00    -0.120 C  
HETATM   30  O   UNL     1      -8.591  10.106  63.086  1.00  0.00    -0.160 OA 
HETATM   31  C   UNL     1      -8.428   7.744  63.655  1.00  0.00     0.251 C  
HETATM   32  O   UNL     1      -8.397   5.459  64.252  1.00  0.00    -0.133 OA 
HETATM   33  H   UNL     1      -8.044   5.211  63.407  1.00  0.00     0.000 HD 
HETATM   34  H   UNL     1      -8.298   9.904  62.205  1.00  0.00     0.000 HD 
HETATM   35  O   UNL     1      -7.808   7.348  62.422  1.00  0.00    -0.114 OA 
HETATM   36  C   UNL     1      -8.035   9.172  64.032  1.00  0.00    -0.141 C  
BRANCH  27  37
HETATM   37  C   UNL     1      -7.998   6.128  67.090  1.00  0.00    -0.102 C  
BRANCH  37  38
HETATM   38  O   UNL     1      -7.442   6.605  68.308  1.00  0.00    -0.091 OA 
BRANCH  38  39
HETATM   39  C   UNL     1      -8.181   7.764  68.785  1.00  0.00    -0.128 C  
HETATM   40  C   UNL     1      -8.891   8.850  70.845  1.00  0.00    -0.219 C  
HETATM   41  O   UNL     1      -8.168   7.787  70.215  1.00  0.00    -0.121 OA 
HETATM   42  C   UNL     1     -10.341   8.963  70.337  1.00  0.00    -0.204 C  
HETATM   43  C   UNL     1      -8.113  10.160  70.780  1.00  0.00     0.963 C  
HETATM   44  O   UNL     1     -11.090   7.812  70.762  1.00  0.00    -0.249 OA 
HETATM   45  C   UNL     1     -10.405   9.019  68.811  1.00  0.00    -0.215 C  
HETATM   46  O   UNL     1      -9.951  10.278  68.306  1.00  0.00    -0.143 OA 
HETATM   47  C   UNL     1      -9.628   7.841  68.209  1.00  0.00    -0.155 C  
HETATM   48  H   UNL     1     -11.985   7.881  70.449  1.00  0.00     0.000 HD 
HETATM   49  H   UNL     1      -9.991  10.313  67.357  1.00  0.00     0.000 HD 
HETATM   50  O   UNL     1      -9.604   7.932  66.776  1.00  0.00    -0.184 OA 
HETATM   51  H   UNL     1     -10.486   7.979  66.426  1.00  0.00     0.000 HD 
ENDBRANCH  38  39
ENDBRANCH  37  38
ENDBRANCH  27  37
ENDBRANCH  24  25
ENDBRANCH  19  24
ENDBRANCH   7  11
ENDBRANCH   2   3
TORSDOF 7
ENDMDL
MODEL      167
REMARK 921   NORMALIZED FREE ENERGY PREDICTED BY IDOCK:   17.66 KCAL/MOL
REMARK 922        TOTAL FREE ENERGY PREDICTED BY IDOCK:   22.96 KCAL/MOL
REMARK 923 INTER-LIGAND FREE ENERGY PREDICTED BY IDOCK:   24.23 KCAL/MOL
REMARK 924 INTRA-LIGAND FREE ENERGY PREDICTED BY IDOCK:   -1.27 KCAL/MOL
REMARK 927      BINDING AFFINITY PREDICTED BY RF-SCORE:    0.00 PKD
ROOT
HETATM    1  C   UNL     1     -11.782   1.735  66.609  1.00  0.00    12.901 C  
HETATM    2  O   UNL     1     -10.453   2.241  66.525  1.00  0.00     2.185 OA 
ENDROOT
BRANCH   2   3
HETATM    3  C   UNL     1     -10.347   3.609  66.519  1.00  0.00     0.985 A  
HETATM    4  C   UNL     1      -9.614   4.149  65.465  1.00  0.00    -0.188 A  
HETATM    5  C   UNL     1      -9.410   5.523  65.352  1.00  0.00     0.044 A  
HETATM    6  O   UNL     1      -9.052   3.332  64.521  1.00  0.00    -0.121 OA 
HETATM    7  C   UNL     1      -9.963   6.416  66.291  1.00  0.00    -0.010 A  
HETATM    8  H   UNL     1      -8.552   3.700  63.802  1.00  0.00     0.000 HD 
HETATM    9  C   UNL     1     -10.723   5.866  67.335  1.00  0.00    -0.370 A  
HETATM   10  C   UNL     1     -10.919   4.476  67.447  1.00  0.00     1.625 A  
BRANCH   7  11
HETATM   11  C   UNL     1      -9.731   7.883  66.189  1.00  0.00    -0.009 C  
HETATM   12  C   UNL     1     -10.096   8.547  65.081  1.00  0.00     1.857 C  
HETATM   13  C   UNL     1      -9.776   9.969  64.952  1.00  0.00    -0.307 C  
HETATM   14  O   UNL     1     -10.086  10.600  63.953  1.00  0.00    -0.328 OA 
HETATM   15  C   UNL     1      -9.054  10.595  66.058  1.00  0.00    -0.201 A  
HETATM   16  C   UNL     1      -8.643  11.922  65.980  1.00  0.00     0.132 A  
HETATM   17  C   UNL     1      -8.002  12.532  67.053  1.00  0.00    -0.086 A  
HETATM   18  O   UNL     1      -8.856  12.709  64.881  1.00  0.00     0.451 OA 
HETATM   19  C   UNL     1      -7.779  11.824  68.230  1.00  0.00    -0.130 A  
HETATM   20  H   UNL     1      -8.575  13.615  64.828  1.00  0.00     0.000 HD 
HETATM   21  C   UNL     1      -8.174  10.467  68.297  1.00  0.00    -0.117 A  
HETATM   22  C   UNL     1      -8.791   9.840  67.198  1.00  0.00    -0.132 A  
HETATM   23  O   UNL     1      -9.125   8.498  67.293  1.00  0.00    -0.131 OA 
BRANCH  19  24
HETATM   24  O   UNL     1      -7.291  12.375  69.383  1.00  0.00     0.117 OA 
BRANCH  24  25
HETATM   25  C   UNL     1      -6.720  11.546  70.434  1.00  0.00     0.624 C  
HETATM   26  O   UNL     1      -7.571  10.491  70.909  1.00  0.00     0.440 OA 
HETATM   27  C   UNL     1      -7.020   9.669  71.943  1.00  0.00     0.818 C  
HETATM   28  H   UNL     1      -4.638  13.080  73.553  1.00  0.00     0.000 HD 
HETATM   29  C   UNL     1      -6.569  10.539  73.135  1.00  0.00     3.421 C  
HETATM   30  O   UNL     1      -5.143  13.336  71.038  1.00  0.00    -0.115 OA 
HETATM   31  C   UNL     1      -5.582  11.602  72.692  1.00  0.00     1.333 C  
HETATM   32  O   UNL     1      -5.939   9.835  74.217  1.00  0.00    -0.332 OA 
HETATM   33  H   UNL     1      -5.661  10.370  74.950  1.00  0.00     0.000 HD 
HETATM   34  H   UNL     1      -4.798  13.891  71.726  1.00  0.00     0.000 HD 
HETATM   35  O   UNL     1      -5.257  12.414  73.831  1.00  0.00    -0.353 OA 
HETATM   36  C   UNL     1      -6.156  12.453  71.559  1.00  0.00     1.488 C  
BRANCH  27  37
HETATM   37  C   UNL     1      -8.081   8.717  72.538  1.00  0.00     0.028 C  
BRANCH  37  38
HETATM   38  O   UNL     1      -9.034   8.140  71.654  1.00  0.00    -0.138 OA 
BRANCH  38  39
HETATM   39  C   UNL     1      -9.020   6.690  71.768  1.00  0.00    -0.140 C  
HETATM   40  C   UNL     1      -9.274   4.910  73.410  1.00  0.00    -0.123 C  
HETATM   41  O   UNL     1      -9.292   6.311  73.121  1.00  0.00    -0.136 OA 
HETATM   42  C   UNL     1      -7.983   4.222  72.928  1.00  0.00    -0.086 C  
HETATM   43  C   UNL     1     -10.551   4.231  72.925  1.00  0.00    -0.255 C  
HETATM   44  O   UNL     1      -6.869   4.691  73.706  1.00  0.00    -0.065 OA 
HETATM   45  C   UNL     1      -7.687   4.532  71.462  1.00  0.00    -0.082 C  
HETATM   46  O   UNL     1      -8.582   3.847  70.581  1.00  0.00    -0.068 OA 
HETATM   47  C   UNL     1      -7.703   6.050  71.233  1.00  0.00    -0.110 C  
HETATM   48  H   UNL     1      -6.072   4.267  73.409  1.00  0.00     0.000 HD 
HETATM   49  H   UNL     1      -8.399   4.040  69.669  1.00  0.00     0.000 HD 
HETATM   50  O   UNL     1      -7.516   6.352  69.842  1.00  0.00    -0.083 OA 
HETATM   51  H   UNL     1      -6.714   5.962  69.516  1.00  0.00     0.000 HD 
ENDBRANCH  38  39
ENDBRANCH  37  38
ENDBRANCH  27  37
ENDBRANCH  24  25
ENDBRANCH  19  24
ENDBRANCH   7  11
ENDBRANCH   2   3
TORSDOF 7
ENDMDL
MODEL      168
REMARK 921   NORMALIZED FREE ENERGY PREDICTED BY IDOCK:   18.45 KCAL/MOL
REMARK 922        TOTAL FREE ENERGY PREDICTED BY IDOCK:   24.07 KCAL/MOL
REMARK 923 INTER-LIGAND FREE ENERGY PREDICTED BY IDOCK:   24.22 KCAL/MOL
REMARK 924 INTRA-LIGAND FREE ENERGY PREDICTED BY IDOCK:   -0.16 KCAL/MOL
REMARK 927      BINDING AFFINITY PREDICTED BY RF-SCORE:    0.00 PKD
ROOT
HETATM    1  C   UNL     1     -11.177   5.012  66.192  1.00  0.00     0.544 C  
HETATM    2  O   UNL     1     -10.988   4.942  67.603  1.00  0.00     0.358 OA 
ENDROOT
BRANCH   2   3
HETATM    3  C   UNL     1     -11.244   6.104  68.286  1.00  0.00    -0.086 A  
HETATM    4  C   UNL     1     -12.487   6.681  68.040  1.00  0.00     5.446 A  
HETATM    5  C   UNL     1     -12.867   7.875  68.651  1.00  0.00     7.401 A  
HETATM    6  O   UNL     1     -13.364   6.096  67.166  1.00  0.00     9.592 OA 
HETATM    7  C   UNL     1     -12.010   8.526  69.562  1.00  0.00     1.249 A  
HETATM    8  H   UNL     1     -14.211   6.489  66.998  1.00  0.00     0.000 HD 
HETATM    9  C   UNL     1     -10.770   7.923  69.824  1.00  0.00    -0.233 A  
HETATM   10  C   UNL     1     -10.391   6.721  69.198  1.00  0.00    -0.213 A  
BRANCH   7  11
HETATM   11  C   UNL     1     -12.399   9.813  70.201  1.00  0.00     0.170 C  
HETATM   12  C   UNL     1     -12.890   9.822  71.451  1.00  0.00    -0.489 C  
HETATM   13  C   UNL     1     -13.359  11.080  72.033  1.00  0.00    -0.288 C  
HETATM   14  O   UNL     1     -13.819  11.121  73.164  1.00  0.00     1.640 OA 
HETATM   15  C   UNL     1     -13.272  12.277  71.200  1.00  0.00     0.044 A  
HETATM   16  C   UNL     1     -13.769  13.496  71.649  1.00  0.00    -0.199 A  
HETATM   17  C   UNL     1     -13.639  14.645  70.877  1.00  0.00    -0.234 A  
HETATM   18  O   UNL     1     -14.383  13.653  72.862  1.00  0.00    -0.452 OA 
HETATM   19  C   UNL     1     -12.992  14.592  69.646  1.00  0.00     0.421 A  
HETATM   20  H   UNL     1     -14.722  14.486  73.169  1.00  0.00     0.000 HD 
HETATM   21  C   UNL     1     -12.511  13.347  69.179  1.00  0.00     0.158 A  
HETATM   22  C   UNL     1     -12.674  12.177  69.946  1.00  0.00     0.406 A  
HETATM   23  O   UNL     1     -12.223  10.971  69.432  1.00  0.00    -0.350 OA 
BRANCH  19  24
HETATM   24  O   UNL     1     -12.688  15.688  68.884  1.00  0.00     0.294 OA 
BRANCH  24  25
HETATM   25  C   UNL     1     -11.329  15.938  68.430  1.00  0.00    -0.361 C  
HETATM   26  O   UNL     1     -10.876  15.089  67.364  1.00  0.00    -0.290 OA 
HETATM   27  C   UNL     1      -9.539  15.326  66.908  1.00  0.00    -0.233 C  
HETATM   28  H   UNL     1      -8.255  16.629  70.977  1.00  0.00     0.000 HD 
HETATM   29  C   UNL     1      -8.549  15.240  68.089  1.00  0.00    -0.160 C  
HETATM   30  O   UNL     1     -10.773  17.011  70.573  1.00  0.00    -0.054 OA 
HETATM   31  C   UNL     1      -8.933  16.204  69.195  1.00  0.00    -0.237 C  
HETATM   32  O   UNL     1      -7.176  15.522  67.772  1.00  0.00    -0.128 OA 
HETATM   33  H   UNL     1      -6.567  15.469  68.498  1.00  0.00     0.000 HD 
HETATM   34  H   UNL     1     -10.189  17.034  71.321  1.00  0.00     0.000 HD 
HETATM   35  O   UNL     1      -8.015  16.025  70.284  1.00  0.00     0.813 OA 
HETATM   36  C   UNL     1     -10.375  15.977  69.652  1.00  0.00    -0.283 C  
BRANCH  27  37
HETATM   37  C   UNL     1      -9.070  14.229  65.928  1.00  0.00     0.261 C  
BRANCH  37  38
HETATM   38  O   UNL     1      -9.167  12.873  66.345  1.00  0.00    -0.221 OA 
BRANCH  38  39
HETATM   39  C   UNL     1      -8.013  12.506  67.151  1.00  0.00    -0.140 C  
HETATM   40  C   UNL     1      -5.579  12.486  67.089  1.00  0.00     0.005 C  
HETATM   41  O   UNL     1      -6.811  12.825  66.444  1.00  0.00     0.719 OA 
HETATM   42  C   UNL     1      -5.536  11.016  67.549  1.00  0.00    -0.045 C  
HETATM   43  C   UNL     1      -5.240  13.484  68.190  1.00  0.00    -0.106 C  
HETATM   44  O   UNL     1      -5.508  10.153  66.399  1.00  0.00    -0.043 OA 
HETATM   45  C   UNL     1      -6.766  10.643  68.376  1.00  0.00    -0.060 C  
HETATM   46  O   UNL     1      -6.727  11.229  69.681  1.00  0.00    -0.124 OA 
HETATM   47  C   UNL     1      -8.044  11.017  67.614  1.00  0.00    -0.116 C  
HETATM   48  H   UNL     1      -5.482   9.246  66.682  1.00  0.00     0.000 HD 
HETATM   49  H   UNL     1      -7.491  10.998  70.195  1.00  0.00     0.000 HD 
HETATM   50  O   UNL     1      -9.205  10.756  68.418  1.00  0.00    -0.150 OA 
HETATM   51  H   UNL     1      -9.224   9.849  68.700  1.00  0.00     0.000 HD 
ENDBRANCH  38  39
ENDBRANCH  37  38
ENDBRANCH  27  37
ENDBRANCH  24  25
ENDBRANCH  19  24
ENDBRANCH   7  11
ENDBRANCH   2   3
TORSDOF 7
ENDMDL
MODEL      169
REMARK 921   NORMALIZED FREE ENERGY PREDICTED BY IDOCK:   22.82 KCAL/MOL
REMARK 922        TOTAL FREE ENERGY PREDICTED BY IDOCK:   30.23 KCAL/MOL
REMARK 923 INTER-LIGAND FREE ENERGY PREDICTED BY IDOCK:    7.29 KCAL/MOL
REMARK 924 INTRA-LIGAND FREE ENERGY PREDICTED BY IDOCK:   22.94 KCAL/MOL
REMARK 927      BINDING AFFINITY PREDICTED BY RF-SCORE:    0.00 PKD
ROOT
HETATM    1  C   UNL     1      -8.989  18.010  69.226  1.00  0.00     0.273 C  
HETATM    2  O   UNL     1     -10.059  17.298  68.612  1.00  0.00    -0.300 OA 
ENDROOT
BRANCH   2   3
HETATM    3  C   UNL     1     -10.474  16.174  69.281  1.00  0.00    -0.267 A  
HETATM    4  C   UNL     1      -9.929  14.974  68.832  1.00  0.00    -0.236 A  
HETATM    5  C   UNL     1     -10.283  13.756  69.409  1.00  0.00     0.296 A  
HETATM    6  O   UNL     1      -9.043  14.962  67.788  1.00  0.00    -0.180 OA 
HETATM    7  C   UNL     1     -11.189  13.701  70.487  1.00  0.00     0.529 A  
HETATM    8  H   UNL     1      -8.672  14.143  67.481  1.00  0.00     0.000 HD 
HETATM    9  C   UNL     1     -11.712  14.918  70.952  1.00  0.00    -0.374 A  
HETATM   10  C   UNL     1     -11.356  16.145  70.359  1.00  0.00    -0.377 A  
BRANCH   7  11
HETATM   11  C   UNL     1     -11.588  12.402  71.094  1.00  0.00     1.547 C  
HETATM   12  C   UNL     1     -12.876  12.161  71.382  1.00  0.00    -0.378 C  
HETATM   13  C   UNL     1     -13.244  10.921  72.067  1.00  0.00    -0.351 C  
HETATM   14  O   UNL     1     -14.407  10.675  72.351  1.00  0.00     0.588 OA 
HETATM   15  C   UNL     1     -12.162  10.001  72.411  1.00  0.00     0.553 A  
HETATM   16  C   UNL     1     -12.418   8.838  73.131  1.00  0.00     0.925 A  
HETATM   17  C   UNL     1     -11.397   7.938  73.414  1.00  0.00     0.399 A  
HETATM   18  O   UNL     1     -13.664   8.494  73.581  1.00  0.00    -0.313 OA 
HETATM   19  C   UNL     1     -10.103   8.182  72.962  1.00  0.00    -0.220 A  
HETATM   20  H   UNL     1     -13.838   7.700  74.072  1.00  0.00     0.000 HD 
HETATM   21  C   UNL     1      -9.841   9.377  72.252  1.00  0.00     1.121 A  
HETATM   22  C   UNL     1     -10.868  10.305  71.997  1.00  0.00     2.671 A  
HETATM   23  O   UNL     1     -10.558  11.482  71.334  1.00  0.00     3.814 OA 
BRANCH  19  24
HETATM   24  O   UNL     1      -9.068   7.292  73.062  1.00  0.00    -0.129 OA 
BRANCH  24  25
HETATM   25  C   UNL     1      -8.651   6.487  71.925  1.00  0.00    -0.129 C  
HETATM   26  O   UNL     1      -7.841   7.172  70.957  1.00  0.00    -0.093 OA 
HETATM   27  C   UNL     1      -7.424   6.391  69.832  1.00  0.00    -0.088 C  
HETATM   28  H   UNL     1     -11.148   3.940  70.003  1.00  0.00     0.000 HD 
HETATM   29  C   UNL     1      -8.649   5.771  69.129  1.00  0.00    -0.110 C  
HETATM   30  O   UNL     1     -10.515   4.926  72.300  1.00  0.00    -0.205 OA 
HETATM   31  C   UNL     1      -9.476   4.947  70.097  1.00  0.00    -0.172 C  
HETATM   32  O   UNL     1      -8.359   4.908  68.017  1.00  0.00    -0.099 OA 
HETATM   33  H   UNL     1      -9.113   4.527  67.584  1.00  0.00     0.000 HD 
HETATM   34  H   UNL     1     -11.271   4.488  71.928  1.00  0.00     0.000 HD 
HETATM   35  O   UNL     1     -10.630   4.457  69.397  1.00  0.00     0.427 OA 
HETATM   36  C   UNL     1      -9.885   5.771  71.317  1.00  0.00    -0.179 C  
BRANCH  27  37
HETATM   37  C   UNL     1      -6.756   7.265  68.748  1.00  0.00    -0.067 C  
BRANCH  37  38
HETATM   38  O   UNL     1      -7.126   7.049  67.393  1.00  0.00    -0.082 OA 
BRANCH  38  39
HETATM   39  C   UNL     1      -8.230   6.106  67.311  1.00  0.00    -0.106 C  
HETATM   40  C   UNL     1      -8.705   3.776  66.786  1.00  0.00    -0.118 C  
HETATM   41  O   UNL     1      -7.733   4.813  66.948  1.00  0.00    -0.090 OA 
HETATM   42  C   UNL     1      -9.848   4.178  65.834  1.00  0.00    -0.199 C  
HETATM   43  C   UNL     1      -9.184   3.253  68.135  1.00  0.00    -0.243 C  
HETATM   44  O   UNL     1      -9.338   4.309  64.497  1.00  0.00    -0.154 OA 
HETATM   45  C   UNL     1     -10.467   5.520  66.226  1.00  0.00    -0.174 C  
HETATM   46  O   UNL     1     -11.262   5.413  67.410  1.00  0.00    -0.050 OA 
HETATM   47  C   UNL     1      -9.370   6.584  66.361  1.00  0.00    -0.143 C  
HETATM   48  H   UNL     1     -10.043   4.557  63.910  1.00  0.00     0.000 HD 
HETATM   49  H   UNL     1     -11.647   6.247  67.654  1.00  0.00     0.000 HD 
HETATM   50  O   UNL     1      -9.927   7.827  66.817  1.00  0.00    -0.230 OA 
HETATM   51  H   UNL     1     -10.621   8.118  66.238  1.00  0.00     0.000 HD 
ENDBRANCH  38  39
ENDBRANCH  37  38
ENDBRANCH  27  37
ENDBRANCH  24  25
ENDBRANCH  19  24
ENDBRANCH   7  11
ENDBRANCH   2   3
TORSDOF 7
ENDMDL
MODEL      170
REMARK 921   NORMALIZED FREE ENERGY PREDICTED BY IDOCK:   40.14 KCAL/MOL
REMARK 922        TOTAL FREE ENERGY PREDICTED BY IDOCK:   54.64 KCAL/MOL
REMARK 923 INTER-LIGAND FREE ENERGY PREDICTED BY IDOCK:   -0.25 KCAL/MOL
REMARK 924 INTRA-LIGAND FREE ENERGY PREDICTED BY IDOCK:   54.89 KCAL/MOL
REMARK 927      BINDING AFFINITY PREDICTED BY RF-SCORE:    0.00 PKD
ROOT
HETATM    1  C   UNL     1      -5.867  20.467  66.451  1.00  0.00    -0.182 C  
HETATM    2  O   UNL     1      -5.504  19.177  66.935  1.00  0.00    -0.163 OA 
ENDROOT
BRANCH   2   3
HETATM    3  C   UNL     1      -6.554  18.344  67.224  1.00  0.00    -0.194 A  
HETATM    4  C   UNL     1      -6.349  16.998  66.931  1.00  0.00    -0.207 A  
HETATM    5  C   UNL     1      -7.343  16.047  67.155  1.00  0.00    -0.257 A  
HETATM    6  O   UNL     1      -5.163  16.578  66.390  1.00  0.00    -0.293 OA 
HETATM    7  C   UNL     1      -8.585  16.415  67.711  1.00  0.00    -0.172 A  
HETATM    8  H   UNL     1      -5.024  15.661  66.190  1.00  0.00     0.000 HD 
HETATM    9  C   UNL     1      -8.773  17.769  68.028  1.00  0.00    -0.251 A  
HETATM   10  C   UNL     1      -7.767  18.725  67.793  1.00  0.00    -0.257 A  
BRANCH   7  11
HETATM   11  C   UNL     1      -9.659  15.408  67.932  1.00  0.00    -0.206 C  
HETATM   12  C   UNL     1     -10.949  15.771  67.852  1.00  0.00    -0.324 C  
HETATM   13  C   UNL     1     -11.994  14.797  68.167  1.00  0.00    -0.230 C  
HETATM   14  O   UNL     1     -13.177  15.098  68.112  1.00  0.00     2.174 OA 
HETATM   15  C   UNL     1     -11.564  13.459  68.565  1.00  0.00    -0.368 A  
HETATM   16  C   UNL     1     -12.492  12.498  68.956  1.00  0.00     0.446 A  
HETATM   17  C   UNL     1     -12.086  11.210  69.286  1.00  0.00    -0.377 A  
HETATM   18  O   UNL     1     -13.837  12.739  69.019  1.00  0.00     4.392 OA 
HETATM   19  C   UNL     1     -10.741  10.859  69.212  1.00  0.00    -0.231 A  
HETATM   20  H   UNL     1     -14.471  12.083  69.286  1.00  0.00     0.000 HD 
HETATM   21  C   UNL     1      -9.797  11.844  68.839  1.00  0.00     0.008 A  
HETATM   22  C   UNL     1     -10.204  13.158  68.540  1.00  0.00    -0.215 A  
HETATM   23  O   UNL     1      -9.241  14.102  68.219  1.00  0.00    -0.188 OA 
BRANCH  19  24
HETATM   24  O   UNL     1     -10.263   9.587  69.374  1.00  0.00    -0.186 OA 
BRANCH  24  25
HETATM   25  C   UNL     1      -9.284   9.025  68.457  1.00  0.00    -0.136 C  
HETATM   26  O   UNL     1      -8.900   7.668  68.731  1.00  0.00    -0.131 OA 
HETATM   27  C   UNL     1      -7.936   7.104  67.836  1.00  0.00    -0.115 C  
HETATM   28  H   UNL     1      -6.045  11.088  67.167  1.00  0.00     0.000 HD 
HETATM   29  C   UNL     1      -6.676   7.992  67.778  1.00  0.00    -0.068 C  
HETATM   30  O   UNL     1      -8.532  11.279  67.821  1.00  0.00    -0.120 OA 
HETATM   31  C   UNL     1      -7.027   9.414  67.384  1.00  0.00    -0.085 C  
HETATM   32  O   UNL     1      -5.654   7.565  66.861  1.00  0.00    -0.026 OA 
HETATM   33  H   UNL     1      -4.879   8.111  66.826  1.00  0.00     0.000 HD 
HETATM   34  H   UNL     1      -7.799  11.877  67.736  1.00  0.00     0.000 HD 
HETATM   35  O   UNL     1      -5.825  10.198  67.414  1.00  0.00    -0.052 OA 
HETATM   36  C   UNL     1      -8.087  10.001  68.316  1.00  0.00    -0.104 C  
BRANCH  27  37
HETATM   37  C   UNL     1      -7.424   5.737  68.340  1.00  0.00    -0.081 C  
BRANCH  37  38
HETATM   38  O   UNL     1      -8.094   5.135  69.440  1.00  0.00    -0.085 OA 
BRANCH  38  39
HETATM   39  C   UNL     1      -8.961   6.101  70.096  1.00  0.00    -0.148 C  
HETATM   40  C   UNL     1     -10.965   6.228  71.473  1.00  0.00    -0.271 C  
HETATM   41  O   UNL     1      -9.998   5.413  70.803  1.00  0.00    -0.181 OA 
HETATM   42  C   UNL     1     -11.585   7.294  70.550  1.00  0.00    -0.258 C  
HETATM   43  C   UNL     1     -10.404   6.793  72.774  1.00  0.00    -0.233 C  
HETATM   44  O   UNL     1     -12.392   6.652  69.548  1.00  0.00    -0.164 OA 
HETATM   45  C   UNL     1     -10.515   8.111  69.827  1.00  0.00    -0.227 C  
HETATM   46  O   UNL     1      -9.851   9.019  70.711  1.00  0.00    -0.202 OA 
HETATM   47  C   UNL     1      -9.529   7.174  69.117  1.00  0.00    -0.147 C  
HETATM   48  H   UNL     1     -12.775   7.309  68.978  1.00  0.00     0.000 HD 
HETATM   49  H   UNL     1      -9.185   9.527  70.262  1.00  0.00     0.000 HD 
HETATM   50  O   UNL     1      -8.467   7.924  68.510  1.00  0.00    -0.127 OA 
HETATM   51  H   UNL     1      -8.813   8.578  67.913  1.00  0.00     0.000 HD 
ENDBRANCH  38  39
ENDBRANCH  37  38
ENDBRANCH  27  37
ENDBRANCH  24  25
ENDBRANCH  19  24
ENDBRANCH   7  11
ENDBRANCH   2   3
TORSDOF 7
ENDMDL
MODEL      171
REMARK 921   NORMALIZED FREE ENERGY PREDICTED BY IDOCK:   45.37 KCAL/MOL
REMARK 922        TOTAL FREE ENERGY PREDICTED BY IDOCK:   62.00 KCAL/MOL
REMARK 923 INTER-LIGAND FREE ENERGY PREDICTED BY IDOCK:   62.45 KCAL/MOL
REMARK 924 INTRA-LIGAND FREE ENERGY PREDICTED BY IDOCK:   -0.44 KCAL/MOL
REMARK 927      BINDING AFFINITY PREDICTED BY RF-SCORE:    0.00 PKD
ROOT
HETATM    1  C   UNL     1      -9.524  17.830  66.635  1.00  0.00    -0.292 C  
HETATM    2  O   UNL     1     -10.803  17.212  66.521  1.00  0.00    -0.127 OA 
ENDROOT
BRANCH   2   3
HETATM    3  C   UNL     1     -10.802  15.969  65.940  1.00  0.00    -0.207 A  
HETATM    4  C   UNL     1     -11.779  15.091  66.401  1.00  0.00    -0.109 A  
HETATM    5  C   UNL     1     -11.876  13.790  65.911  1.00  0.00    -0.405 A  
HETATM    6  O   UNL     1     -12.662  15.484  67.371  1.00  0.00     0.737 OA 
HETATM    7  C   UNL     1     -10.998  13.326  64.910  1.00  0.00    -0.345 A  
HETATM    8  H   UNL     1     -13.329  14.885  67.685  1.00  0.00     0.000 HD 
HETATM    9  C   UNL     1     -10.032  14.226  64.432  1.00  0.00     0.838 A  
HETATM   10  C   UNL     1      -9.937  15.537  64.937  1.00  0.00     0.144 A  
BRANCH   7  11
HETATM   11  C   UNL     1     -11.080  11.931  64.398  1.00  0.00    -0.336 C  
HETATM   12  C   UNL     1     -12.210  11.491  63.824  1.00  0.00    -0.121 C  
HETATM   13  C   UNL     1     -12.314  10.090  63.412  1.00  0.00     8.109 C  
HETATM   14  O   UNL     1     -13.331   9.655  62.895  1.00  0.00     8.836 OA 
HETATM   15  C   UNL     1     -11.157   9.233  63.663  1.00  0.00     8.463 A  
HETATM   16  C   UNL     1     -11.203   7.872  63.374  1.00  0.00    17.563 A  
HETATM   17  C   UNL     1     -10.086   7.067  63.565  1.00  0.00     6.620 A  
HETATM   18  O   UNL     1     -12.313   7.250  62.871  1.00  0.00    14.478 OA 
HETATM   19  C   UNL     1      -8.897   7.618  64.034  1.00  0.00     0.847 A  
HETATM   20  H   UNL     1     -12.344   6.322  62.673  1.00  0.00     0.000 HD 
HETATM   21  C   UNL     1      -8.861   8.996  64.352  1.00  0.00    -0.107 A  
HETATM   22  C   UNL     1     -10.002   9.804  64.192  1.00  0.00     0.563 A  
HETATM   23  O   UNL     1      -9.934  11.140  64.554  1.00  0.00    -0.251 OA 
BRANCH  19  24
HETATM   24  O   UNL     1      -7.710   6.942  64.115  1.00  0.00    -0.106 OA 
BRANCH  24  25
HETATM   25  C   UNL     1      -6.906   6.970  65.327  1.00  0.00    -0.051 C  
HETATM   26  O   UNL     1      -7.468   6.267  66.447  1.00  0.00    -0.083 OA 
HETATM   27  C   UNL     1      -6.686   6.288  67.647  1.00  0.00    -0.061 C  
HETATM   28  H   UNL     1      -5.046  10.316  66.654  1.00  0.00     0.000 HD 
HETATM   29  C   UNL     1      -6.375   7.742  68.057  1.00  0.00    -0.050 C  
HETATM   30  O   UNL     1      -5.741   8.993  64.552  1.00  0.00    -0.062 OA 
HETATM   31  C   UNL     1      -5.680   8.489  66.935  1.00  0.00    -0.041 C  
HETATM   32  O   UNL     1      -5.539   7.897  69.216  1.00  0.00    -0.026 OA 
HETATM   33  H   UNL     1      -5.348   8.792  69.469  1.00  0.00     0.000 HD 
HETATM   34  H   UNL     1      -5.491   9.888  64.745  1.00  0.00     0.000 HD 
HETATM   35  O   UNL     1      -5.481   9.847  67.357  1.00  0.00    -0.039 OA 
HETATM   36  C   UNL     1      -6.497   8.432  65.643  1.00  0.00    -0.052 C  
BRANCH  27  37
HETATM   37  C   UNL     1      -7.469   5.706  68.845  1.00  0.00    -0.084 C  
BRANCH  37  38
HETATM   38  O   UNL     1      -8.696   6.325  69.206  1.00  0.00    -0.123 OA 
BRANCH  38  39
HETATM   39  C   UNL     1      -8.965   6.131  70.623  1.00  0.00    -0.147 C  
HETATM   40  C   UNL     1      -7.954   5.221  72.643  1.00  0.00    -0.102 C  
HETATM   41  O   UNL     1      -7.833   5.518  71.248  1.00  0.00    -0.104 OA 
HETATM   42  C   UNL     1      -9.226   4.416  72.969  1.00  0.00    -0.118 C  
HETATM   43  C   UNL     1      -7.787   6.478  73.490  1.00  0.00    -0.091 C  
HETATM   44  O   UNL     1      -9.122   3.099  72.401  1.00  0.00    -0.092 OA 
HETATM   45  C   UNL     1     -10.478   5.072  72.388  1.00  0.00    -0.217 C  
HETATM   46  O   UNL     1     -10.839   6.257  73.104  1.00  0.00    -0.251 OA 
HETATM   47  C   UNL     1     -10.283   5.341  70.890  1.00  0.00    -0.234 C  
HETATM   48  H   UNL     1      -9.907   2.603  72.603  1.00  0.00     0.000 HD 
HETATM   49  H   UNL     1     -11.617   6.665  72.742  1.00  0.00     0.000 HD 
HETATM   50  O   UNL     1     -11.415   6.040  70.350  1.00  0.00    -0.317 OA 
HETATM   51  H   UNL     1     -12.217   5.558  70.513  1.00  0.00     0.000 HD 
ENDBRANCH  38  39
ENDBRANCH  37  38
ENDBRANCH  27  37
ENDBRANCH  24  25
ENDBRANCH  19  24
ENDBRANCH   7  11
ENDBRANCH   2   3
TORSDOF 7
ENDMDL
MODEL      172
REMARK 921   NORMALIZED FREE ENERGY PREDICTED BY IDOCK:   75.38 KCAL/MOL
REMARK 922        TOTAL FREE ENERGY PREDICTED BY IDOCK:  104.30 KCAL/MOL
REMARK 923 INTER-LIGAND FREE ENERGY PREDICTED BY IDOCK:   85.35 KCAL/MOL
REMARK 924 INTRA-LIGAND FREE ENERGY PREDICTED BY IDOCK:   18.95 KCAL/MOL
REMARK 927      BINDING AFFINITY PREDICTED BY RF-SCORE:    0.00 PKD
ROOT
HETATM    1  C   UNL     1      -9.444   4.907  67.669  1.00  0.00    -0.141 C  
HETATM    2  O   UNL     1     -10.245   5.735  66.830  1.00  0.00    -0.172 OA 
ENDROOT
BRANCH   2   3
HETATM    3  C   UNL     1     -10.466   7.004  67.301  1.00  0.00    -0.293 A  
HETATM    4  C   UNL     1     -10.178   8.033  66.408  1.00  0.00    -0.026 A  
HETATM    5  C   UNL     1     -10.336   9.370  66.765  1.00  0.00    -0.303 A  
HETATM    6  O   UNL     1      -9.706   7.751  65.154  1.00  0.00     0.444 OA 
HETATM    7  C   UNL     1     -10.820   9.726  68.041  1.00  0.00    -0.276 A  
HETATM    8  H   UNL     1      -9.509   8.452  64.544  1.00  0.00     0.000 HD 
HETATM    9  C   UNL     1     -11.134   8.682  68.926  1.00  0.00     0.216 A  
HETATM   10  C   UNL     1     -10.964   7.333  68.559  1.00  0.00    -0.029 A  
BRANCH   7  11
HETATM   11  C   UNL     1     -10.971  11.153  68.437  1.00  0.00    -0.227 C  
HETATM   12  C   UNL     1     -11.701  11.988  67.682  1.00  0.00    -0.365 C  
HETATM   13  C   UNL     1     -11.763  13.409  68.028  1.00  0.00    -0.356 C  
HETATM   14  O   UNL     1     -12.410  14.197  67.356  1.00  0.00    -0.317 OA 
HETATM   15  C   UNL     1     -11.004  13.845  69.198  1.00  0.00    -0.253 A  
HETATM   16  C   UNL     1     -10.946  15.191  69.549  1.00  0.00    -0.272 A  
HETATM   17  C   UNL     1     -10.267  15.599  70.691  1.00  0.00     0.276 A  
HETATM   18  O   UNL     1     -11.558  16.179  68.828  1.00  0.00    -0.368 OA 
HETATM   19  C   UNL     1      -9.647  14.661  71.511  1.00  0.00     3.959 A  
HETATM   20  H   UNL     1     -11.519  17.098  69.067  1.00  0.00     0.000 HD 
HETATM   21  C   UNL     1      -9.684  13.297  71.138  1.00  0.00     8.758 A  
HETATM   22  C   UNL     1     -10.342  12.888  69.963  1.00  0.00     1.845 A  
HETATM   23  O   UNL     1     -10.320  11.546  69.614  1.00  0.00     0.109 OA 
BRANCH  19  24
HETATM   24  O   UNL     1      -9.082  14.946  72.724  1.00  0.00     5.509 OA 
BRANCH  24  25
HETATM   25  C   UNL     1      -8.440  16.226  72.976  1.00  0.00    16.947 C  
HETATM   26  O   UNL     1      -9.276  17.378  72.778  1.00  0.00    11.881 OA 
HETATM   27  C   UNL     1      -8.655  18.644  73.022  1.00  0.00    10.308 C  
HETATM   28  H   UNL     1      -4.682  17.083  71.727  1.00  0.00     0.000 HD 
HETATM   29  C   UNL     1      -7.377  18.786  72.170  1.00  0.00     5.793 C  
HETATM   30  O   UNL     1      -6.221  15.222  72.632  1.00  0.00     1.228 OA 
HETATM   31  C   UNL     1      -6.416  17.642  72.432  1.00  0.00     4.577 C  
HETATM   32  O   UNL     1      -6.624  19.994  72.372  1.00  0.00    -0.033 OA 
HETATM   33  H   UNL     1      -5.837  20.081  71.848  1.00  0.00     0.000 HD 
HETATM   34  H   UNL     1      -5.396  15.260  72.163  1.00  0.00     0.000 HD 
HETATM   35  O   UNL     1      -5.284  17.799  71.563  1.00  0.00    -0.433 OA 
HETATM   36  C   UNL     1      -7.093  16.289  72.211  1.00  0.00     7.449 C  
BRANCH  27  37
HETATM   37  C   UNL     1      -9.555  19.815  72.569  1.00  0.00     3.448 C  
BRANCH  37  38
HETATM   38  O   UNL     1      -9.507  20.206  71.204  1.00  0.00     1.271 OA 
BRANCH  38  39
HETATM   39  C   UNL     1      -9.328  19.044  70.348  1.00  0.00     1.898 C  
HETATM   40  C   UNL     1      -7.642  17.423  69.671  1.00  0.00     0.589 C  
HETATM   41  O   UNL     1      -7.992  18.547  70.484  1.00  0.00     2.419 OA 
HETATM   42  C   UNL     1      -7.964  17.644  68.181  1.00  0.00    -0.256 C  
HETATM   43  C   UNL     1      -8.219  16.131  70.239  1.00  0.00     1.653 C  
HETATM   44  O   UNL     1      -7.102  18.665  67.649  1.00  0.00    -0.209 OA 
HETATM   45  C   UNL     1      -9.407  18.102  67.974  1.00  0.00    -0.283 C  
HETATM   46  O   UNL     1     -10.339  17.040  68.193  1.00  0.00    -0.310 OA 
HETATM   47  C   UNL     1      -9.703  19.320  68.859  1.00  0.00    -0.430 C  
HETATM   48  H   UNL     1      -7.301  18.801  66.730  1.00  0.00     0.000 HD 
HETATM   49  H   UNL     1     -11.237  17.325  68.064  1.00  0.00     0.000 HD 
HETATM   50  O   UNL     1     -11.081  19.706  68.743  1.00  0.00     0.126 OA 
HETATM   51  H   UNL     1     -11.309  19.874  67.837  1.00  0.00     0.000 HD 
ENDBRANCH  38  39
ENDBRANCH  37  38
ENDBRANCH  27  37
ENDBRANCH  24  25
ENDBRANCH  19  24
ENDBRANCH   7  11
ENDBRANCH   2   3
TORSDOF 7
ENDMDL
MODEL      173
REMARK 921   NORMALIZED FREE ENERGY PREDICTED BY IDOCK:   79.80 KCAL/MOL
REMARK 922        TOTAL FREE ENERGY PREDICTED BY IDOCK:  110.52 KCAL/MOL
REMARK 923 INTER-LIGAND FREE ENERGY PREDICTED BY IDOCK:  109.41 KCAL/MOL
REMARK 924 INTRA-LIGAND FREE ENERGY PREDICTED BY IDOCK:    1.11 KCAL/MOL
REMARK 927      BINDING AFFINITY PREDICTED BY RF-SCORE:    0.00 PKD
ROOT
HETATM    1  C   UNL     1     -11.342  19.815  72.432  1.00  0.00     8.654 C  
HETATM    2  O   UNL     1     -10.202  19.801  71.578  1.00  0.00     1.810 OA 
ENDROOT
BRANCH   2   3
HETATM    3  C   UNL     1     -10.324  19.027  70.452  1.00  0.00     1.613 A  
HETATM    4  C   UNL     1     -11.027  17.836  70.616  1.00  0.00     2.005 A  
HETATM    5  C   UNL     1     -11.206  16.947  69.559  1.00  0.00     0.215 A  
HETATM    6  O   UNL     1     -11.544  17.499  71.838  1.00  0.00     0.500 OA 
HETATM    7  C   UNL     1     -10.699  17.237  68.275  1.00  0.00    -0.349 A  
HETATM    8  H   UNL     1     -12.023  16.687  71.951  1.00  0.00     0.000 HD 
HETATM    9  C   UNL     1     -10.015  18.452  68.112  1.00  0.00    -0.388 A  
HETATM   10  C   UNL     1      -9.833  19.342  69.187  1.00  0.00    -0.425 A  
BRANCH   7  11
HETATM   11  C   UNL     1     -10.867  16.282  67.146  1.00  0.00    -0.190 C  
HETATM   12  C   UNL     1     -11.303  16.717  65.954  1.00  0.00     0.677 C  
HETATM   13  C   UNL     1     -11.556  15.755  64.881  1.00  0.00    -0.104 C  
HETATM   14  O   UNL     1     -11.963  16.118  63.788  1.00  0.00    -0.926 OA 
HETATM   15  C   UNL     1     -11.321  14.344  65.179  1.00  0.00    -0.359 A  
HETATM   16  C   UNL     1     -11.612  13.359  64.240  1.00  0.00    -0.402 A  
HETATM   17  C   UNL     1     -11.340  12.022  64.505  1.00  0.00    -0.393 A  
HETATM   18  O   UNL     1     -12.150  13.632  63.012  1.00  0.00    -0.883 OA 
HETATM   19  C   UNL     1     -10.754  11.652  65.712  1.00  0.00    -0.280 A  
HETATM   20  H   UNL     1     -12.349  12.959  62.370  1.00  0.00     0.000 HD 
HETATM   21  C   UNL     1     -10.483  12.652  66.675  1.00  0.00    -0.261 A  
HETATM   22  C   UNL     1     -10.791  14.001  66.420  1.00  0.00    -0.299 A  
HETATM   23  O   UNL     1     -10.547  14.943  67.408  1.00  0.00    -0.256 OA 
BRANCH  19  24
HETATM   24  O   UNL     1     -10.317  10.389  66.004  1.00  0.00    -0.241 OA 
BRANCH  24  25
HETATM   25  C   UNL     1     -11.083   9.215  65.617  1.00  0.00     3.181 C  
HETATM   26  O   UNL     1     -11.175   8.189  66.617  1.00  0.00     0.558 OA 
HETATM   27  C   UNL     1     -11.927   7.028  66.248  1.00  0.00     4.723 C  
HETATM   28  H   UNL     1     -10.759   7.487  61.967  1.00  0.00     0.000 HD 
HETATM   29  C   UNL     1     -11.369   6.423  64.942  1.00  0.00     6.891 C  
HETATM   30  O   UNL     1     -10.738   9.731  63.236  1.00  0.00     1.130 OA 
HETATM   31  C   UNL     1     -11.356   7.450  63.826  1.00  0.00    19.381 C  
HETATM   32  O   UNL     1     -12.080   5.284  64.430  1.00  0.00     1.515 OA 
HETATM   33  H   UNL     1     -11.737   4.912  63.627  1.00  0.00     0.000 HD 
HETATM   34  H   UNL     1     -10.435   9.419  62.392  1.00  0.00     0.000 HD 
HETATM   35  O   UNL     1     -10.767   6.843  62.666  1.00  0.00     6.993 OA 
HETATM   36  C   UNL     1     -10.588   8.706  64.238  1.00  0.00     7.029 C  
BRANCH  27  37
HETATM   37  C   UNL     1     -11.780   5.899  67.292  1.00  0.00     1.746 C  
BRANCH  37  38
HETATM   38  O   UNL     1     -11.127   6.202  68.517  1.00  0.00    -0.328 OA 
BRANCH  38  39
HETATM   39  C   UNL     1     -10.904   4.988  69.288  1.00  0.00     0.596 C  
HETATM   40  C   UNL     1     -10.704   2.577  69.020  1.00  0.00     3.980 C  
HETATM   41  O   UNL     1     -10.875   3.859  68.409  1.00  0.00     1.865 OA 
HETATM   42  C   UNL     1     -11.710   2.323  70.158  1.00  0.00     9.787 C  
HETATM   43  C   UNL     1      -9.251   2.347  69.422  1.00  0.00    -0.190 C  
HETATM   44  O   UNL     1     -13.035   2.208  69.612  1.00  0.00    18.816 OA 
HETATM   45  C   UNL     1     -11.725   3.468  71.170  1.00  0.00     6.185 C  
HETATM   46  O   UNL     1     -10.548   3.475  71.983  1.00  0.00     0.041 OA 
HETATM   47  C   UNL     1     -11.933   4.805  70.446  1.00  0.00     5.889 C  
HETATM   48  H   UNL     1     -13.657   2.052  70.314  1.00  0.00     0.000 HD 
HETATM   49  H   UNL     1     -10.557   4.187  72.612  1.00  0.00     0.000 HD 
HETATM   50  O   UNL     1     -11.857   5.898  71.373  1.00  0.00    -0.097 OA 
HETATM   51  H   UNL     1     -12.484   5.787  72.079  1.00  0.00     0.000 HD 
ENDBRANCH  38  39
ENDBRANCH  37  38
ENDBRANCH  27  37
ENDBRANCH  24  25
ENDBRANCH  19  24
ENDBRANCH   7  11
ENDBRANCH   2   3
TORSDOF 7
ENDMDL
