MODEL        1
REMARK 921   NORMALIZED FREE ENERGY PREDICTED BY IDOCK:   -6.94 KCAL/MOL
REMARK 922        TOTAL FREE ENERGY PREDICTED BY IDOCK:   -8.78 KCAL/MOL
REMARK 923 INTER-LIGAND FREE ENERGY PREDICTED BY IDOCK:   -8.16 KCAL/MOL
REMARK 924 INTRA-LIGAND FREE ENERGY PREDICTED BY IDOCK:   -0.62 KCAL/MOL
REMARK 927      BINDING AFFINITY PREDICTED BY RF-SCORE:    0.00 PKD
ROOT
HETATM    1  C   UNL     1     -12.906  11.748  63.475  1.00  0.00    -0.220 C  
HETATM    2  O   UNL     1     -13.241  12.430  64.682  1.00  0.00    -0.822 OA 
ENDROOT
BRANCH   2   3
HETATM    3  C   UNL     1     -12.366  13.419  65.038  1.00  0.00    -0.436 A  
HETATM    4  C   UNL     1     -12.250  14.642  64.375  1.00  0.00    -0.473 A  
HETATM    5  C   UNL     1     -11.276  15.566  64.764  1.00  0.00    -0.390 A  
HETATM    6  O   UNL     1     -11.137  16.691  63.997  1.00  0.00    -1.338 OA 
HETATM    7  C   UNL     1     -10.439  15.311  65.857  1.00  0.00    -0.345 A  
HETATM    8  C   UNL     1     -11.560  13.160  66.144  1.00  0.00    -0.396 A  
HETATM    9  C   UNL     1     -10.602  14.097  66.548  1.00  0.00    -0.282 A  
HETATM   10  H   UNL     1     -10.476  17.319  64.262  1.00  0.00     0.000 HD 
BRANCH   7  11
HETATM   11  C   UNL     1      -9.325  16.192  66.308  1.00  0.00    -0.317 C  
HETATM   12  O   UNL     1      -8.186  15.721  66.369  1.00  0.00    -0.272 OA 
BRANCH  11  13
HETATM   13  C   UNL     1      -9.477  17.638  66.617  1.00  0.00    -0.288 A  
HETATM   14  C   UNL     1     -10.633  18.023  67.315  1.00  0.00    -0.358 A  
HETATM   15  C   UNL     1     -10.833  19.357  67.676  1.00  0.00    -0.470 A  
HETATM   16  C   UNL     1      -9.880  20.315  67.341  1.00  0.00    -0.586 A  
HETATM   17  C   UNL     1      -8.746  19.949  66.610  1.00  0.00    -0.410 A  
HETATM   18  C   UNL     1      -8.557  18.619  66.228  1.00  0.00    -0.217 A  
HETATM   19  O   UNL     1      -7.474  18.292  65.459  1.00  0.00    -0.537 OA 
HETATM   20  H   UNL     1      -6.850  18.957  65.196  1.00  0.00     0.000 HD 
ENDBRANCH  11  13
ENDBRANCH   7  11
ENDBRANCH   2   3
TORSDOF 3
ENDMDL
MODEL        2
REMARK 921   NORMALIZED FREE ENERGY PREDICTED BY IDOCK:   -6.78 KCAL/MOL
REMARK 922        TOTAL FREE ENERGY PREDICTED BY IDOCK:   -8.59 KCAL/MOL
REMARK 923 INTER-LIGAND FREE ENERGY PREDICTED BY IDOCK:   -7.88 KCAL/MOL
REMARK 924 INTRA-LIGAND FREE ENERGY PREDICTED BY IDOCK:   -0.70 KCAL/MOL
REMARK 927      BINDING AFFINITY PREDICTED BY RF-SCORE:    0.00 PKD
ROOT
HETATM    1  C   UNL     1     -10.521  19.700  67.733  1.00  0.00    -0.439 C  
HETATM    2  O   UNL     1      -9.606  18.619  67.561  1.00  0.00    -0.287 OA 
ENDROOT
BRANCH   2   3
HETATM    3  C   UNL     1     -10.138  17.517  66.948  1.00  0.00    -0.324 A  
HETATM    4  C   UNL     1     -10.510  17.468  65.604  1.00  0.00    -0.156 A  
HETATM    5  C   UNL     1     -11.113  16.321  65.080  1.00  0.00    -0.254 A  
HETATM    6  O   UNL     1     -11.561  16.383  63.788  1.00  0.00    -1.605 OA 
HETATM    7  C   UNL     1     -11.306  15.184  65.873  1.00  0.00    -0.225 A  
HETATM    8  C   UNL     1     -10.297  16.386  67.745  1.00  0.00    -0.287 A  
HETATM    9  C   UNL     1     -10.880  15.230  67.213  1.00  0.00    -0.318 A  
HETATM   10  H   UNL     1     -11.971  15.604  63.433  1.00  0.00     0.000 HD 
BRANCH   7  11
HETATM   11  C   UNL     1     -12.002  13.941  65.436  1.00  0.00    -0.381 C  
HETATM   12  O   UNL     1     -13.225  13.972  65.278  1.00  0.00    -0.782 OA 
BRANCH  11  13
HETATM   13  C   UNL     1     -11.308  12.672  65.095  1.00  0.00    -0.343 A  
HETATM   14  C   UNL     1     -10.776  11.929  66.161  1.00  0.00    -0.318 A  
HETATM   15  C   UNL     1     -10.142  10.707  65.929  1.00  0.00    -0.321 A  
HETATM   16  C   UNL     1     -10.035  10.219  64.629  1.00  0.00    -0.377 A  
HETATM   17  C   UNL     1     -10.524  10.970  63.557  1.00  0.00    -0.365 A  
HETATM   18  C   UNL     1     -11.137  12.204  63.787  1.00  0.00    -0.436 A  
HETATM   19  O   UNL     1     -11.552  12.953  62.720  1.00  0.00    -0.663 OA 
HETATM   20  H   UNL     1     -11.436  12.636  61.833  1.00  0.00     0.000 HD 
ENDBRANCH  11  13
ENDBRANCH   7  11
ENDBRANCH   2   3
TORSDOF 3
ENDMDL
MODEL        3
REMARK 921   NORMALIZED FREE ENERGY PREDICTED BY IDOCK:   -6.61 KCAL/MOL
REMARK 922        TOTAL FREE ENERGY PREDICTED BY IDOCK:   -8.39 KCAL/MOL
REMARK 923 INTER-LIGAND FREE ENERGY PREDICTED BY IDOCK:   -7.68 KCAL/MOL
REMARK 924 INTRA-LIGAND FREE ENERGY PREDICTED BY IDOCK:   -0.72 KCAL/MOL
REMARK 927      BINDING AFFINITY PREDICTED BY RF-SCORE:    0.00 PKD
ROOT
HETATM    1  C   UNL     1     -11.545  11.511  68.937  1.00  0.00    -0.320 C  
HETATM    2  O   UNL     1     -11.996  11.656  67.592  1.00  0.00    -0.618 OA 
ENDROOT
BRANCH   2   3
HETATM    3  C   UNL     1     -11.774  12.892  67.048  1.00  0.00    -0.385 A  
HETATM    4  C   UNL     1     -12.073  13.236  65.729  1.00  0.00    -0.491 A  
HETATM    5  C   UNL     1     -11.744  14.502  65.238  1.00  0.00    -0.361 A  
HETATM    6  O   UNL     1     -11.956  14.732  63.906  1.00  0.00    -0.819 OA 
HETATM    7  C   UNL     1     -11.160  15.466  66.068  1.00  0.00    -0.233 A  
HETATM    8  C   UNL     1     -11.219  13.847  67.896  1.00  0.00    -0.302 A  
HETATM    9  C   UNL     1     -10.911  15.123  67.410  1.00  0.00    -0.314 A  
HETATM   10  H   UNL     1     -11.732  15.592  63.572  1.00  0.00     0.000 HD 
BRANCH   7  11
HETATM   11  C   UNL     1     -10.705  16.816  65.629  1.00  0.00    -0.192 C  
HETATM   12  O   UNL     1     -10.995  17.196  64.491  1.00  0.00    -1.003 OA 
BRANCH  11  13
HETATM   13  C   UNL     1      -9.988  17.780  66.502  1.00  0.00    -0.346 A  
HETATM   14  C   UNL     1     -10.773  18.594  67.334  1.00  0.00    -0.456 A  
HETATM   15  C   UNL     1     -10.174  19.500  68.211  1.00  0.00    -0.552 A  
HETATM   16  C   UNL     1      -8.786  19.599  68.263  1.00  0.00    -0.361 A  
HETATM   17  C   UNL     1      -7.997  18.824  67.410  1.00  0.00    -0.254 A  
HETATM   18  C   UNL     1      -8.596  17.934  66.515  1.00  0.00    -0.255 A  
HETATM   19  O   UNL     1      -7.810  17.231  65.644  1.00  0.00    -0.417 OA 
HETATM   20  H   UNL     1      -6.866  17.336  65.653  1.00  0.00     0.000 HD 
ENDBRANCH  11  13
ENDBRANCH   7  11
ENDBRANCH   2   3
TORSDOF 3
ENDMDL
MODEL        4
REMARK 921   NORMALIZED FREE ENERGY PREDICTED BY IDOCK:   -6.58 KCAL/MOL
REMARK 922        TOTAL FREE ENERGY PREDICTED BY IDOCK:   -8.36 KCAL/MOL
REMARK 923 INTER-LIGAND FREE ENERGY PREDICTED BY IDOCK:   -7.56 KCAL/MOL
REMARK 924 INTRA-LIGAND FREE ENERGY PREDICTED BY IDOCK:   -0.79 KCAL/MOL
REMARK 927      BINDING AFFINITY PREDICTED BY RF-SCORE:    0.00 PKD
ROOT
HETATM    1  C   UNL     1      -9.718  19.740  66.677  1.00  0.00    -0.407 C  
HETATM    2  O   UNL     1      -9.442  18.520  67.362  1.00  0.00    -0.279 OA 
ENDROOT
BRANCH   2   3
HETATM    3  C   UNL     1      -9.983  17.406  66.779  1.00  0.00    -0.307 A  
HETATM    4  C   UNL     1     -10.477  17.362  65.474  1.00  0.00    -0.112 A  
HETATM    5  C   UNL     1     -11.078  16.199  64.986  1.00  0.00    -0.294 A  
HETATM    6  O   UNL     1     -11.648  16.263  63.743  1.00  0.00    -1.539 OA 
HETATM    7  C   UNL     1     -11.148  15.042  65.770  1.00  0.00    -0.346 A  
HETATM    8  C   UNL     1     -10.019  16.256  67.564  1.00  0.00    -0.248 A  
HETATM    9  C   UNL     1     -10.600  15.084  67.065  1.00  0.00    -0.293 A  
HETATM   10  H   UNL     1     -12.056  15.472  63.411  1.00  0.00     0.000 HD 
BRANCH   7  11
HETATM   11  C   UNL     1     -11.830  13.777  65.375  1.00  0.00    -0.358 C  
HETATM   12  O   UNL     1     -13.060  13.773  65.279  1.00  0.00    -0.756 OA 
BRANCH  11  13
HETATM   13  C   UNL     1     -11.118  12.526  65.004  1.00  0.00    -0.335 A  
HETATM   14  C   UNL     1     -10.569  12.464  63.713  1.00  0.00    -0.486 A  
HETATM   15  C   UNL     1      -9.853  11.338  63.300  1.00  0.00    -0.418 A  
HETATM   16  C   UNL     1      -9.682  10.267  64.174  1.00  0.00    -0.357 A  
HETATM   17  C   UNL     1     -10.260  10.302  65.446  1.00  0.00    -0.312 A  
HETATM   18  C   UNL     1     -10.996  11.418  65.851  1.00  0.00    -0.207 A  
HETATM   19  O   UNL     1     -11.607  11.407  67.074  1.00  0.00    -0.510 OA 
HETATM   20  H   UNL     1     -11.525  10.655  67.649  1.00  0.00     0.000 HD 
ENDBRANCH  11  13
ENDBRANCH   7  11
ENDBRANCH   2   3
TORSDOF 3
ENDMDL
MODEL        5
REMARK 921   NORMALIZED FREE ENERGY PREDICTED BY IDOCK:   -6.48 KCAL/MOL
REMARK 922        TOTAL FREE ENERGY PREDICTED BY IDOCK:   -8.24 KCAL/MOL
REMARK 923 INTER-LIGAND FREE ENERGY PREDICTED BY IDOCK:   -7.49 KCAL/MOL
REMARK 924 INTRA-LIGAND FREE ENERGY PREDICTED BY IDOCK:   -0.75 KCAL/MOL
REMARK 927      BINDING AFFINITY PREDICTED BY RF-SCORE:    0.00 PKD
ROOT
HETATM    1  C   UNL     1     -12.385  11.998  63.369  1.00  0.00    -0.523 C  
HETATM    2  O   UNL     1     -12.163  13.395  63.553  1.00  0.00    -0.648 OA 
ENDROOT
BRANCH   2   3
HETATM    3  C   UNL     1     -11.935  13.768  64.850  1.00  0.00    -0.390 A  
HETATM    4  C   UNL     1     -11.451  15.019  65.235  1.00  0.00    -0.308 A  
HETATM    5  C   UNL     1     -11.179  15.287  66.579  1.00  0.00    -0.228 A  
HETATM    6  O   UNL     1     -10.595  16.490  66.873  1.00  0.00    -0.302 OA 
HETATM    7  C   UNL     1     -11.437  14.332  67.570  1.00  0.00    -0.368 A  
HETATM    8  C   UNL     1     -12.223  12.815  65.825  1.00  0.00    -0.469 A  
HETATM    9  C   UNL     1     -11.973  13.093  67.173  1.00  0.00    -0.397 A  
HETATM   10  H   UNL     1     -10.410  16.672  67.786  1.00  0.00     0.000 HD 
BRANCH   7  11
HETATM   11  C   UNL     1     -11.117  14.488  69.017  1.00  0.00    -0.262 C  
HETATM   12  O   UNL     1      -9.978  14.842  69.336  1.00  0.00    -0.204 OA 
BRANCH  11  13
HETATM   13  C   UNL     1     -12.106  14.325  70.113  1.00  0.00    -0.403 A  
HETATM   14  C   UNL     1     -12.786  15.479  70.536  1.00  0.00    -0.436 A  
HETATM   15  C   UNL     1     -13.758  15.404  71.535  1.00  0.00    -0.601 A  
HETATM   16  C   UNL     1     -14.057  14.175  72.119  1.00  0.00    -0.643 A  
HETATM   17  C   UNL     1     -13.358  13.029  71.735  1.00  0.00    -0.468 A  
HETATM   18  C   UNL     1     -12.368  13.107  70.752  1.00  0.00    -0.321 A  
HETATM   19  O   UNL     1     -11.651  11.987  70.435  1.00  0.00    -0.519 OA 
HETATM   20  H   UNL     1     -11.828  11.161  70.869  1.00  0.00     0.000 HD 
ENDBRANCH  11  13
ENDBRANCH   7  11
ENDBRANCH   2   3
TORSDOF 3
ENDMDL
MODEL        6
REMARK 921   NORMALIZED FREE ENERGY PREDICTED BY IDOCK:   -6.46 KCAL/MOL
REMARK 922        TOTAL FREE ENERGY PREDICTED BY IDOCK:   -8.22 KCAL/MOL
REMARK 923 INTER-LIGAND FREE ENERGY PREDICTED BY IDOCK:   -7.30 KCAL/MOL
REMARK 924 INTRA-LIGAND FREE ENERGY PREDICTED BY IDOCK:   -0.92 KCAL/MOL
REMARK 927      BINDING AFFINITY PREDICTED BY RF-SCORE:    0.00 PKD
ROOT
HETATM    1  C   UNL     1     -11.729  11.878  67.549  1.00  0.00    -0.265 C  
HETATM    2  O   UNL     1     -12.200  12.514  66.363  1.00  0.00    -0.584 OA 
ENDROOT
BRANCH   2   3
HETATM    3  C   UNL     1     -11.793  13.812  66.213  1.00  0.00    -0.398 A  
HETATM    4  C   UNL     1     -11.895  14.536  65.025  1.00  0.00    -0.399 A  
HETATM    5  C   UNL     1     -11.386  15.835  64.944  1.00  0.00    -0.280 A  
HETATM    6  O   UNL     1     -11.412  16.443  63.718  1.00  0.00    -1.590 OA 
HETATM    7  C   UNL     1     -10.815  16.454  66.062  1.00  0.00    -0.093 A  
HETATM    8  C   UNL     1     -11.253  14.422  67.343  1.00  0.00    -0.337 A  
HETATM    9  C   UNL     1     -10.765  15.731  67.268  1.00  0.00    -0.313 A  
HETATM   10  H   UNL     1     -11.066  17.326  63.663  1.00  0.00     0.000 HD 
BRANCH   7  11
HETATM   11  C   UNL     1     -10.180  17.803  66.065  1.00  0.00    -0.293 C  
HETATM   12  O   UNL     1     -10.688  18.697  65.385  1.00  0.00    -0.572 OA 
BRANCH  11  13
HETATM   13  C   UNL     1      -9.009  18.172  66.903  1.00  0.00    -0.275 A  
HETATM   14  C   UNL     1      -7.753  17.704  66.485  1.00  0.00    -0.305 A  
HETATM   15  C   UNL     1      -6.599  18.038  67.197  1.00  0.00    -0.201 A  
HETATM   16  C   UNL     1      -6.693  18.841  68.331  1.00  0.00    -0.266 A  
HETATM   17  C   UNL     1      -7.942  19.277  68.779  1.00  0.00    -0.392 A  
HETATM   18  C   UNL     1      -9.100  18.923  68.081  1.00  0.00    -0.313 A  
HETATM   19  O   UNL     1     -10.318  19.306  68.571  1.00  0.00    -0.424 OA 
HETATM   20  H   UNL     1     -10.380  19.815  69.370  1.00  0.00     0.000 HD 
ENDBRANCH  11  13
ENDBRANCH   7  11
ENDBRANCH   2   3
TORSDOF 3
ENDMDL
MODEL        7
REMARK 921   NORMALIZED FREE ENERGY PREDICTED BY IDOCK:   -6.46 KCAL/MOL
REMARK 922        TOTAL FREE ENERGY PREDICTED BY IDOCK:   -8.21 KCAL/MOL
REMARK 923 INTER-LIGAND FREE ENERGY PREDICTED BY IDOCK:   -7.53 KCAL/MOL
REMARK 924 INTRA-LIGAND FREE ENERGY PREDICTED BY IDOCK:   -0.68 KCAL/MOL
REMARK 927      BINDING AFFINITY PREDICTED BY RF-SCORE:    0.00 PKD
ROOT
HETATM    1  C   UNL     1     -11.653  11.231  69.099  1.00  0.00    -0.319 C  
HETATM    2  O   UNL     1     -11.974  11.222  67.709  1.00  0.00    -0.637 OA 
ENDROOT
BRANCH   2   3
HETATM    3  C   UNL     1     -11.698  12.391  67.054  1.00  0.00    -0.353 A  
HETATM    4  C   UNL     1     -11.137  12.464  65.778  1.00  0.00    -0.351 A  
HETATM    5  C   UNL     1     -10.822  13.704  65.216  1.00  0.00    -0.322 A  
HETATM    6  O   UNL     1     -10.166  13.699  64.015  1.00  0.00    -0.701 OA 
HETATM    7  C   UNL     1     -11.112  14.895  65.893  1.00  0.00    -0.338 A  
HETATM    8  C   UNL     1     -12.019  13.566  67.730  1.00  0.00    -0.369 A  
HETATM    9  C   UNL     1     -11.725  14.808  67.156  1.00  0.00    -0.351 A  
HETATM   10  H   UNL     1      -9.952  14.542  63.633  1.00  0.00     0.000 HD 
BRANCH   7  11
HETATM   11  C   UNL     1     -10.754  16.261  65.417  1.00  0.00    -0.327 C  
HETATM   12  O   UNL     1     -11.189  16.642  64.327  1.00  0.00    -1.098 OA 
BRANCH  11  13
HETATM   13  C   UNL     1      -9.965  17.241  66.209  1.00  0.00    -0.311 A  
HETATM   14  C   UNL     1      -9.069  16.720  67.157  1.00  0.00    -0.224 A  
HETATM   15  C   UNL     1      -8.265  17.572  67.916  1.00  0.00    -0.231 A  
HETATM   16  C   UNL     1      -8.350  18.950  67.733  1.00  0.00    -0.305 A  
HETATM   17  C   UNL     1      -9.268  19.480  66.822  1.00  0.00    -0.415 A  
HETATM   18  C   UNL     1     -10.090  18.629  66.080  1.00  0.00    -0.369 A  
HETATM   19  O   UNL     1     -11.026  19.168  65.241  1.00  0.00    -0.512 OA 
HETATM   20  H   UNL     1     -11.111  20.110  65.154  1.00  0.00     0.000 HD 
ENDBRANCH  11  13
ENDBRANCH   7  11
ENDBRANCH   2   3
TORSDOF 3
ENDMDL
MODEL        8
REMARK 921   NORMALIZED FREE ENERGY PREDICTED BY IDOCK:   -6.44 KCAL/MOL
REMARK 922        TOTAL FREE ENERGY PREDICTED BY IDOCK:   -8.19 KCAL/MOL
REMARK 923 INTER-LIGAND FREE ENERGY PREDICTED BY IDOCK:   -7.39 KCAL/MOL
REMARK 924 INTRA-LIGAND FREE ENERGY PREDICTED BY IDOCK:   -0.80 KCAL/MOL
REMARK 927      BINDING AFFINITY PREDICTED BY RF-SCORE:    0.00 PKD
ROOT
HETATM    1  C   UNL     1     -12.466  15.067  71.710  1.00  0.00    -0.339 C  
HETATM    2  O   UNL     1     -11.663  16.101  71.143  1.00  0.00    -0.430 OA 
ENDROOT
BRANCH   2   3
HETATM    3  C   UNL     1     -11.387  15.940  69.812  1.00  0.00    -0.347 A  
HETATM    4  C   UNL     1     -10.616  16.825  69.057  1.00  0.00    -0.343 A  
HETATM    5  C   UNL     1     -10.446  16.619  67.685  1.00  0.00    -0.320 A  
HETATM    6  O   UNL     1      -9.780  17.587  66.984  1.00  0.00    -0.265 OA 
HETATM    7  C   UNL     1     -10.996  15.498  67.052  1.00  0.00    -0.283 A  
HETATM    8  C   UNL     1     -11.919  14.805  69.205  1.00  0.00    -0.329 A  
HETATM    9  C   UNL     1     -11.728  14.587  67.836  1.00  0.00    -0.381 A  
HETATM   10  H   UNL     1      -9.665  17.447  66.052  1.00  0.00     0.000 HD 
BRANCH   7  11
HETATM   11  C   UNL     1     -10.937  15.223  65.589  1.00  0.00    -0.344 C  
HETATM   12  O   UNL     1     -10.863  16.177  64.811  1.00  0.00    -0.634 OA 
BRANCH  11  13
HETATM   13  C   UNL     1     -10.878  13.861  64.997  1.00  0.00    -0.389 A  
HETATM   14  C   UNL     1      -9.930  12.974  65.532  1.00  0.00    -0.226 A  
HETATM   15  C   UNL     1      -9.836  11.664  65.057  1.00  0.00    -0.280 A  
HETATM   16  C   UNL     1     -10.689  11.232  64.043  1.00  0.00    -0.444 A  
HETATM   17  C   UNL     1     -11.608  12.120  63.476  1.00  0.00    -0.562 A  
HETATM   18  C   UNL     1     -11.685  13.437  63.935  1.00  0.00    -0.404 A  
HETATM   19  O   UNL     1     -12.546  14.307  63.324  1.00  0.00    -1.069 OA 
HETATM   20  H   UNL     1     -13.093  14.020  62.603  1.00  0.00     0.000 HD 
ENDBRANCH  11  13
ENDBRANCH   7  11
ENDBRANCH   2   3
TORSDOF 3
ENDMDL
MODEL        9
REMARK 921   NORMALIZED FREE ENERGY PREDICTED BY IDOCK:   -6.43 KCAL/MOL
REMARK 922        TOTAL FREE ENERGY PREDICTED BY IDOCK:   -8.18 KCAL/MOL
REMARK 923 INTER-LIGAND FREE ENERGY PREDICTED BY IDOCK:   -7.52 KCAL/MOL
REMARK 924 INTRA-LIGAND FREE ENERGY PREDICTED BY IDOCK:   -0.66 KCAL/MOL
REMARK 927      BINDING AFFINITY PREDICTED BY RF-SCORE:    0.00 PKD
ROOT
HETATM    1  C   UNL     1     -13.043   9.860  71.903  1.00  0.00    -0.459 C  
HETATM    2  O   UNL     1     -13.092  11.276  72.069  1.00  0.00    -0.495 OA 
ENDROOT
BRANCH   2   3
HETATM    3  C   UNL     1     -12.637  11.990  70.993  1.00  0.00    -0.273 A  
HETATM    4  C   UNL     1     -12.649  13.383  70.913  1.00  0.00    -0.406 A  
HETATM    5  C   UNL     1     -12.231  14.026  69.744  1.00  0.00    -0.341 A  
HETATM    6  O   UNL     1     -12.382  15.385  69.689  1.00  0.00    -0.521 OA 
HETATM    7  C   UNL     1     -11.742  13.293  68.656  1.00  0.00    -0.376 A  
HETATM    8  C   UNL     1     -12.128  11.246  69.931  1.00  0.00    -0.414 A  
HETATM    9  C   UNL     1     -11.687  11.892  68.771  1.00  0.00    -0.379 A  
HETATM   10  H   UNL     1     -12.098  15.822  68.895  1.00  0.00     0.000 HD 
BRANCH   7  11
HETATM   11  C   UNL     1     -11.341  13.872  67.343  1.00  0.00    -0.326 C  
HETATM   12  O   UNL     1     -10.954  15.043  67.306  1.00  0.00    -0.309 OA 
BRANCH  11  13
HETATM   13  C   UNL     1     -11.298  13.106  66.071  1.00  0.00    -0.337 A  
HETATM   14  C   UNL     1     -10.169  12.301  65.849  1.00  0.00    -0.274 A  
HETATM   15  C   UNL     1     -10.068  11.521  64.695  1.00  0.00    -0.318 A  
HETATM   16  C   UNL     1     -11.096  11.539  63.755  1.00  0.00    -0.471 A  
HETATM   17  C   UNL     1     -12.205  12.367  63.947  1.00  0.00    -0.603 A  
HETATM   18  C   UNL     1     -12.294  13.167  65.089  1.00  0.00    -0.473 A  
HETATM   19  O   UNL     1     -13.356  14.018  65.227  1.00  0.00    -0.741 OA 
HETATM   20  H   UNL     1     -14.032  14.059  64.562  1.00  0.00     0.000 HD 
ENDBRANCH  11  13
ENDBRANCH   7  11
ENDBRANCH   2   3
TORSDOF 3
ENDMDL
MODEL       10
REMARK 921   NORMALIZED FREE ENERGY PREDICTED BY IDOCK:   -6.42 KCAL/MOL
REMARK 922        TOTAL FREE ENERGY PREDICTED BY IDOCK:   -8.16 KCAL/MOL
REMARK 923 INTER-LIGAND FREE ENERGY PREDICTED BY IDOCK:   -7.22 KCAL/MOL
REMARK 924 INTRA-LIGAND FREE ENERGY PREDICTED BY IDOCK:   -0.94 KCAL/MOL
REMARK 927      BINDING AFFINITY PREDICTED BY RF-SCORE:    0.00 PKD
ROOT
HETATM    1  C   UNL     1     -12.527  12.122  63.458  1.00  0.00    -0.555 C  
HETATM    2  O   UNL     1     -13.040  12.669  64.671  1.00  0.00    -0.821 OA 
ENDROOT
BRANCH   2   3
HETATM    3  C   UNL     1     -12.139  13.411  65.386  1.00  0.00    -0.421 A  
HETATM    4  C   UNL     1     -11.910  13.264  66.755  1.00  0.00    -0.448 A  
HETATM    5  C   UNL     1     -11.021  14.116  67.417  1.00  0.00    -0.299 A  
HETATM    6  O   UNL     1     -10.934  13.995  68.778  1.00  0.00    -0.246 OA 
HETATM    7  C   UNL     1     -10.304  15.093  66.716  1.00  0.00    -0.273 A  
HETATM    8  C   UNL     1     -11.413  14.359  64.668  1.00  0.00    -0.390 A  
HETATM    9  C   UNL     1     -10.506  15.195  65.328  1.00  0.00    -0.434 A  
HETATM   10  H   UNL     1     -10.331  14.574  69.228  1.00  0.00     0.000 HD 
BRANCH   7  11
HETATM   11  C   UNL     1      -9.391  16.096  67.334  1.00  0.00    -0.217 C  
HETATM   12  O   UNL     1      -8.429  15.692  67.993  1.00  0.00    -0.145 OA 
BRANCH  11  13
HETATM   13  C   UNL     1      -9.513  17.564  67.144  1.00  0.00    -0.259 A  
HETATM   14  C   UNL     1     -10.608  18.198  67.753  1.00  0.00    -0.407 A  
HETATM   15  C   UNL     1     -10.774  19.580  67.653  1.00  0.00    -0.527 A  
HETATM   16  C   UNL     1      -9.847  20.340  66.943  1.00  0.00    -0.597 A  
HETATM   17  C   UNL     1      -8.776  19.714  66.299  1.00  0.00    -0.401 A  
HETATM   18  C   UNL     1      -8.623  18.328  66.378  1.00  0.00    -0.242 A  
HETATM   19  O   UNL     1      -7.606  17.727  65.689  1.00  0.00    -0.541 OA 
HETATM   20  H   UNL     1      -7.003  18.245  65.170  1.00  0.00     0.000 HD 
ENDBRANCH  11  13
ENDBRANCH   7  11
ENDBRANCH   2   3
TORSDOF 3
ENDMDL
MODEL       11
REMARK 921   NORMALIZED FREE ENERGY PREDICTED BY IDOCK:   -6.39 KCAL/MOL
REMARK 922        TOTAL FREE ENERGY PREDICTED BY IDOCK:   -8.13 KCAL/MOL
REMARK 923 INTER-LIGAND FREE ENERGY PREDICTED BY IDOCK:   -7.52 KCAL/MOL
REMARK 924 INTRA-LIGAND FREE ENERGY PREDICTED BY IDOCK:   -0.61 KCAL/MOL
REMARK 927      BINDING AFFINITY PREDICTED BY RF-SCORE:    0.00 PKD
ROOT
HETATM    1  C   UNL     1     -11.453  12.683  63.527  1.00  0.00    -0.491 C  
HETATM    2  O   UNL     1     -11.699  13.788  64.395  1.00  0.00    -0.382 OA 
ENDROOT
BRANCH   2   3
HETATM    3  C   UNL     1     -11.731  13.470  65.725  1.00  0.00    -0.345 A  
HETATM    4  C   UNL     1     -11.712  12.166  66.223  1.00  0.00    -0.389 A  
HETATM    5  C   UNL     1     -11.821  11.934  67.597  1.00  0.00    -0.195 A  
HETATM    6  O   UNL     1     -11.916  10.631  68.006  1.00  0.00    -0.784 OA 
HETATM    7  C   UNL     1     -11.895  12.998  68.503  1.00  0.00    -0.360 A  
HETATM    8  C   UNL     1     -11.776  14.542  66.614  1.00  0.00    -0.384 A  
HETATM    9  C   UNL     1     -11.861  14.308  67.991  1.00  0.00    -0.379 A  
HETATM   10  H   UNL     1     -11.990  10.473  68.940  1.00  0.00     0.000 HD 
BRANCH   7  11
HETATM   11  C   UNL     1     -12.085  12.861  69.975  1.00  0.00    -0.286 C  
HETATM   12  O   UNL     1     -11.808  11.784  70.509  1.00  0.00    -0.330 OA 
BRANCH  11  13
HETATM   13  C   UNL     1     -12.514  13.968  70.868  1.00  0.00    -0.439 A  
HETATM   14  C   UNL     1     -13.872  14.012  71.223  1.00  0.00    -0.172 A  
HETATM   15  C   UNL     1     -14.348  14.999  72.088  1.00  0.00    -0.622 A  
HETATM   16  C   UNL     1     -13.471  15.950  72.604  1.00  0.00    -0.554 A  
HETATM   17  C   UNL     1     -12.127  15.940  72.224  1.00  0.00    -0.597 A  
HETATM   18  C   UNL     1     -11.654  14.968  71.339  1.00  0.00    -0.346 A  
HETATM   19  O   UNL     1     -10.350  15.013  70.930  1.00  0.00    -0.462 OA 
HETATM   20  H   UNL     1      -9.767  15.691  71.250  1.00  0.00     0.000 HD 
ENDBRANCH  11  13
ENDBRANCH   7  11
ENDBRANCH   2   3
TORSDOF 3
ENDMDL
MODEL       12
REMARK 921   NORMALIZED FREE ENERGY PREDICTED BY IDOCK:   -6.38 KCAL/MOL
REMARK 922        TOTAL FREE ENERGY PREDICTED BY IDOCK:   -8.12 KCAL/MOL
REMARK 923 INTER-LIGAND FREE ENERGY PREDICTED BY IDOCK:   -7.27 KCAL/MOL
REMARK 924 INTRA-LIGAND FREE ENERGY PREDICTED BY IDOCK:   -0.85 KCAL/MOL
REMARK 927      BINDING AFFINITY PREDICTED BY RF-SCORE:    0.00 PKD
ROOT
HETATM    1  C   UNL     1     -12.878   9.883  71.776  1.00  0.00    -0.442 C  
HETATM    2  O   UNL     1     -13.038  11.292  71.930  1.00  0.00    -0.493 OA 
ENDROOT
BRANCH   2   3
HETATM    3  C   UNL     1     -12.621  12.033  70.858  1.00  0.00    -0.253 A  
HETATM    4  C   UNL     1     -12.640  13.427  70.810  1.00  0.00    -0.369 A  
HETATM    5  C   UNL     1     -12.261  14.099  69.644  1.00  0.00    -0.326 A  
HETATM    6  O   UNL     1     -12.418  15.458  69.625  1.00  0.00    -0.570 OA 
HETATM    7  C   UNL     1     -11.805  13.394  68.524  1.00  0.00    -0.401 A  
HETATM    8  C   UNL     1     -12.143  11.316  69.763  1.00  0.00    -0.394 A  
HETATM    9  C   UNL     1     -11.742  11.990  68.604  1.00  0.00    -0.380 A  
HETATM   10  H   UNL     1     -12.161  15.914  68.833  1.00  0.00     0.000 HD 
BRANCH   7  11
HETATM   11  C   UNL     1     -11.448  14.004  67.212  1.00  0.00    -0.348 C  
HETATM   12  O   UNL     1     -11.090  15.185  67.188  1.00  0.00    -0.329 OA 
BRANCH  11  13
HETATM   13  C   UNL     1     -11.415  13.260  65.926  1.00  0.00    -0.359 A  
HETATM   14  C   UNL     1     -12.647  13.018  65.298  1.00  0.00    -0.516 A  
HETATM   15  C   UNL     1     -12.699  12.358  64.069  1.00  0.00    -0.450 A  
HETATM   16  C   UNL     1     -11.520  11.935  63.459  1.00  0.00    -0.523 A  
HETATM   17  C   UNL     1     -10.292  12.135  64.096  1.00  0.00    -0.382 A  
HETATM   18  C   UNL     1     -10.242  12.774  65.337  1.00  0.00    -0.283 A  
HETATM   19  O   UNL     1      -9.038  12.903  65.973  1.00  0.00    -0.449 OA 
HETATM   20  H   UNL     1      -8.242  12.573  65.574  1.00  0.00     0.000 HD 
ENDBRANCH  11  13
ENDBRANCH   7  11
ENDBRANCH   2   3
TORSDOF 3
ENDMDL
MODEL       13
REMARK 921   NORMALIZED FREE ENERGY PREDICTED BY IDOCK:   -6.38 KCAL/MOL
REMARK 922        TOTAL FREE ENERGY PREDICTED BY IDOCK:   -8.12 KCAL/MOL
REMARK 923 INTER-LIGAND FREE ENERGY PREDICTED BY IDOCK:   -7.32 KCAL/MOL
REMARK 924 INTRA-LIGAND FREE ENERGY PREDICTED BY IDOCK:   -0.80 KCAL/MOL
REMARK 927      BINDING AFFINITY PREDICTED BY RF-SCORE:    0.00 PKD
ROOT
HETATM    1  C   UNL     1     -12.290  12.213  63.531  1.00  0.00    -0.574 C  
HETATM    2  O   UNL     1     -12.509  13.617  63.646  1.00  0.00    -0.728 OA 
ENDROOT
BRANCH   2   3
HETATM    3  C   UNL     1     -11.995  14.182  64.782  1.00  0.00    -0.431 A  
HETATM    4  C   UNL     1     -12.421  13.873  66.075  1.00  0.00    -0.501 A  
HETATM    5  C   UNL     1     -11.890  14.553  67.174  1.00  0.00    -0.387 A  
HETATM    6  O   UNL     1     -12.436  14.287  68.400  1.00  0.00    -0.564 OA 
HETATM    7  C   UNL     1     -10.884  15.514  67.008  1.00  0.00    -0.314 A  
HETATM    8  C   UNL     1     -10.977  15.114  64.600  1.00  0.00    -0.321 A  
HETATM    9  C   UNL     1     -10.428  15.777  65.704  1.00  0.00    -0.402 A  
HETATM   10  H   UNL     1     -12.075  14.749  69.147  1.00  0.00     0.000 HD 
BRANCH   7  11
HETATM   11  C   UNL     1     -10.303  16.345  68.100  1.00  0.00    -0.283 C  
HETATM   12  O   UNL     1     -10.132  15.830  69.208  1.00  0.00    -0.220 OA 
BRANCH  11  13
HETATM   13  C   UNL     1      -9.834  17.744  67.924  1.00  0.00    -0.306 A  
HETATM   14  C   UNL     1     -10.742  18.655  67.362  1.00  0.00    -0.456 A  
HETATM   15  C   UNL     1     -10.391  19.997  67.198  1.00  0.00    -0.554 A  
HETATM   16  C   UNL     1      -9.131  20.436  67.594  1.00  0.00    -0.393 A  
HETATM   17  C   UNL     1      -8.205  19.529  68.117  1.00  0.00    -0.352 A  
HETATM   18  C   UNL     1      -8.547  18.182  68.259  1.00  0.00    -0.288 A  
HETATM   19  O   UNL     1      -7.607  17.299  68.712  1.00  0.00    -0.247 OA 
HETATM   20  H   UNL     1      -6.734  17.596  68.939  1.00  0.00     0.000 HD 
ENDBRANCH  11  13
ENDBRANCH   7  11
ENDBRANCH   2   3
TORSDOF 3
ENDMDL
MODEL       14
REMARK 921   NORMALIZED FREE ENERGY PREDICTED BY IDOCK:   -6.31 KCAL/MOL
REMARK 922        TOTAL FREE ENERGY PREDICTED BY IDOCK:   -8.04 KCAL/MOL
REMARK 923 INTER-LIGAND FREE ENERGY PREDICTED BY IDOCK:   -7.20 KCAL/MOL
REMARK 924 INTRA-LIGAND FREE ENERGY PREDICTED BY IDOCK:   -0.84 KCAL/MOL
REMARK 927      BINDING AFFINITY PREDICTED BY RF-SCORE:    0.00 PKD
ROOT
HETATM    1  C   UNL     1     -12.813  15.967  73.932  1.00  0.00    -0.528 C  
HETATM    2  O   UNL     1     -13.627  15.226  73.025  1.00  0.00    -0.476 OA 
ENDROOT
BRANCH   2   3
HETATM    3  C   UNL     1     -12.984  14.815  71.890  1.00  0.00    -0.327 A  
HETATM    4  C   UNL     1     -12.716  13.481  71.577  1.00  0.00    -0.412 A  
HETATM    5  C   UNL     1     -11.989  13.158  70.429  1.00  0.00    -0.266 A  
HETATM    6  O   UNL     1     -11.658  11.843  70.245  1.00  0.00    -0.504 OA 
HETATM    7  C   UNL     1     -11.564  14.155  69.542  1.00  0.00    -0.349 A  
HETATM    8  C   UNL     1     -12.593  15.818  71.006  1.00  0.00    -0.470 A  
HETATM    9  C   UNL     1     -11.886  15.491  69.843  1.00  0.00    -0.380 A  
HETATM   10  H   UNL     1     -11.164  11.624  69.465  1.00  0.00     0.000 HD 
BRANCH   7  11
HETATM   11  C   UNL     1     -10.724  13.927  68.333  1.00  0.00    -0.257 C  
HETATM   12  O   UNL     1      -9.509  13.766  68.478  1.00  0.00    -0.210 OA 
BRANCH  11  13
HETATM   13  C   UNL     1     -11.263  13.797  66.954  1.00  0.00    -0.326 A  
HETATM   14  C   UNL     1     -11.202  14.937  66.136  1.00  0.00    -0.325 A  
HETATM   15  C   UNL     1     -11.653  14.887  64.815  1.00  0.00    -0.410 A  
HETATM   16  C   UNL     1     -12.170  13.699  64.304  1.00  0.00    -0.445 A  
HETATM   17  C   UNL     1     -12.273  12.572  65.123  1.00  0.00    -0.509 A  
HETATM   18  C   UNL     1     -11.844  12.627  66.451  1.00  0.00    -0.402 A  
HETATM   19  O   UNL     1     -12.012  11.533  67.254  1.00  0.00    -0.605 OA 
HETATM   20  H   UNL     1     -12.407  10.739  66.913  1.00  0.00     0.000 HD 
ENDBRANCH  11  13
ENDBRANCH   7  11
ENDBRANCH   2   3
TORSDOF 3
ENDMDL
MODEL       15
REMARK 921   NORMALIZED FREE ENERGY PREDICTED BY IDOCK:   -6.30 KCAL/MOL
REMARK 922        TOTAL FREE ENERGY PREDICTED BY IDOCK:   -8.03 KCAL/MOL
REMARK 923 INTER-LIGAND FREE ENERGY PREDICTED BY IDOCK:   -7.23 KCAL/MOL
REMARK 924 INTRA-LIGAND FREE ENERGY PREDICTED BY IDOCK:   -0.80 KCAL/MOL
REMARK 927      BINDING AFFINITY PREDICTED BY RF-SCORE:    0.00 PKD
ROOT
HETATM    1  C   UNL     1     -10.276  19.283  68.095  1.00  0.00    -0.418 C  
HETATM    2  O   UNL     1      -9.570  18.045  68.148  1.00  0.00    -0.278 OA 
ENDROOT
BRANCH   2   3
HETATM    3  C   UNL     1     -10.252  16.979  67.627  1.00  0.00    -0.317 A  
HETATM    4  C   UNL     1     -11.059  16.120  68.375  1.00  0.00    -0.359 A  
HETATM    5  C   UNL     1     -11.660  15.012  67.771  1.00  0.00    -0.319 A  
HETATM    6  O   UNL     1     -12.339  14.147  68.585  1.00  0.00    -0.553 OA 
HETATM    7  C   UNL     1     -11.512  14.772  66.400  1.00  0.00    -0.319 A  
HETATM    8  C   UNL     1     -10.116  16.771  66.256  1.00  0.00    -0.338 A  
HETATM    9  C   UNL     1     -10.738  15.675  65.648  1.00  0.00    -0.376 A  
HETATM   10  H   UNL     1     -12.747  13.394  68.175  1.00  0.00     0.000 HD 
BRANCH   7  11
HETATM   11  C   UNL     1     -12.048  13.586  65.674  1.00  0.00    -0.430 C  
HETATM   12  O   UNL     1     -13.201  13.632  65.237  1.00  0.00    -0.724 OA 
BRANCH  11  13
HETATM   13  C   UNL     1     -11.255  12.368  65.364  1.00  0.00    -0.358 A  
HETATM   14  C   UNL     1     -10.714  11.666  66.453  1.00  0.00    -0.316 A  
HETATM   15  C   UNL     1      -9.987  10.491  66.250  1.00  0.00    -0.276 A  
HETATM   16  C   UNL     1      -9.796  10.010  64.957  1.00  0.00    -0.374 A  
HETATM   17  C   UNL     1     -10.295  10.724  63.864  1.00  0.00    -0.329 A  
HETATM   18  C   UNL     1     -11.002  11.912  64.065  1.00  0.00    -0.381 A  
HETATM   19  O   UNL     1     -11.427  12.629  62.981  1.00  0.00    -0.763 OA 
HETATM   20  H   UNL     1     -11.255  12.319  62.100  1.00  0.00     0.000 HD 
ENDBRANCH  11  13
ENDBRANCH   7  11
ENDBRANCH   2   3
TORSDOF 3
ENDMDL
MODEL       16
REMARK 921   NORMALIZED FREE ENERGY PREDICTED BY IDOCK:   -6.28 KCAL/MOL
REMARK 922        TOTAL FREE ENERGY PREDICTED BY IDOCK:   -8.01 KCAL/MOL
REMARK 923 INTER-LIGAND FREE ENERGY PREDICTED BY IDOCK:   -7.27 KCAL/MOL
REMARK 924 INTRA-LIGAND FREE ENERGY PREDICTED BY IDOCK:   -0.74 KCAL/MOL
REMARK 927      BINDING AFFINITY PREDICTED BY RF-SCORE:    0.00 PKD
ROOT
HETATM    1  C   UNL     1      -7.890   8.886  64.213  1.00  0.00    -0.134 C  
HETATM    2  O   UNL     1      -9.020   9.345  63.474  1.00  0.00    -0.220 OA 
ENDROOT
BRANCH   2   3
HETATM    3  C   UNL     1      -9.673  10.408  64.036  1.00  0.00    -0.311 A  
HETATM    4  C   UNL     1     -10.262  10.390  65.301  1.00  0.00    -0.332 A  
HETATM    5  C   UNL     1     -10.972  11.501  65.765  1.00  0.00    -0.246 A  
HETATM    6  O   UNL     1     -11.625  11.373  66.960  1.00  0.00    -0.510 OA 
HETATM    7  C   UNL     1     -11.059  12.670  64.999  1.00  0.00    -0.326 A  
HETATM    8  C   UNL     1      -9.726  11.572  63.272  1.00  0.00    -0.405 A  
HETATM    9  C   UNL     1     -10.416  12.692  63.748  1.00  0.00    -0.411 A  
HETATM   10  H   UNL     1     -12.107  12.128  67.276  1.00  0.00     0.000 HD 
BRANCH   7  11
HETATM   11  C   UNL     1     -11.848  13.880  65.366  1.00  0.00    -0.355 C  
HETATM   12  O   UNL     1     -13.078  13.832  65.280  1.00  0.00    -0.756 OA 
BRANCH  11  13
HETATM   13  C   UNL     1     -11.256  15.128  65.913  1.00  0.00    -0.280 A  
HETATM   14  C   UNL     1     -10.934  15.135  67.280  1.00  0.00    -0.327 A  
HETATM   15  C   UNL     1     -10.340  16.256  67.863  1.00  0.00    -0.285 A  
HETATM   16  C   UNL     1     -10.064  17.378  67.085  1.00  0.00    -0.307 A  
HETATM   17  C   UNL     1     -10.419  17.396  65.733  1.00  0.00    -0.221 A  
HETATM   18  C   UNL     1     -11.035  16.284  65.155  1.00  0.00    -0.274 A  
HETATM   19  O   UNL     1     -11.432  16.344  63.847  1.00  0.00    -1.569 OA 
HETATM   20  H   UNL     1     -11.283  17.128  63.333  1.00  0.00     0.000 HD 
ENDBRANCH  11  13
ENDBRANCH   7  11
ENDBRANCH   2   3
TORSDOF 3
ENDMDL
MODEL       17
REMARK 921   NORMALIZED FREE ENERGY PREDICTED BY IDOCK:   -6.25 KCAL/MOL
REMARK 922        TOTAL FREE ENERGY PREDICTED BY IDOCK:   -7.97 KCAL/MOL
REMARK 923 INTER-LIGAND FREE ENERGY PREDICTED BY IDOCK:   -7.22 KCAL/MOL
REMARK 924 INTRA-LIGAND FREE ENERGY PREDICTED BY IDOCK:   -0.75 KCAL/MOL
REMARK 927      BINDING AFFINITY PREDICTED BY RF-SCORE:    0.00 PKD
ROOT
HETATM    1  C   UNL     1     -11.806  15.841  71.262  1.00  0.00    -0.437 C  
HETATM    2  O   UNL     1     -11.143  16.344  70.103  1.00  0.00    -0.355 OA 
ENDROOT
BRANCH   2   3
HETATM    3  C   UNL     1     -11.273  15.560  68.989  1.00  0.00    -0.303 A  
HETATM    4  C   UNL     1     -10.890  15.949  67.705  1.00  0.00    -0.312 A  
HETATM    5  C   UNL     1     -11.127  15.110  66.612  1.00  0.00    -0.308 A  
HETATM    6  O   UNL     1     -10.836  15.602  65.369  1.00  0.00    -0.358 OA 
HETATM    7  C   UNL     1     -11.699  13.845  66.789  1.00  0.00    -0.423 A  
HETATM    8  C   UNL     1     -11.818  14.293  69.187  1.00  0.00    -0.368 A  
HETATM    9  C   UNL     1     -12.033  13.444  68.095  1.00  0.00    -0.356 A  
HETATM   10  H   UNL     1     -10.998  15.032  64.627  1.00  0.00     0.000 HD 
BRANCH   7  11
HETATM   11  C   UNL     1     -12.060  12.905  65.690  1.00  0.00    -0.458 C  
HETATM   12  O   UNL     1     -13.189  12.976  65.198  1.00  0.00    -0.703 OA 
BRANCH  11  13
HETATM   13  C   UNL     1     -11.117  11.931  65.081  1.00  0.00    -0.360 A  
HETATM   14  C   UNL     1     -10.418  11.087  65.958  1.00  0.00    -0.304 A  
HETATM   15  C   UNL     1      -9.541  10.119  65.464  1.00  0.00    -0.310 A  
HETATM   16  C   UNL     1      -9.357   9.989  64.090  1.00  0.00    -0.335 A  
HETATM   17  C   UNL     1     -10.016  10.851  63.210  1.00  0.00    -0.399 A  
HETATM   18  C   UNL     1     -10.875  11.836  63.705  1.00  0.00    -0.424 A  
HETATM   19  O   UNL     1     -11.462  12.711  62.833  1.00  0.00    -0.709 OA 
HETATM   20  H   UNL     1     -11.297  12.646  61.900  1.00  0.00     0.000 HD 
ENDBRANCH  11  13
ENDBRANCH   7  11
ENDBRANCH   2   3
TORSDOF 3
ENDMDL
MODEL       18
REMARK 921   NORMALIZED FREE ENERGY PREDICTED BY IDOCK:   -6.25 KCAL/MOL
REMARK 922        TOTAL FREE ENERGY PREDICTED BY IDOCK:   -7.97 KCAL/MOL
REMARK 923 INTER-LIGAND FREE ENERGY PREDICTED BY IDOCK:   -7.38 KCAL/MOL
REMARK 924 INTRA-LIGAND FREE ENERGY PREDICTED BY IDOCK:   -0.59 KCAL/MOL
REMARK 927      BINDING AFFINITY PREDICTED BY RF-SCORE:    0.00 PKD
ROOT
HETATM    1  C   UNL     1      -9.593   8.223  66.217  1.00  0.00    -0.196 C  
HETATM    2  O   UNL     1      -9.176   9.160  65.226  1.00  0.00    -0.221 OA 
ENDROOT
BRANCH   2   3
HETATM    3  C   UNL     1      -9.925  10.304  65.174  1.00  0.00    -0.325 A  
HETATM    4  C   UNL     1     -10.396  10.883  63.995  1.00  0.00    -0.417 A  
HETATM    5  C   UNL     1     -11.094  12.093  64.032  1.00  0.00    -0.386 A  
HETATM    6  O   UNL     1     -11.421  12.665  62.832  1.00  0.00    -0.709 OA 
HETATM    7  C   UNL     1     -11.382  12.720  65.250  1.00  0.00    -0.338 A  
HETATM    8  C   UNL     1     -10.226  10.899  66.397  1.00  0.00    -0.289 A  
HETATM    9  C   UNL     1     -10.946  12.099  66.435  1.00  0.00    -0.327 A  
HETATM   10  H   UNL     1     -11.895  13.487  62.858  1.00  0.00     0.000 HD 
BRANCH   7  11
HETATM   11  C   UNL     1     -12.052  14.043  65.397  1.00  0.00    -0.401 C  
HETATM   12  O   UNL     1     -13.259  14.125  65.151  1.00  0.00    -0.743 OA 
BRANCH  11  13
HETATM   13  C   UNL     1     -11.381  15.268  65.903  1.00  0.00    -0.172 A  
HETATM   14  C   UNL     1     -11.069  15.304  67.272  1.00  0.00    -0.325 A  
HETATM   15  C   UNL     1     -10.404  16.404  67.819  1.00  0.00    -0.287 A  
HETATM   16  C   UNL     1     -10.047  17.474  67.002  1.00  0.00    -0.323 A  
HETATM   17  C   UNL     1     -10.389  17.465  65.648  1.00  0.00    -0.161 A  
HETATM   18  C   UNL     1     -11.076  16.376  65.105  1.00  0.00    -0.170 A  
HETATM   19  O   UNL     1     -11.458  16.415  63.792  1.00  0.00    -1.590 OA 
HETATM   20  H   UNL     1     -11.251  17.167  63.251  1.00  0.00     0.000 HD 
ENDBRANCH  11  13
ENDBRANCH   7  11
ENDBRANCH   2   3
TORSDOF 3
ENDMDL
MODEL       19
REMARK 921   NORMALIZED FREE ENERGY PREDICTED BY IDOCK:   -6.19 KCAL/MOL
REMARK 922        TOTAL FREE ENERGY PREDICTED BY IDOCK:   -7.90 KCAL/MOL
REMARK 923 INTER-LIGAND FREE ENERGY PREDICTED BY IDOCK:   -6.98 KCAL/MOL
REMARK 924 INTRA-LIGAND FREE ENERGY PREDICTED BY IDOCK:   -0.92 KCAL/MOL
REMARK 927      BINDING AFFINITY PREDICTED BY RF-SCORE:    0.00 PKD
ROOT
HETATM    1  C   UNL     1      -8.567   9.245  62.850  1.00  0.00    -0.219 C  
HETATM    2  O   UNL     1      -9.040   9.309  64.194  1.00  0.00    -0.166 OA 
ENDROOT
BRANCH   2   3
HETATM    3  C   UNL     1      -9.836  10.389  64.465  1.00  0.00    -0.339 A  
HETATM    4  C   UNL     1     -10.552  11.100  63.502  1.00  0.00    -0.393 A  
HETATM    5  C   UNL     1     -11.283  12.236  63.861  1.00  0.00    -0.421 A  
HETATM    6  O   UNL     1     -11.863  12.954  62.850  1.00  0.00    -0.783 OA 
HETATM    7  C   UNL     1     -11.356  12.652  65.196  1.00  0.00    -0.343 A  
HETATM    8  C   UNL     1      -9.920  10.772  65.802  1.00  0.00    -0.306 A  
HETATM    9  C   UNL     1     -10.671  11.895  66.164  1.00  0.00    -0.318 A  
HETATM   10  H   UNL     1     -12.359  13.726  63.094  1.00  0.00     0.000 HD 
BRANCH   7  11
HETATM   11  C   UNL     1     -12.044  13.884  65.674  1.00  0.00    -0.421 C  
HETATM   12  O   UNL     1     -13.248  14.017  65.442  1.00  0.00    -0.761 OA 
BRANCH  11  13
HETATM   13  C   UNL     1     -11.392  14.940  66.492  1.00  0.00    -0.319 A  
HETATM   14  C   UNL     1     -10.452  15.758  65.844  1.00  0.00    -0.366 A  
HETATM   15  C   UNL     1      -9.822  16.797  66.532  1.00  0.00    -0.303 A  
HETATM   16  C   UNL     1     -10.126  17.025  67.872  1.00  0.00    -0.306 A  
HETATM   17  C   UNL     1     -11.029  16.191  68.537  1.00  0.00    -0.338 A  
HETATM   18  C   UNL     1     -11.641  15.136  67.855  1.00  0.00    -0.311 A  
HETATM   19  O   UNL     1     -12.472  14.292  68.539  1.00  0.00    -0.565 OA 
HETATM   20  H   UNL     1     -12.642  14.425  69.464  1.00  0.00     0.000 HD 
ENDBRANCH  11  13
ENDBRANCH   7  11
ENDBRANCH   2   3
TORSDOF 3
ENDMDL
MODEL       20
REMARK 921   NORMALIZED FREE ENERGY PREDICTED BY IDOCK:   -6.15 KCAL/MOL
REMARK 922        TOTAL FREE ENERGY PREDICTED BY IDOCK:   -7.85 KCAL/MOL
REMARK 923 INTER-LIGAND FREE ENERGY PREDICTED BY IDOCK:   -7.01 KCAL/MOL
REMARK 924 INTRA-LIGAND FREE ENERGY PREDICTED BY IDOCK:   -0.85 KCAL/MOL
REMARK 927      BINDING AFFINITY PREDICTED BY RF-SCORE:    0.00 PKD
ROOT
HETATM    1  C   UNL     1     -10.627  19.047  67.285  1.00  0.00    -0.470 C  
HETATM    2  O   UNL     1     -10.047  17.877  67.859  1.00  0.00    -0.314 OA 
ENDROOT
BRANCH   2   3
HETATM    3  C   UNL     1     -10.608  16.701  67.441  1.00  0.00    -0.295 A  
HETATM    4  C   UNL     1     -11.369  15.860  68.255  1.00  0.00    -0.342 A  
HETATM    5  C   UNL     1     -11.843  14.641  67.763  1.00  0.00    -0.329 A  
HETATM    6  O   UNL     1     -12.478  13.813  68.648  1.00  0.00    -0.381 OA 
HETATM    7  C   UNL     1     -11.614  14.264  66.434  1.00  0.00    -0.381 A  
HETATM    8  C   UNL     1     -10.394  16.355  66.109  1.00  0.00    -0.354 A  
HETATM    9  C   UNL     1     -10.890  15.145  65.610  1.00  0.00    -0.367 A  
HETATM   10  H   UNL     1     -12.800  12.984  68.313  1.00  0.00     0.000 HD 
BRANCH   7  11
HETATM   11  C   UNL     1     -12.011  12.960  65.832  1.00  0.00    -0.448 C  
HETATM   12  O   UNL     1     -13.042  12.910  65.156  1.00  0.00    -0.753 OA 
BRANCH  11  13
HETATM   13  C   UNL     1     -11.200  11.718  65.921  1.00  0.00    -0.345 A  
HETATM   14  C   UNL     1     -10.393  11.403  64.816  1.00  0.00    -0.349 A  
HETATM   15  C   UNL     1      -9.572  10.274  64.835  1.00  0.00    -0.365 A  
HETATM   16  C   UNL     1      -9.554   9.450  65.958  1.00  0.00    -0.328 A  
HETATM   17  C   UNL     1     -10.385   9.732  67.046  1.00  0.00    -0.305 A  
HETATM   18  C   UNL     1     -11.223  10.849  67.018  1.00  0.00    -0.137 A  
HETATM   19  O   UNL     1     -12.075  11.072  68.064  1.00  0.00    -0.744 OA 
HETATM   20  H   UNL     1     -12.091  10.482  68.808  1.00  0.00     0.000 HD 
ENDBRANCH  11  13
ENDBRANCH   7  11
ENDBRANCH   2   3
TORSDOF 3
ENDMDL
MODEL       21
REMARK 921   NORMALIZED FREE ENERGY PREDICTED BY IDOCK:   -6.15 KCAL/MOL
REMARK 922        TOTAL FREE ENERGY PREDICTED BY IDOCK:   -7.85 KCAL/MOL
REMARK 923 INTER-LIGAND FREE ENERGY PREDICTED BY IDOCK:   -7.27 KCAL/MOL
REMARK 924 INTRA-LIGAND FREE ENERGY PREDICTED BY IDOCK:   -0.58 KCAL/MOL
REMARK 927      BINDING AFFINITY PREDICTED BY RF-SCORE:    0.00 PKD
ROOT
HETATM    1  C   UNL     1     -12.400   6.779  71.360  1.00  0.00    -0.353 C  
HETATM    2  O   UNL     1     -11.468   7.717  71.895  1.00  0.00    -0.255 OA 
ENDROOT
BRANCH   2   3
HETATM    3  C   UNL     1     -11.580   8.982  71.387  1.00  0.00    -0.326 A  
HETATM    4  C   UNL     1     -10.701   9.535  70.454  1.00  0.00    -0.341 A  
HETATM    5  C   UNL     1     -10.851  10.863  70.044  1.00  0.00    -0.072 A  
HETATM    6  O   UNL     1      -9.886  11.377  69.221  1.00  0.00    -0.415 OA 
HETATM    7  C   UNL     1     -11.911  11.646  70.516  1.00  0.00    -0.413 A  
HETATM    8  C   UNL     1     -12.657   9.737  71.845  1.00  0.00    -0.479 A  
HETATM    9  C   UNL     1     -12.820  11.059  71.416  1.00  0.00    -0.548 A  
HETATM   10  H   UNL     1      -9.988  12.279  68.943  1.00  0.00     0.000 HD 
BRANCH   7  11
HETATM   11  C   UNL     1     -12.120  13.087  70.201  1.00  0.00    -0.307 C  
HETATM   12  O   UNL     1     -12.085  13.446  69.021  1.00  0.00    -0.325 OA 
BRANCH  11  13
HETATM   13  C   UNL     1     -12.451  14.124  71.213  1.00  0.00    -0.446 A  
HETATM   14  C   UNL     1     -13.760  14.121  71.723  1.00  0.00    -0.492 A  
HETATM   15  C   UNL     1     -14.140  15.039  72.704  1.00  0.00    -0.397 A  
HETATM   16  C   UNL     1     -13.217  15.965  73.182  1.00  0.00    -0.692 A  
HETATM   17  C   UNL     1     -11.925  16.003  72.651  1.00  0.00    -0.646 A  
HETATM   18  C   UNL     1     -11.550  15.101  71.652  1.00  0.00    -0.400 A  
HETATM   19  O   UNL     1     -10.302  15.195  71.101  1.00  0.00    -0.362 OA 
HETATM   20  H   UNL     1      -9.691  15.858  71.399  1.00  0.00     0.000 HD 
ENDBRANCH  11  13
ENDBRANCH   7  11
ENDBRANCH   2   3
TORSDOF 3
ENDMDL
MODEL       22
REMARK 921   NORMALIZED FREE ENERGY PREDICTED BY IDOCK:   -6.13 KCAL/MOL
REMARK 922        TOTAL FREE ENERGY PREDICTED BY IDOCK:   -7.82 KCAL/MOL
REMARK 923 INTER-LIGAND FREE ENERGY PREDICTED BY IDOCK:   -7.27 KCAL/MOL
REMARK 924 INTRA-LIGAND FREE ENERGY PREDICTED BY IDOCK:   -0.55 KCAL/MOL
REMARK 927      BINDING AFFINITY PREDICTED BY RF-SCORE:    0.00 PKD
ROOT
HETATM    1  C   UNL     1      -9.546   9.707  65.554  1.00  0.00    -0.283 C  
HETATM    2  O   UNL     1     -10.226  10.312  64.456  1.00  0.00    -0.314 OA 
ENDROOT
BRANCH   2   3
HETATM    3  C   UNL     1     -10.495  11.644  64.618  1.00  0.00    -0.302 A  
HETATM    4  C   UNL     1     -11.452  12.347  63.886  1.00  0.00    -0.509 A  
HETATM    5  C   UNL     1     -11.608  13.724  64.068  1.00  0.00    -0.275 A  
HETATM    6  O   UNL     1     -12.479  14.372  63.234  1.00  0.00    -1.099 OA 
HETATM    7  C   UNL     1     -10.852  14.414  65.023  1.00  0.00    -0.420 A  
HETATM    8  C   UNL     1      -9.753  12.308  65.592  1.00  0.00    -0.205 A  
HETATM    9  C   UNL     1      -9.927  13.682  65.791  1.00  0.00    -0.277 A  
HETATM   10  H   UNL     1     -12.585  15.307  63.358  1.00  0.00     0.000 HD 
BRANCH   7  11
HETATM   11  C   UNL     1     -10.888  15.887  65.246  1.00  0.00    -0.387 C  
HETATM   12  O   UNL     1     -11.178  16.621  64.299  1.00  0.00    -1.098 OA 
BRANCH  11  13
HETATM   13  C   UNL     1     -10.676  16.537  66.566  1.00  0.00    -0.144 A  
HETATM   14  C   UNL     1     -11.102  15.829  67.701  1.00  0.00    -0.283 A  
HETATM   15  C   UNL     1     -10.906  16.354  68.980  1.00  0.00    -0.331 A  
HETATM   16  C   UNL     1     -10.282  17.590  69.133  1.00  0.00    -0.256 A  
HETATM   17  C   UNL     1      -9.892  18.321  68.008  1.00  0.00    -0.343 A  
HETATM   18  C   UNL     1     -10.110  17.807  66.727  1.00  0.00    -0.349 A  
HETATM   19  O   UNL     1      -9.779  18.565  65.638  1.00  0.00    -0.395 OA 
HETATM   20  H   UNL     1      -9.395  19.426  65.747  1.00  0.00     0.000 HD 
ENDBRANCH  11  13
ENDBRANCH   7  11
ENDBRANCH   2   3
TORSDOF 3
ENDMDL
MODEL       23
REMARK 921   NORMALIZED FREE ENERGY PREDICTED BY IDOCK:   -6.08 KCAL/MOL
REMARK 922        TOTAL FREE ENERGY PREDICTED BY IDOCK:   -7.77 KCAL/MOL
REMARK 923 INTER-LIGAND FREE ENERGY PREDICTED BY IDOCK:   -6.94 KCAL/MOL
REMARK 924 INTRA-LIGAND FREE ENERGY PREDICTED BY IDOCK:   -0.83 KCAL/MOL
REMARK 927      BINDING AFFINITY PREDICTED BY RF-SCORE:    0.00 PKD
ROOT
HETATM    1  C   UNL     1     -11.628  14.427  67.470  1.00  0.00    -0.373 C  
HETATM    2  O   UNL     1     -11.589  14.640  68.880  1.00  0.00    -0.279 OA 
ENDROOT
BRANCH   2   3
HETATM    3  C   UNL     1     -11.972  13.561  69.629  1.00  0.00    -0.337 A  
HETATM    4  C   UNL     1     -12.642  13.649  70.849  1.00  0.00    -0.421 A  
HETATM    5  C   UNL     1     -12.930  12.494  71.582  1.00  0.00    -0.302 A  
HETATM    6  O   UNL     1     -13.480  12.660  72.824  1.00  0.00    -0.594 OA 
HETATM    7  C   UNL     1     -12.604  11.227  71.083  1.00  0.00    -0.501 A  
HETATM    8  C   UNL     1     -11.665  12.307  69.104  1.00  0.00    -0.377 A  
HETATM    9  C   UNL     1     -11.975  11.150  69.827  1.00  0.00    -0.428 A  
HETATM   10  H   UNL     1     -13.675  11.874  73.321  1.00  0.00     0.000 HD 
BRANCH   7  11
HETATM   11  C   UNL     1     -12.799   9.941  71.812  1.00  0.00    -0.442 C  
HETATM   12  O   UNL     1     -13.782   9.823  72.548  1.00  0.00    -0.340 OA 
BRANCH  11  13
HETATM   13  C   UNL     1     -11.927   8.749  71.651  1.00  0.00    -0.399 A  
HETATM   14  C   UNL     1     -10.556   8.923  71.902  1.00  0.00    -0.419 A  
HETATM   15  C   UNL     1      -9.675   7.844  71.809  1.00  0.00    -0.219 A  
HETATM   16  C   UNL     1     -10.157   6.584  71.463  1.00  0.00    -0.211 A  
HETATM   17  C   UNL     1     -11.512   6.409  71.171  1.00  0.00    -0.381 A  
HETATM   18  C   UNL     1     -12.390   7.494  71.241  1.00  0.00    -0.327 A  
HETATM   19  O   UNL     1     -13.700   7.316  70.889  1.00  0.00    -0.592 OA 
HETATM   20  H   UNL     1     -14.015   6.465  70.611  1.00  0.00     0.000 HD 
ENDBRANCH  11  13
ENDBRANCH   7  11
ENDBRANCH   2   3
TORSDOF 3
ENDMDL
MODEL       24
REMARK 921   NORMALIZED FREE ENERGY PREDICTED BY IDOCK:   -6.05 KCAL/MOL
REMARK 922        TOTAL FREE ENERGY PREDICTED BY IDOCK:   -7.73 KCAL/MOL
REMARK 923 INTER-LIGAND FREE ENERGY PREDICTED BY IDOCK:   -6.92 KCAL/MOL
REMARK 924 INTRA-LIGAND FREE ENERGY PREDICTED BY IDOCK:   -0.82 KCAL/MOL
REMARK 927      BINDING AFFINITY PREDICTED BY RF-SCORE:    0.00 PKD
ROOT
HETATM    1  C   UNL     1     -12.556  11.914  63.556  1.00  0.00    -0.459 C  
HETATM    2  O   UNL     1     -11.239  11.910  64.103  1.00  0.00    -0.332 OA 
ENDROOT
BRANCH   2   3
HETATM    3  C   UNL     1     -11.133  12.496  65.336  1.00  0.00    -0.302 A  
HETATM    4  C   UNL     1     -10.107  12.235  66.245  1.00  0.00    -0.253 A  
HETATM    5  C   UNL     1     -10.120  12.826  67.511  1.00  0.00    -0.213 A  
HETATM    6  O   UNL     1      -9.151  12.435  68.395  1.00  0.00    -0.247 OA 
HETATM    7  C   UNL     1     -11.126  13.730  67.873  1.00  0.00    -0.285 A  
HETATM    8  C   UNL     1     -12.127  13.413  65.668  1.00  0.00    -0.476 A  
HETATM    9  C   UNL     1     -12.126  14.023  66.928  1.00  0.00    -0.465 A  
HETATM   10  H   UNL     1      -9.159  12.836  69.256  1.00  0.00     0.000 HD 
BRANCH   7  11
HETATM   11  C   UNL     1     -11.273  14.357  69.217  1.00  0.00    -0.275 C  
HETATM   12  O   UNL     1     -10.672  15.410  69.447  1.00  0.00    -0.229 OA 
BRANCH  11  13
HETATM   13  C   UNL     1     -12.167  13.841  70.286  1.00  0.00    -0.429 A  
HETATM   14  C   UNL     1     -12.109  12.465  70.557  1.00  0.00    -0.363 A  
HETATM   15  C   UNL     1     -12.890  11.908  71.571  1.00  0.00    -0.421 A  
HETATM   16  C   UNL     1     -13.735  12.722  72.321  1.00  0.00    -0.495 A  
HETATM   17  C   UNL     1     -13.831  14.086  72.032  1.00  0.00    -0.582 A  
HETATM   18  C   UNL     1     -13.068  14.639  71.001  1.00  0.00    -0.367 A  
HETATM   19  O   UNL     1     -13.223  15.962  70.692  1.00  0.00    -0.723 OA 
HETATM   20  H   UNL     1     -13.834  16.504  71.177  1.00  0.00     0.000 HD 
ENDBRANCH  11  13
ENDBRANCH   7  11
ENDBRANCH   2   3
TORSDOF 3
ENDMDL
MODEL       25
REMARK 921   NORMALIZED FREE ENERGY PREDICTED BY IDOCK:   -6.05 KCAL/MOL
REMARK 922        TOTAL FREE ENERGY PREDICTED BY IDOCK:   -7.73 KCAL/MOL
REMARK 923 INTER-LIGAND FREE ENERGY PREDICTED BY IDOCK:   -6.87 KCAL/MOL
REMARK 924 INTRA-LIGAND FREE ENERGY PREDICTED BY IDOCK:   -0.86 KCAL/MOL
REMARK 927      BINDING AFFINITY PREDICTED BY RF-SCORE:    0.00 PKD
ROOT
HETATM    1  C   UNL     1     -14.208   8.575  71.809  1.00  0.00    -0.446 C  
HETATM    2  O   UNL     1     -13.246   9.455  72.389  1.00  0.00    -0.434 OA 
ENDROOT
BRANCH   2   3
HETATM    3  C   UNL     1     -12.614  10.275  71.495  1.00  0.00    -0.440 A  
HETATM    4  C   UNL     1     -12.818  11.653  71.413  1.00  0.00    -0.461 A  
HETATM    5  C   UNL     1     -12.182  12.402  70.419  1.00  0.00    -0.287 A  
HETATM    6  O   UNL     1     -12.518  13.725  70.319  1.00  0.00    -0.326 OA 
HETATM    7  C   UNL     1     -11.289  11.800  69.525  1.00  0.00    -0.317 A  
HETATM    8  C   UNL     1     -11.708   9.663  70.632  1.00  0.00    -0.353 A  
HETATM    9  C   UNL     1     -11.053  10.419  69.653  1.00  0.00    -0.328 A  
HETATM   10  H   UNL     1     -12.086  14.234  69.644  1.00  0.00     0.000 HD 
BRANCH   7  11
HETATM   11  C   UNL     1     -10.616  12.489  68.388  1.00  0.00    -0.242 C  
HETATM   12  O   UNL     1      -9.449  12.862  68.529  1.00  0.00    -0.190 OA 
BRANCH  11  13
HETATM   13  C   UNL     1     -11.233  12.690  67.051  1.00  0.00    -0.348 A  
HETATM   14  C   UNL     1     -10.889  11.772  66.045  1.00  0.00    -0.343 A  
HETATM   15  C   UNL     1     -11.454  11.869  64.772  1.00  0.00    -0.323 A  
HETATM   16  C   UNL     1     -12.366  12.885  64.495  1.00  0.00    -0.483 A  
HETATM   17  C   UNL     1     -12.683  13.828  65.476  1.00  0.00    -0.530 A  
HETATM   18  C   UNL     1     -12.100  13.745  66.742  1.00  0.00    -0.418 A  
HETATM   19  O   UNL     1     -12.374  14.714  67.668  1.00  0.00    -0.597 OA 
HETATM   20  H   UNL     1     -12.962  15.430  67.459  1.00  0.00     0.000 HD 
ENDBRANCH  11  13
ENDBRANCH   7  11
ENDBRANCH   2   3
TORSDOF 3
ENDMDL
MODEL       26
REMARK 921   NORMALIZED FREE ENERGY PREDICTED BY IDOCK:   -6.04 KCAL/MOL
REMARK 922        TOTAL FREE ENERGY PREDICTED BY IDOCK:   -7.72 KCAL/MOL
REMARK 923 INTER-LIGAND FREE ENERGY PREDICTED BY IDOCK:   -7.07 KCAL/MOL
REMARK 924 INTRA-LIGAND FREE ENERGY PREDICTED BY IDOCK:   -0.65 KCAL/MOL
REMARK 927      BINDING AFFINITY PREDICTED BY RF-SCORE:    0.00 PKD
ROOT
HETATM    1  C   UNL     1     -12.326  12.347  63.676  1.00  0.00    -0.548 C  
HETATM    2  O   UNL     1     -12.419  13.770  63.703  1.00  0.00    -0.718 OA 
ENDROOT
BRANCH   2   3
HETATM    3  C   UNL     1     -11.971  14.347  64.860  1.00  0.00    -0.426 A  
HETATM    4  C   UNL     1     -12.361  13.950  66.139  1.00  0.00    -0.504 A  
HETATM    5  C   UNL     1     -11.907  14.646  67.263  1.00  0.00    -0.351 A  
HETATM    6  O   UNL     1     -12.422  14.280  68.477  1.00  0.00    -0.565 OA 
HETATM    7  C   UNL     1     -11.012  15.715  67.134  1.00  0.00    -0.270 A  
HETATM    8  C   UNL     1     -11.060  15.391  64.714  1.00  0.00    -0.416 A  
HETATM    9  C   UNL     1     -10.587  16.072  65.842  1.00  0.00    -0.338 A  
HETATM   10  H   UNL     1     -12.113  14.752  69.241  1.00  0.00     0.000 HD 
BRANCH   7  11
HETATM   11  C   UNL     1     -10.526  16.566  68.256  1.00  0.00    -0.313 C  
HETATM   12  O   UNL     1     -10.910  16.313  69.401  1.00  0.00    -0.286 OA 
BRANCH  11  13
HETATM   13  C   UNL     1      -9.534  17.662  68.103  1.00  0.00    -0.286 A  
HETATM   14  C   UNL     1      -8.218  17.394  68.514  1.00  0.00    -0.268 A  
HETATM   15  C   UNL     1      -7.219  18.358  68.369  1.00  0.00    -0.281 A  
HETATM   16  C   UNL     1      -7.527  19.597  67.813  1.00  0.00    -0.313 A  
HETATM   17  C   UNL     1      -8.841  19.889  67.439  1.00  0.00    -0.411 A  
HETATM   18  C   UNL     1      -9.847  18.933  67.606  1.00  0.00    -0.331 A  
HETATM   19  O   UNL     1     -11.138  19.260  67.294  1.00  0.00    -0.442 OA 
HETATM   20  H   UNL     1     -11.350  20.122  66.957  1.00  0.00     0.000 HD 
ENDBRANCH  11  13
ENDBRANCH   7  11
ENDBRANCH   2   3
TORSDOF 3
ENDMDL
MODEL       27
REMARK 921   NORMALIZED FREE ENERGY PREDICTED BY IDOCK:   -5.99 KCAL/MOL
REMARK 922        TOTAL FREE ENERGY PREDICTED BY IDOCK:   -7.67 KCAL/MOL
REMARK 923 INTER-LIGAND FREE ENERGY PREDICTED BY IDOCK:   -6.82 KCAL/MOL
REMARK 924 INTRA-LIGAND FREE ENERGY PREDICTED BY IDOCK:   -0.84 KCAL/MOL
REMARK 927      BINDING AFFINITY PREDICTED BY RF-SCORE:    0.00 PKD
ROOT
HETATM    1  C   UNL     1     -12.600  15.952  73.880  1.00  0.00    -0.623 C  
HETATM    2  O   UNL     1     -13.318  15.595  72.701  1.00  0.00    -0.450 OA 
ENDROOT
BRANCH   2   3
HETATM    3  C   UNL     1     -12.529  15.220  71.647  1.00  0.00    -0.363 A  
HETATM    4  C   UNL     1     -11.615  16.061  71.011  1.00  0.00    -0.472 A  
HETATM    5  C   UNL     1     -10.903  15.614  69.894  1.00  0.00    -0.318 A  
HETATM    6  O   UNL     1     -10.114  16.526  69.248  1.00  0.00    -0.267 OA 
HETATM    7  C   UNL     1     -11.050  14.303  69.425  1.00  0.00    -0.283 A  
HETATM    8  C   UNL     1     -12.668  13.905  71.211  1.00  0.00    -0.444 A  
HETATM    9  C   UNL     1     -11.937  13.451  70.107  1.00  0.00    -0.396 A  
HETATM   10  H   UNL     1      -9.630  16.222  68.489  1.00  0.00     0.000 HD 
BRANCH   7  11
HETATM   11  C   UNL     1     -10.397  13.750  68.205  1.00  0.00    -0.247 C  
HETATM   12  O   UNL     1      -9.350  13.110  68.334  1.00  0.00    -0.207 OA 
BRANCH  11  13
HETATM   13  C   UNL     1     -10.967  13.847  66.837  1.00  0.00    -0.300 A  
HETATM   14  C   UNL     1     -11.781  12.785  66.409  1.00  0.00    -0.464 A  
HETATM   15  C   UNL     1     -12.385  12.817  65.150  1.00  0.00    -0.555 A  
HETATM   16  C   UNL     1     -12.180  13.909  64.311  1.00  0.00    -0.447 A  
HETATM   17  C   UNL     1     -11.339  14.950  64.710  1.00  0.00    -0.400 A  
HETATM   18  C   UNL     1     -10.715  14.908  65.959  1.00  0.00    -0.323 A  
HETATM   19  O   UNL     1      -9.845  15.905  66.306  1.00  0.00    -0.262 OA 
HETATM   20  H   UNL     1      -9.674  16.625  65.711  1.00  0.00     0.000 HD 
ENDBRANCH  11  13
ENDBRANCH   7  11
ENDBRANCH   2   3
TORSDOF 3
ENDMDL
MODEL       28
REMARK 921   NORMALIZED FREE ENERGY PREDICTED BY IDOCK:   -5.98 KCAL/MOL
REMARK 922        TOTAL FREE ENERGY PREDICTED BY IDOCK:   -7.65 KCAL/MOL
REMARK 923 INTER-LIGAND FREE ENERGY PREDICTED BY IDOCK:   -6.90 KCAL/MOL
REMARK 924 INTRA-LIGAND FREE ENERGY PREDICTED BY IDOCK:   -0.75 KCAL/MOL
REMARK 927      BINDING AFFINITY PREDICTED BY RF-SCORE:    0.00 PKD
ROOT
HETATM    1  C   UNL     1      -9.866  11.384  63.285  1.00  0.00    -0.404 C  
HETATM    2  O   UNL     1     -10.626  10.721  64.294  1.00  0.00    -0.350 OA 
ENDROOT
BRANCH   2   3
HETATM    3  C   UNL     1     -10.876  11.478  65.406  1.00  0.00    -0.259 A  
HETATM    4  C   UNL     1     -11.853  12.472  65.477  1.00  0.00    -0.491 A  
HETATM    5  C   UNL     1     -11.990  13.246  66.632  1.00  0.00    -0.388 A  
HETATM    6  O   UNL     1     -12.885  14.280  66.591  1.00  0.00    -0.438 OA 
HETATM    7  C   UNL     1     -11.193  13.006  67.758  1.00  0.00    -0.313 A  
HETATM    8  C   UNL     1     -10.092  11.207  66.525  1.00  0.00    -0.265 A  
HETATM    9  C   UNL     1     -10.247  11.967  67.690  1.00  0.00    -0.215 A  
HETATM   10  H   UNL     1     -12.978  14.806  67.376  1.00  0.00     0.000 HD 
BRANCH   7  11
HETATM   11  C   UNL     1     -11.207  13.816  69.008  1.00  0.00    -0.272 C  
HETATM   12  O   UNL     1     -10.431  14.770  69.104  1.00  0.00    -0.234 OA 
BRANCH  11  13
HETATM   13  C   UNL     1     -12.158  13.603  70.130  1.00  0.00    -0.431 A  
HETATM   14  C   UNL     1     -12.221  12.310  70.676  1.00  0.00    -0.378 A  
HETATM   15  C   UNL     1     -13.062  12.036  71.756  1.00  0.00    -0.460 A  
HETATM   16  C   UNL     1     -13.847  13.052  72.298  1.00  0.00    -0.529 A  
HETATM   17  C   UNL     1     -13.822  14.331  71.736  1.00  0.00    -0.514 A  
HETATM   18  C   UNL     1     -12.999  14.599  70.640  1.00  0.00    -0.313 A  
HETATM   19  O   UNL     1     -13.037  15.839  70.064  1.00  0.00    -0.648 OA 
HETATM   20  H   UNL     1     -13.607  16.515  70.409  1.00  0.00     0.000 HD 
ENDBRANCH  11  13
ENDBRANCH   7  11
ENDBRANCH   2   3
TORSDOF 3
ENDMDL
MODEL       29
REMARK 921   NORMALIZED FREE ENERGY PREDICTED BY IDOCK:   -5.97 KCAL/MOL
REMARK 922        TOTAL FREE ENERGY PREDICTED BY IDOCK:   -7.64 KCAL/MOL
REMARK 923 INTER-LIGAND FREE ENERGY PREDICTED BY IDOCK:   -6.79 KCAL/MOL
REMARK 924 INTRA-LIGAND FREE ENERGY PREDICTED BY IDOCK:   -0.85 KCAL/MOL
REMARK 927      BINDING AFFINITY PREDICTED BY RF-SCORE:    0.00 PKD
ROOT
HETATM    1  C   UNL     1     -11.161  10.464  67.635  1.00  0.00    -0.213 C  
HETATM    2  O   UNL     1     -12.064  11.562  67.524  1.00  0.00    -0.614 OA 
ENDROOT
BRANCH   2   3
HETATM    3  C   UNL     1     -11.471  12.758  67.224  1.00  0.00    -0.337 A  
HETATM    4  C   UNL     1     -11.667  13.456  66.032  1.00  0.00    -0.398 A  
HETATM    5  C   UNL     1     -10.962  14.636  65.780  1.00  0.00    -0.330 A  
HETATM    6  O   UNL     1     -11.111  15.204  64.544  1.00  0.00    -0.611 OA 
HETATM    7  C   UNL     1     -10.091  15.171  66.737  1.00  0.00    -0.261 A  
HETATM    8  C   UNL     1     -10.629  13.290  68.199  1.00  0.00    -0.259 A  
HETATM    9  C   UNL     1      -9.942  14.484  67.956  1.00  0.00    -0.222 A  
HETATM   10  H   UNL     1     -10.632  16.006  64.374  1.00  0.00     0.000 HD 
BRANCH   7  11
HETATM   11  C   UNL     1      -9.239  16.378  66.542  1.00  0.00    -0.277 C  
HETATM   12  O   UNL     1      -8.149  16.249  65.979  1.00  0.00    -0.219 OA 
BRANCH  11  13
HETATM   13  C   UNL     1      -9.651  17.758  66.911  1.00  0.00    -0.288 A  
HETATM   14  C   UNL     1      -9.237  18.233  68.166  1.00  0.00    -0.313 A  
HETATM   15  C   UNL     1      -9.550  19.532  68.572  1.00  0.00    -0.476 A  
HETATM   16  C   UNL     1     -10.280  20.364  67.726  1.00  0.00    -0.392 A  
HETATM   17  C   UNL     1     -10.732  19.887  66.493  1.00  0.00    -0.447 A  
HETATM   18  C   UNL     1     -10.439  18.580  66.097  1.00  0.00    -0.413 A  
HETATM   19  O   UNL     1     -10.944  18.111  64.915  1.00  0.00    -0.718 OA 
HETATM   20  H   UNL     1     -11.479  18.669  64.363  1.00  0.00     0.000 HD 
ENDBRANCH  11  13
ENDBRANCH   7  11
ENDBRANCH   2   3
TORSDOF 3
ENDMDL
MODEL       30
REMARK 921   NORMALIZED FREE ENERGY PREDICTED BY IDOCK:   -5.93 KCAL/MOL
REMARK 922        TOTAL FREE ENERGY PREDICTED BY IDOCK:   -7.59 KCAL/MOL
REMARK 923 INTER-LIGAND FREE ENERGY PREDICTED BY IDOCK:   -6.65 KCAL/MOL
REMARK 924 INTRA-LIGAND FREE ENERGY PREDICTED BY IDOCK:   -0.94 KCAL/MOL
REMARK 927      BINDING AFFINITY PREDICTED BY RF-SCORE:    0.00 PKD
ROOT
HETATM    1  C   UNL     1      -9.993  18.503  66.939  1.00  0.00    -0.349 C  
HETATM    2  O   UNL     1      -9.450  17.751  65.856  1.00  0.00    -0.521 OA 
ENDROOT
BRANCH   2   3
HETATM    3  C   UNL     1      -9.953  16.485  65.733  1.00  0.00    -0.274 A  
HETATM    4  C   UNL     1     -10.850  16.088  64.741  1.00  0.00    -0.315 A  
HETATM    5  C   UNL     1     -11.369  14.790  64.736  1.00  0.00    -0.397 A  
HETATM    6  O   UNL     1     -12.333  14.504  63.809  1.00  0.00    -1.013 OA 
HETATM    7  C   UNL     1     -10.960  13.849  65.688  1.00  0.00    -0.290 A  
HETATM    8  C   UNL     1      -9.514  15.554  66.672  1.00  0.00    -0.281 A  
HETATM    9  C   UNL     1     -10.015  14.248  66.652  1.00  0.00    -0.279 A  
HETATM   10  H   UNL     1     -12.686  13.622  63.805  1.00  0.00     0.000 HD 
BRANCH   7  11
HETATM   11  C   UNL     1     -11.502  12.467  65.817  1.00  0.00    -0.370 C  
HETATM   12  O   UNL     1     -12.712  12.289  65.657  1.00  0.00    -0.368 OA 
BRANCH  11  13
HETATM   13  C   UNL     1     -10.666  11.260  66.047  1.00  0.00    -0.301 A  
HETATM   14  C   UNL     1      -9.730  10.934  65.052  1.00  0.00    -0.319 A  
HETATM   15  C   UNL     1      -8.881   9.837  65.210  1.00  0.00    -0.206 A  
HETATM   16  C   UNL     1      -8.961   9.058  66.362  1.00  0.00    -0.189 A  
HETATM   17  C   UNL     1      -9.917   9.350  67.338  1.00  0.00    -0.252 A  
HETATM   18  C   UNL     1     -10.783  10.433  67.170  1.00  0.00    -0.256 A  
HETATM   19  O   UNL     1     -11.753  10.664  68.106  1.00  0.00    -0.671 OA 
HETATM   20  H   UNL     1     -11.833  10.103  68.868  1.00  0.00     0.000 HD 
ENDBRANCH  11  13
ENDBRANCH   7  11
ENDBRANCH   2   3
TORSDOF 3
ENDMDL
MODEL       31
REMARK 921   NORMALIZED FREE ENERGY PREDICTED BY IDOCK:   -5.92 KCAL/MOL
REMARK 922        TOTAL FREE ENERGY PREDICTED BY IDOCK:   -7.58 KCAL/MOL
REMARK 923 INTER-LIGAND FREE ENERGY PREDICTED BY IDOCK:   -6.84 KCAL/MOL
REMARK 924 INTRA-LIGAND FREE ENERGY PREDICTED BY IDOCK:   -0.74 KCAL/MOL
REMARK 927      BINDING AFFINITY PREDICTED BY RF-SCORE:    0.00 PKD
ROOT
HETATM    1  C   UNL     1     -10.184  20.017  67.999  1.00  0.00    -0.398 C  
HETATM    2  O   UNL     1      -9.302  18.990  67.552  1.00  0.00    -0.293 OA 
ENDROOT
BRANCH   2   3
HETATM    3  C   UNL     1      -9.865  17.744  67.491  1.00  0.00    -0.304 A  
HETATM    4  C   UNL     1     -10.876  17.296  68.341  1.00  0.00    -0.273 A  
HETATM    5  C   UNL     1     -11.341  15.981  68.253  1.00  0.00    -0.326 A  
HETATM    6  O   UNL     1     -12.247  15.572  69.194  1.00  0.00    -0.565 OA 
HETATM    7  C   UNL     1     -10.845  15.106  67.279  1.00  0.00    -0.316 A  
HETATM    8  C   UNL     1      -9.379  16.897  66.497  1.00  0.00    -0.293 A  
HETATM    9  C   UNL     1      -9.863  15.587  66.394  1.00  0.00    -0.298 A  
HETATM   10  H   UNL     1     -12.563  14.678  69.134  1.00  0.00     0.000 HD 
BRANCH   7  11
HETATM   11  C   UNL     1     -11.218  13.670  67.145  1.00  0.00    -0.309 C  
HETATM   12  O   UNL     1     -11.581  13.057  68.153  1.00  0.00    -0.297 OA 
BRANCH  11  13
HETATM   13  C   UNL     1     -11.261  12.935  65.855  1.00  0.00    -0.323 A  
HETATM   14  C   UNL     1     -10.193  12.065  65.580  1.00  0.00    -0.290 A  
HETATM   15  C   UNL     1     -10.177  11.310  64.406  1.00  0.00    -0.377 A  
HETATM   16  C   UNL     1     -11.227  11.419  63.497  1.00  0.00    -0.322 A  
HETATM   17  C   UNL     1     -12.274  12.312  63.742  1.00  0.00    -0.642 A  
HETATM   18  C   UNL     1     -12.279  13.086  64.905  1.00  0.00    -0.441 A  
HETATM   19  O   UNL     1     -13.278  14.000  65.095  1.00  0.00    -0.768 OA 
HETATM   20  H   UNL     1     -13.968  14.102  64.451  1.00  0.00     0.000 HD 
ENDBRANCH  11  13
ENDBRANCH   7  11
ENDBRANCH   2   3
TORSDOF 3
ENDMDL
MODEL       32
REMARK 921   NORMALIZED FREE ENERGY PREDICTED BY IDOCK:   -5.91 KCAL/MOL
REMARK 922        TOTAL FREE ENERGY PREDICTED BY IDOCK:   -7.57 KCAL/MOL
REMARK 923 INTER-LIGAND FREE ENERGY PREDICTED BY IDOCK:   -6.80 KCAL/MOL
REMARK 924 INTRA-LIGAND FREE ENERGY PREDICTED BY IDOCK:   -0.77 KCAL/MOL
REMARK 927      BINDING AFFINITY PREDICTED BY RF-SCORE:    0.00 PKD
ROOT
HETATM    1  C   UNL     1      -8.654   9.347  62.693  1.00  0.00    -0.220 C  
HETATM    2  O   UNL     1      -8.712   9.629  64.090  1.00  0.00    -0.188 OA 
ENDROOT
BRANCH   2   3
HETATM    3  C   UNL     1      -9.576  10.633  64.432  1.00  0.00    -0.295 A  
HETATM    4  C   UNL     1     -10.388  11.315  63.525  1.00  0.00    -0.463 A  
HETATM    5  C   UNL     1     -11.187  12.378  63.953  1.00  0.00    -0.422 A  
HETATM    6  O   UNL     1     -11.865  13.079  62.994  1.00  0.00    -0.841 OA 
HETATM    7  C   UNL     1     -11.233  12.744  65.304  1.00  0.00    -0.328 A  
HETATM    8  C   UNL     1      -9.630  10.965  65.784  1.00  0.00    -0.259 A  
HETATM    9  C   UNL     1     -10.449  12.014  66.216  1.00  0.00    -0.273 A  
HETATM   10  H   UNL     1     -12.409  13.802  63.285  1.00  0.00     0.000 HD 
BRANCH   7  11
HETATM   11  C   UNL     1     -11.993  13.903  65.854  1.00  0.00    -0.407 C  
HETATM   12  O   UNL     1     -13.177  14.037  65.537  1.00  0.00    -0.710 OA 
BRANCH  11  13
HETATM   13  C   UNL     1     -11.440  14.874  66.833  1.00  0.00    -0.318 A  
HETATM   14  C   UNL     1     -11.846  14.733  68.169  1.00  0.00    -0.318 A  
HETATM   15  C   UNL     1     -11.343  15.583  69.157  1.00  0.00    -0.333 A  
HETATM   16  C   UNL     1     -10.432  16.579  68.816  1.00  0.00    -0.309 A  
HETATM   17  C   UNL     1     -10.053  16.754  67.482  1.00  0.00    -0.276 A  
HETATM   18  C   UNL     1     -10.575  15.920  66.490  1.00  0.00    -0.297 A  
HETATM   19  O   UNL     1     -10.242  16.148  65.183  1.00  0.00    -0.542 OA 
HETATM   20  H   UNL     1      -9.655  16.857  64.950  1.00  0.00     0.000 HD 
ENDBRANCH  11  13
ENDBRANCH   7  11
ENDBRANCH   2   3
TORSDOF 3
ENDMDL
MODEL       33
REMARK 921   NORMALIZED FREE ENERGY PREDICTED BY IDOCK:   -5.88 KCAL/MOL
REMARK 922        TOTAL FREE ENERGY PREDICTED BY IDOCK:   -7.54 KCAL/MOL
REMARK 923 INTER-LIGAND FREE ENERGY PREDICTED BY IDOCK:   -6.68 KCAL/MOL
REMARK 924 INTRA-LIGAND FREE ENERGY PREDICTED BY IDOCK:   -0.86 KCAL/MOL
REMARK 927      BINDING AFFINITY PREDICTED BY RF-SCORE:    0.00 PKD
ROOT
HETATM    1  C   UNL     1     -12.213  12.174  63.381  1.00  0.00    -0.530 C  
HETATM    2  O   UNL     1     -12.839  12.963  64.390  1.00  0.00    -0.696 OA 
ENDROOT
BRANCH   2   3
HETATM    3  C   UNL     1     -11.972  13.661  65.186  1.00  0.00    -0.372 A  
HETATM    4  C   UNL     1     -12.078  13.750  66.575  1.00  0.00    -0.483 A  
HETATM    5  C   UNL     1     -11.187  14.546  67.301  1.00  0.00    -0.332 A  
HETATM    6  O   UNL     1     -11.420  14.684  68.642  1.00  0.00    -0.272 OA 
HETATM    7  C   UNL     1     -10.142  15.223  66.660  1.00  0.00    -0.268 A  
HETATM    8  C   UNL     1     -10.922  14.305  64.536  1.00  0.00    -0.311 A  
HETATM    9  C   UNL     1     -10.016  15.082  65.266  1.00  0.00    -0.325 A  
HETATM   10  H   UNL     1     -10.815  15.225  69.135  1.00  0.00     0.000 HD 
BRANCH   7  11
HETATM   11  C   UNL     1      -9.186  16.152  67.327  1.00  0.00    -0.208 C  
HETATM   12  O   UNL     1      -8.130  15.694  67.771  1.00  0.00    -0.137 OA 
BRANCH  11  13
HETATM   13  C   UNL     1      -9.380  17.622  67.424  1.00  0.00    -0.247 A  
HETATM   14  C   UNL     1      -8.633  18.423  66.545  1.00  0.00    -0.287 A  
HETATM   15  C   UNL     1      -8.785  19.811  66.547  1.00  0.00    -0.408 A  
HETATM   16  C   UNL     1      -9.684  20.408  67.428  1.00  0.00    -0.597 A  
HETATM   17  C   UNL     1     -10.401  19.623  68.335  1.00  0.00    -0.502 A  
HETATM   18  C   UNL     1     -10.231  18.236  68.350  1.00  0.00    -0.380 A  
HETATM   19  O   UNL     1     -10.894  17.492  69.287  1.00  0.00    -0.320 OA 
HETATM   20  H   UNL     1     -11.471  17.909  69.915  1.00  0.00     0.000 HD 
ENDBRANCH  11  13
ENDBRANCH   7  11
ENDBRANCH   2   3
TORSDOF 3
ENDMDL
MODEL       34
REMARK 921   NORMALIZED FREE ENERGY PREDICTED BY IDOCK:   -5.86 KCAL/MOL
REMARK 922        TOTAL FREE ENERGY PREDICTED BY IDOCK:   -7.51 KCAL/MOL
REMARK 923 INTER-LIGAND FREE ENERGY PREDICTED BY IDOCK:   -6.73 KCAL/MOL
REMARK 924 INTRA-LIGAND FREE ENERGY PREDICTED BY IDOCK:   -0.77 KCAL/MOL
REMARK 927      BINDING AFFINITY PREDICTED BY RF-SCORE:    0.00 PKD
ROOT
HETATM    1  C   UNL     1     -12.878  16.337  73.518  1.00  0.00    -0.464 C  
HETATM    2  O   UNL     1     -13.896  15.568  72.880  1.00  0.00    -0.518 OA 
ENDROOT
BRANCH   2   3
HETATM    3  C   UNL     1     -13.434  14.506  72.152  1.00  0.00    -0.400 A  
HETATM    4  C   UNL     1     -13.714  13.171  72.444  1.00  0.00    -0.640 A  
HETATM    5  C   UNL     1     -13.138  12.146  71.687  1.00  0.00    -0.310 A  
HETATM    6  O   UNL     1     -13.359  10.861  72.102  1.00  0.00    -0.586 OA 
HETATM    7  C   UNL     1     -12.318  12.437  70.591  1.00  0.00    -0.367 A  
HETATM    8  C   UNL     1     -12.642  14.814  71.048  1.00  0.00    -0.401 A  
HETATM    9  C   UNL     1     -12.086  13.788  70.275  1.00  0.00    -0.425 A  
HETATM   10  H   UNL     1     -12.968  10.165  71.587  1.00  0.00     0.000 HD 
BRANCH   7  11
HETATM   11  C   UNL     1     -11.599  11.425  69.765  1.00  0.00    -0.332 C  
HETATM   12  O   UNL     1     -11.607  10.248  70.133  1.00  0.00    -0.262 OA 
BRANCH  11  13
HETATM   13  C   UNL     1     -10.934  11.725  68.471  1.00  0.00    -0.270 A  
HETATM   14  C   UNL     1     -11.766  12.028  67.381  1.00  0.00    -0.352 A  
HETATM   15  C   UNL     1     -11.218  12.357  66.139  1.00  0.00    -0.364 A  
HETATM   16  C   UNL     1      -9.835  12.385  65.978  1.00  0.00    -0.268 A  
HETATM   17  C   UNL     1      -8.999  12.044  67.045  1.00  0.00    -0.198 A  
HETATM   18  C   UNL     1      -9.547  11.692  68.281  1.00  0.00    -0.198 A  
HETATM   19  O   UNL     1      -8.716  11.300  69.293  1.00  0.00    -0.377 OA 
HETATM   20  H   UNL     1      -7.775  11.278  69.164  1.00  0.00     0.000 HD 
ENDBRANCH  11  13
ENDBRANCH   7  11
ENDBRANCH   2   3
TORSDOF 3
ENDMDL
MODEL       35
REMARK 921   NORMALIZED FREE ENERGY PREDICTED BY IDOCK:   -5.86 KCAL/MOL
REMARK 922        TOTAL FREE ENERGY PREDICTED BY IDOCK:   -7.51 KCAL/MOL
REMARK 923 INTER-LIGAND FREE ENERGY PREDICTED BY IDOCK:   -6.93 KCAL/MOL
REMARK 924 INTRA-LIGAND FREE ENERGY PREDICTED BY IDOCK:   -0.58 KCAL/MOL
REMARK 927      BINDING AFFINITY PREDICTED BY RF-SCORE:    0.00 PKD
ROOT
HETATM    1  C   UNL     1     -13.800  14.029  72.298  1.00  0.00    -0.557 C  
HETATM    2  O   UNL     1     -13.318  12.690  72.211  1.00  0.00    -0.533 OA 
ENDROOT
BRANCH   2   3
HETATM    3  C   UNL     1     -12.703  12.382  71.028  1.00  0.00    -0.223 A  
HETATM    4  C   UNL     1     -12.498  11.083  70.563  1.00  0.00    -0.432 A  
HETATM    5  C   UNL     1     -11.795  10.860  69.376  1.00  0.00    -0.328 A  
HETATM    6  O   UNL     1     -11.527   9.561  69.040  1.00  0.00    -0.452 OA 
HETATM    7  C   UNL     1     -11.332  11.932  68.603  1.00  0.00    -0.331 A  
HETATM    8  C   UNL     1     -12.274  13.461  70.258  1.00  0.00    -0.405 A  
HETATM    9  C   UNL     1     -11.591  13.238  69.057  1.00  0.00    -0.359 A  
HETATM   10  H   UNL     1     -11.049   9.410  68.233  1.00  0.00     0.000 HD 
BRANCH   7  11
HETATM   11  C   UNL     1     -10.513  11.806  67.364  1.00  0.00    -0.211 C  
HETATM   12  O   UNL     1      -9.349  11.410  67.463  1.00  0.00    -0.161 OA 
BRANCH  11  13
HETATM   13  C   UNL     1     -11.031  12.048  65.993  1.00  0.00    -0.346 A  
HETATM   14  C   UNL     1     -12.020  13.035  65.850  1.00  0.00    -0.491 A  
HETATM   15  C   UNL     1     -12.532  13.350  64.589  1.00  0.00    -0.385 A  
HETATM   16  C   UNL     1     -12.060  12.680  63.463  1.00  0.00    -0.648 A  
HETATM   17  C   UNL     1     -11.106  11.667  63.600  1.00  0.00    -0.506 A  
HETATM   18  C   UNL     1     -10.611  11.336  64.863  1.00  0.00    -0.300 A  
HETATM   19  O   UNL     1      -9.727  10.300  64.983  1.00  0.00    -0.259 OA 
HETATM   20  H   UNL     1      -9.442   9.816  64.217  1.00  0.00     0.000 HD 
ENDBRANCH  11  13
ENDBRANCH   7  11
ENDBRANCH   2   3
TORSDOF 3
ENDMDL
MODEL       36
REMARK 921   NORMALIZED FREE ENERGY PREDICTED BY IDOCK:   -5.85 KCAL/MOL
REMARK 922        TOTAL FREE ENERGY PREDICTED BY IDOCK:   -7.50 KCAL/MOL
REMARK 923 INTER-LIGAND FREE ENERGY PREDICTED BY IDOCK:   -6.89 KCAL/MOL
REMARK 924 INTRA-LIGAND FREE ENERGY PREDICTED BY IDOCK:   -0.61 KCAL/MOL
REMARK 927      BINDING AFFINITY PREDICTED BY RF-SCORE:    0.00 PKD
ROOT
HETATM    1  C   UNL     1     -10.740  18.843  67.168  1.00  0.00    -0.432 C  
HETATM    2  O   UNL     1      -9.864  18.044  66.377  1.00  0.00    -0.322 OA 
ENDROOT
BRANCH   2   3
HETATM    3  C   UNL     1     -10.343  16.796  66.082  1.00  0.00    -0.330 A  
HETATM    4  C   UNL     1     -11.015  16.470  64.904  1.00  0.00    -0.223 A  
HETATM    5  C   UNL     1     -11.534  15.186  64.719  1.00  0.00    -0.383 A  
HETATM    6  O   UNL     1     -12.285  14.969  63.596  1.00  0.00    -0.927 OA 
HETATM    7  C   UNL     1     -11.344  14.188  65.683  1.00  0.00    -0.319 A  
HETATM    8  C   UNL     1     -10.120  15.809  67.039  1.00  0.00    -0.261 A  
HETATM    9  C   UNL     1     -10.619  14.516  66.843  1.00  0.00    -0.279 A  
HETATM   10  H   UNL     1     -12.638  14.096  63.471  1.00  0.00     0.000 HD 
BRANCH   7  11
HETATM   11  C   UNL     1     -11.915  12.813  65.619  1.00  0.00    -0.452 C  
HETATM   12  O   UNL     1     -12.993  12.647  65.043  1.00  0.00    -0.812 OA 
BRANCH  11  13
HETATM   13  C   UNL     1     -11.229  11.600  66.134  1.00  0.00    -0.314 A  
HETATM   14  C   UNL     1     -11.373  11.319  67.503  1.00  0.00    -0.360 A  
HETATM   15  C   UNL     1     -10.791  10.178  68.059  1.00  0.00    -0.320 A  
HETATM   16  C   UNL     1     -10.061   9.310  67.251  1.00  0.00    -0.291 A  
HETATM   17  C   UNL     1      -9.877   9.601  65.897  1.00  0.00    -0.358 A  
HETATM   18  C   UNL     1     -10.439  10.755  65.345  1.00  0.00    -0.202 A  
HETATM   19  O   UNL     1     -10.195  11.057  64.034  1.00  0.00    -0.305 OA 
HETATM   20  H   UNL     1      -9.658  10.484  63.498  1.00  0.00     0.000 HD 
ENDBRANCH  11  13
ENDBRANCH   7  11
ENDBRANCH   2   3
TORSDOF 3
ENDMDL
MODEL       37
REMARK 921   NORMALIZED FREE ENERGY PREDICTED BY IDOCK:   -5.84 KCAL/MOL
REMARK 922        TOTAL FREE ENERGY PREDICTED BY IDOCK:   -7.49 KCAL/MOL
REMARK 923 INTER-LIGAND FREE ENERGY PREDICTED BY IDOCK:   -6.90 KCAL/MOL
REMARK 924 INTRA-LIGAND FREE ENERGY PREDICTED BY IDOCK:   -0.58 KCAL/MOL
REMARK 927      BINDING AFFINITY PREDICTED BY RF-SCORE:    0.00 PKD
ROOT
HETATM    1  C   UNL     1      -6.255  19.641  68.237  1.00  0.00    -0.235 C  
HETATM    2  O   UNL     1      -7.625  19.509  68.611  1.00  0.00    -0.336 OA 
ENDROOT
BRANCH   2   3
HETATM    3  C   UNL     1      -8.389  18.797  67.728  1.00  0.00    -0.271 A  
HETATM    4  C   UNL     1      -9.279  19.370  66.818  1.00  0.00    -0.387 A  
HETATM    5  C   UNL     1     -10.074  18.560  66.002  1.00  0.00    -0.288 A  
HETATM    6  O   UNL     1     -11.008  19.182  65.221  1.00  0.00    -0.512 OA 
HETATM    7  C   UNL     1      -9.956  17.165  66.040  1.00  0.00    -0.270 A  
HETATM    8  C   UNL     1      -8.238  17.412  67.760  1.00  0.00    -0.216 A  
HETATM    9  C   UNL     1      -9.018  16.603  66.926  1.00  0.00    -0.244 A  
HETATM   10  H   UNL     1     -11.548  18.632  64.666  1.00  0.00     0.000 HD 
BRANCH   7  11
HETATM   11  C   UNL     1     -10.802  16.211  65.270  1.00  0.00    -0.336 C  
HETATM   12  O   UNL     1     -11.322  16.597  64.219  1.00  0.00    -1.116 OA 
BRANCH  11  13
HETATM   13  C   UNL     1     -11.001  14.785  65.639  1.00  0.00    -0.345 A  
HETATM   14  C   UNL     1     -10.574  13.821  64.711  1.00  0.00    -0.444 A  
HETATM   15  C   UNL     1     -10.691  12.460  64.998  1.00  0.00    -0.329 A  
HETATM   16  C   UNL     1     -11.237  12.053  66.214  1.00  0.00    -0.394 A  
HETATM   17  C   UNL     1     -11.702  13.003  67.125  1.00  0.00    -0.439 A  
HETATM   18  C   UNL     1     -11.607  14.365  66.828  1.00  0.00    -0.385 A  
HETATM   19  O   UNL     1     -12.126  15.278  67.705  1.00  0.00    -0.356 OA 
HETATM   20  H   UNL     1     -12.538  14.993  68.512  1.00  0.00     0.000 HD 
ENDBRANCH  11  13
ENDBRANCH   7  11
ENDBRANCH   2   3
TORSDOF 3
ENDMDL
MODEL       38
REMARK 921   NORMALIZED FREE ENERGY PREDICTED BY IDOCK:   -5.82 KCAL/MOL
REMARK 922        TOTAL FREE ENERGY PREDICTED BY IDOCK:   -7.46 KCAL/MOL
REMARK 923 INTER-LIGAND FREE ENERGY PREDICTED BY IDOCK:   -7.00 KCAL/MOL
REMARK 924 INTRA-LIGAND FREE ENERGY PREDICTED BY IDOCK:   -0.45 KCAL/MOL
REMARK 927      BINDING AFFINITY PREDICTED BY RF-SCORE:    0.00 PKD
ROOT
HETATM    1  C   UNL     1     -11.866  14.576  66.061  1.00  0.00    -0.334 C  
HETATM    2  O   UNL     1     -11.720  14.785  67.464  1.00  0.00    -0.363 OA 
ENDROOT
BRANCH   2   3
HETATM    3  C   UNL     1     -11.795  13.646  68.219  1.00  0.00    -0.369 A  
HETATM    4  C   UNL     1     -11.621  12.356  67.716  1.00  0.00    -0.413 A  
HETATM    5  C   UNL     1     -11.788  11.245  68.547  1.00  0.00    -0.285 A  
HETATM    6  O   UNL     1     -11.722  10.010  67.964  1.00  0.00    -0.645 OA 
HETATM    7  C   UNL     1     -12.076  11.403  69.908  1.00  0.00    -0.404 A  
HETATM    8  C   UNL     1     -12.054  13.823  69.576  1.00  0.00    -0.386 A  
HETATM    9  C   UNL     1     -12.197  12.711  70.414  1.00  0.00    -0.368 A  
HETATM   10  H   UNL     1     -11.835   9.255  68.529  1.00  0.00     0.000 HD 
BRANCH   7  11
HETATM   11  C   UNL     1     -12.344  10.291  70.863  1.00  0.00    -0.373 C  
HETATM   12  O   UNL     1     -13.514  10.032  71.156  1.00  0.00    -0.357 OA 
BRANCH  11  13
HETATM   13  C   UNL     1     -11.293   9.408  71.432  1.00  0.00    -0.451 A  
HETATM   14  C   UNL     1     -10.015   9.484  70.856  1.00  0.00    -0.308 A  
HETATM   15  C   UNL     1      -8.963   8.715  71.356  1.00  0.00    -0.286 A  
HETATM   16  C   UNL     1      -9.181   7.863  72.437  1.00  0.00    -0.239 A  
HETATM   17  C   UNL     1     -10.459   7.749  72.991  1.00  0.00    -0.432 A  
HETATM   18  C   UNL     1     -11.517   8.501  72.475  1.00  0.00    -0.298 A  
HETATM   19  O   UNL     1     -12.773   8.328  72.989  1.00  0.00    -0.694 OA 
HETATM   20  H   UNL     1     -12.925   7.712  73.696  1.00  0.00     0.000 HD 
ENDBRANCH  11  13
ENDBRANCH   7  11
ENDBRANCH   2   3
TORSDOF 3
ENDMDL
MODEL       39
REMARK 921   NORMALIZED FREE ENERGY PREDICTED BY IDOCK:   -5.80 KCAL/MOL
REMARK 922        TOTAL FREE ENERGY PREDICTED BY IDOCK:   -7.44 KCAL/MOL
REMARK 923 INTER-LIGAND FREE ENERGY PREDICTED BY IDOCK:   -6.77 KCAL/MOL
REMARK 924 INTRA-LIGAND FREE ENERGY PREDICTED BY IDOCK:   -0.67 KCAL/MOL
REMARK 927      BINDING AFFINITY PREDICTED BY RF-SCORE:    0.00 PKD
ROOT
HETATM    1  C   UNL     1     -14.032   8.757  72.103  1.00  0.00    -0.460 C  
HETATM    2  O   UNL     1     -12.746   9.207  71.682  1.00  0.00    -0.321 OA 
ENDROOT
BRANCH   2   3
HETATM    3  C   UNL     1     -12.661  10.554  71.458  1.00  0.00    -0.424 A  
HETATM    4  C   UNL     1     -13.336  11.520  72.205  1.00  0.00    -0.284 A  
HETATM    5  C   UNL     1     -13.247  12.871  71.858  1.00  0.00    -0.423 A  
HETATM    6  O   UNL     1     -14.028  13.751  72.557  1.00  0.00    -0.655 OA 
HETATM    7  C   UNL     1     -12.438  13.288  70.794  1.00  0.00    -0.403 A  
HETATM    8  C   UNL     1     -11.829  10.953  70.414  1.00  0.00    -0.449 A  
HETATM    9  C   UNL     1     -11.722  12.308  70.082  1.00  0.00    -0.280 A  
HETATM   10  H   UNL     1     -13.967  14.669  72.321  1.00  0.00     0.000 HD 
BRANCH   7  11
HETATM   11  C   UNL     1     -12.328  14.689  70.297  1.00  0.00    -0.349 C  
HETATM   12  O   UNL     1     -13.102  15.538  70.747  1.00  0.00    -0.478 OA 
BRANCH  11  13
HETATM   13  C   UNL     1     -11.288  15.158  69.346  1.00  0.00    -0.307 A  
HETATM   14  C   UNL     1     -10.177  15.821  69.892  1.00  0.00    -0.277 A  
HETATM   15  C   UNL     1      -9.137  16.260  69.070  1.00  0.00    -0.255 A  
HETATM   16  C   UNL     1      -9.201  16.040  67.696  1.00  0.00    -0.205 A  
HETATM   17  C   UNL     1     -10.321  15.419  67.138  1.00  0.00    -0.271 A  
HETATM   18  C   UNL     1     -11.372  15.001  67.957  1.00  0.00    -0.327 A  
HETATM   19  O   UNL     1     -12.487  14.452  67.386  1.00  0.00    -0.603 OA 
HETATM   20  H   UNL     1     -12.545  14.345  66.444  1.00  0.00     0.000 HD 
ENDBRANCH  11  13
ENDBRANCH   7  11
ENDBRANCH   2   3
TORSDOF 3
ENDMDL
MODEL       40
REMARK 921   NORMALIZED FREE ENERGY PREDICTED BY IDOCK:   -5.80 KCAL/MOL
REMARK 922        TOTAL FREE ENERGY PREDICTED BY IDOCK:   -7.44 KCAL/MOL
REMARK 923 INTER-LIGAND FREE ENERGY PREDICTED BY IDOCK:   -6.53 KCAL/MOL
REMARK 924 INTRA-LIGAND FREE ENERGY PREDICTED BY IDOCK:   -0.90 KCAL/MOL
REMARK 927      BINDING AFFINITY PREDICTED BY RF-SCORE:    0.00 PKD
ROOT
HETATM    1  C   UNL     1     -12.002  15.248  70.935  1.00  0.00    -0.342 C  
HETATM    2  O   UNL     1     -11.957  14.364  69.817  1.00  0.00    -0.293 OA 
ENDROOT
BRANCH   2   3
HETATM    3  C   UNL     1     -12.104  13.040  70.132  1.00  0.00    -0.307 A  
HETATM    4  C   UNL     1     -11.691  11.987  69.317  1.00  0.00    -0.389 A  
HETATM    5  C   UNL     1     -11.948  10.664  69.687  1.00  0.00    -0.268 A  
HETATM    6  O   UNL     1     -11.624   9.686  68.787  1.00  0.00    -0.433 OA 
HETATM    7  C   UNL     1     -12.573  10.367  70.905  1.00  0.00    -0.478 A  
HETATM    8  C   UNL     1     -12.702  12.763  71.360  1.00  0.00    -0.353 A  
HETATM    9  C   UNL     1     -12.938  11.437  71.741  1.00  0.00    -0.519 A  
HETATM   10  H   UNL     1     -11.799   8.787  69.039  1.00  0.00     0.000 HD 
BRANCH   7  11
HETATM   11  C   UNL     1     -12.958   9.001  71.361  1.00  0.00    -0.291 C  
HETATM   12  O   UNL     1     -14.151   8.690  71.354  1.00  0.00    -0.370 OA 
BRANCH  11  13
HETATM   13  C   UNL     1     -11.986   7.948  71.753  1.00  0.00    -0.337 A  
HETATM   14  C   UNL     1     -11.396   8.064  73.022  1.00  0.00    -0.235 A  
HETATM   15  C   UNL     1     -10.501   7.096  73.480  1.00  0.00    -0.422 A  
HETATM   16  C   UNL     1     -10.189   6.004  72.673  1.00  0.00    -0.205 A  
HETATM   17  C   UNL     1     -10.739   5.900  71.393  1.00  0.00    -0.319 A  
HETATM   18  C   UNL     1     -11.616   6.882  70.924  1.00  0.00    -0.337 A  
HETATM   19  O   UNL     1     -12.093   6.795  69.646  1.00  0.00    -0.635 OA 
HETATM   20  H   UNL     1     -11.842   6.072  69.084  1.00  0.00     0.000 HD 
ENDBRANCH  11  13
ENDBRANCH   7  11
ENDBRANCH   2   3
TORSDOF 3
ENDMDL
MODEL       41
REMARK 921   NORMALIZED FREE ENERGY PREDICTED BY IDOCK:   -5.79 KCAL/MOL
REMARK 922        TOTAL FREE ENERGY PREDICTED BY IDOCK:   -7.43 KCAL/MOL
REMARK 923 INTER-LIGAND FREE ENERGY PREDICTED BY IDOCK:   -6.68 KCAL/MOL
REMARK 924 INTRA-LIGAND FREE ENERGY PREDICTED BY IDOCK:   -0.75 KCAL/MOL
REMARK 927      BINDING AFFINITY PREDICTED BY RF-SCORE:    0.00 PKD
ROOT
HETATM    1  C   UNL     1      -9.968   9.325  66.589  1.00  0.00    -0.264 C  
HETATM    2  O   UNL     1     -10.181  10.511  65.825  1.00  0.00    -0.255 OA 
ENDROOT
BRANCH   2   3
HETATM    3  C   UNL     1     -10.647  11.576  66.546  1.00  0.00    -0.258 A  
HETATM    4  C   UNL     1     -11.639  12.452  66.104  1.00  0.00    -0.452 A  
HETATM    5  C   UNL     1     -12.001  13.557  66.878  1.00  0.00    -0.399 A  
HETATM    6  O   UNL     1     -12.893  14.440  66.332  1.00  0.00    -0.434 OA 
HETATM    7  C   UNL     1     -11.420  13.778  68.132  1.00  0.00    -0.348 A  
HETATM    8  C   UNL     1     -10.077  11.765  67.803  1.00  0.00    -0.199 A  
HETATM    9  C   UNL     1     -10.458  12.859  68.589  1.00  0.00    -0.231 A  
HETATM   10  H   UNL     1     -13.139  15.191  66.858  1.00  0.00     0.000 HD 
BRANCH   7  11
HETATM   11  C   UNL     1     -11.680  14.960  69.003  1.00  0.00    -0.319 C  
HETATM   12  O   UNL     1     -11.604  16.087  68.507  1.00  0.00    -0.381 OA 
BRANCH  11  13
HETATM   13  C   UNL     1     -12.108  14.872  70.423  1.00  0.00    -0.386 A  
HETATM   14  C   UNL     1     -12.810  13.718  70.807  1.00  0.00    -0.302 A  
HETATM   15  C   UNL     1     -13.216  13.542  72.132  1.00  0.00    -0.551 A  
HETATM   16  C   UNL     1     -12.923  14.519  73.081  1.00  0.00    -0.577 A  
HETATM   17  C   UNL     1     -12.262  15.689  72.700  1.00  0.00    -0.541 A  
HETATM   18  C   UNL     1     -11.878  15.877  71.370  1.00  0.00    -0.463 A  
HETATM   19  O   UNL     1     -11.289  17.056  71.005  1.00  0.00    -0.321 OA 
HETATM   20  H   UNL     1     -11.132  17.737  71.648  1.00  0.00     0.000 HD 
ENDBRANCH  11  13
ENDBRANCH   7  11
ENDBRANCH   2   3
TORSDOF 3
ENDMDL
MODEL       42
REMARK 921   NORMALIZED FREE ENERGY PREDICTED BY IDOCK:   -5.78 KCAL/MOL
REMARK 922        TOTAL FREE ENERGY PREDICTED BY IDOCK:   -7.42 KCAL/MOL
REMARK 923 INTER-LIGAND FREE ENERGY PREDICTED BY IDOCK:   -6.89 KCAL/MOL
REMARK 924 INTRA-LIGAND FREE ENERGY PREDICTED BY IDOCK:   -0.53 KCAL/MOL
REMARK 927      BINDING AFFINITY PREDICTED BY RF-SCORE:    0.00 PKD
ROOT
HETATM    1  C   UNL     1     -12.479  11.689  70.906  1.00  0.00    -0.341 C  
HETATM    2  O   UNL     1     -12.600  13.109  70.957  1.00  0.00    -0.361 OA 
ENDROOT
BRANCH   2   3
HETATM    3  C   UNL     1     -11.990  13.768  69.924  1.00  0.00    -0.347 A  
HETATM    4  C   UNL     1     -11.329  13.138  68.870  1.00  0.00    -0.335 A  
HETATM    5  C   UNL     1     -10.672  13.894  67.895  1.00  0.00    -0.240 A  
HETATM    6  O   UNL     1      -9.943  13.212  66.958  1.00  0.00    -0.235 OA 
HETATM    7  C   UNL     1     -10.710  15.293  67.924  1.00  0.00    -0.275 A  
HETATM    8  C   UNL     1     -12.062  15.159  69.954  1.00  0.00    -0.373 A  
HETATM    9  C   UNL     1     -11.424  15.916  68.964  1.00  0.00    -0.380 A  
HETATM   10  H   UNL     1      -9.497  13.727  66.296  1.00  0.00     0.000 HD 
BRANCH   7  11
HETATM   11  C   UNL     1      -9.986  16.191  66.980  1.00  0.00    -0.258 C  
HETATM   12  O   UNL     1      -9.375  15.686  66.035  1.00  0.00    -0.318 OA 
BRANCH  11  13
HETATM   13  C   UNL     1     -10.016  17.675  67.051  1.00  0.00    -0.320 A  
HETATM   14  C   UNL     1      -9.550  18.266  68.236  1.00  0.00    -0.332 A  
HETATM   15  C   UNL     1      -9.510  19.656  68.369  1.00  0.00    -0.452 A  
HETATM   16  C   UNL     1      -9.937  20.464  67.317  1.00  0.00    -0.564 A  
HETATM   17  C   UNL     1     -10.441  19.885  66.150  1.00  0.00    -0.581 A  
HETATM   18  C   UNL     1     -10.504  18.495  66.027  1.00  0.00    -0.400 A  
HETATM   19  O   UNL     1     -11.059  17.948  64.903  1.00  0.00    -0.782 OA 
HETATM   20  H   UNL     1     -11.390  18.504  64.208  1.00  0.00     0.000 HD 
ENDBRANCH  11  13
ENDBRANCH   7  11
ENDBRANCH   2   3
TORSDOF 3
ENDMDL
MODEL       43
REMARK 921   NORMALIZED FREE ENERGY PREDICTED BY IDOCK:   -5.73 KCAL/MOL
REMARK 922        TOTAL FREE ENERGY PREDICTED BY IDOCK:   -7.35 KCAL/MOL
REMARK 923 INTER-LIGAND FREE ENERGY PREDICTED BY IDOCK:   -6.59 KCAL/MOL
REMARK 924 INTRA-LIGAND FREE ENERGY PREDICTED BY IDOCK:   -0.76 KCAL/MOL
REMARK 927      BINDING AFFINITY PREDICTED BY RF-SCORE:    0.00 PKD
ROOT
HETATM    1  C   UNL     1      -9.964  11.255  63.271  1.00  0.00    -0.393 C  
HETATM    2  O   UNL     1     -11.218  11.906  63.461  1.00  0.00    -0.401 OA 
ENDROOT
BRANCH   2   3
HETATM    3  C   UNL     1     -11.160  13.043  64.221  1.00  0.00    -0.385 A  
HETATM    4  C   UNL     1     -11.485  14.317  63.755  1.00  0.00     0.361 A  
HETATM    5  C   UNL     1     -11.326  15.433  64.581  1.00  0.00    -0.355 A  
HETATM    6  O   UNL     1     -11.549  16.663  64.024  1.00  0.00    -1.490 OA 
HETATM    7  C   UNL     1     -10.892  15.291  65.905  1.00  0.00    -0.345 A  
HETATM    8  C   UNL     1     -10.753  12.880  65.543  1.00  0.00    -0.301 A  
HETATM    9  C   UNL     1     -10.617  13.995  66.377  1.00  0.00    -0.280 A  
HETATM   10  H   UNL     1     -11.441  17.421  64.586  1.00  0.00     0.000 HD 
BRANCH   7  11
HETATM   11  C   UNL     1     -10.621  16.416  66.844  1.00  0.00    -0.252 C  
HETATM   12  O   UNL     1     -11.271  16.483  67.891  1.00  0.00    -0.280 OA 
BRANCH  11  13
HETATM   13  C   UNL     1      -9.553  17.431  66.645  1.00  0.00    -0.283 A  
HETATM   14  C   UNL     1      -8.266  16.953  66.353  1.00  0.00    -0.342 A  
HETATM   15  C   UNL     1      -7.215  17.841  66.116  1.00  0.00    -0.346 A  
HETATM   16  C   UNL     1      -7.444  19.214  66.169  1.00  0.00    -0.294 A  
HETATM   17  C   UNL     1      -8.712  19.700  66.500  1.00  0.00    -0.402 A  
HETATM   18  C   UNL     1      -9.758  18.811  66.761  1.00  0.00    -0.329 A  
HETATM   19  O   UNL     1     -10.974  19.304  67.145  1.00  0.00    -0.476 OA 
HETATM   20  H   UNL     1     -11.113  20.240  67.224  1.00  0.00     0.000 HD 
ENDBRANCH  11  13
ENDBRANCH   7  11
ENDBRANCH   2   3
TORSDOF 3
ENDMDL
MODEL       44
REMARK 921   NORMALIZED FREE ENERGY PREDICTED BY IDOCK:   -5.72 KCAL/MOL
REMARK 922        TOTAL FREE ENERGY PREDICTED BY IDOCK:   -7.34 KCAL/MOL
REMARK 923 INTER-LIGAND FREE ENERGY PREDICTED BY IDOCK:   -6.61 KCAL/MOL
REMARK 924 INTRA-LIGAND FREE ENERGY PREDICTED BY IDOCK:   -0.74 KCAL/MOL
REMARK 927      BINDING AFFINITY PREDICTED BY RF-SCORE:    0.00 PKD
ROOT
HETATM    1  C   UNL     1      -8.355   7.755  67.734  1.00  0.00    -0.125 C  
HETATM    2  O   UNL     1      -8.927   7.935  66.440  1.00  0.00    -0.150 OA 
ENDROOT
BRANCH   2   3
HETATM    3  C   UNL     1      -9.638   9.094  66.289  1.00  0.00    -0.255 A  
HETATM    4  C   UNL     1     -10.442   9.658  67.280  1.00  0.00    -0.323 A  
HETATM    5  C   UNL     1     -11.190  10.808  67.013  1.00  0.00    -0.089 A  
HETATM    6  O   UNL     1     -12.048  11.239  67.988  1.00  0.00    -0.638 OA 
HETATM    7  C   UNL     1     -11.106  11.447  65.770  1.00  0.00    -0.217 A  
HETATM    8  C   UNL     1      -9.521   9.732  65.056  1.00  0.00    -0.337 A  
HETATM    9  C   UNL     1     -10.252  10.897  64.797  1.00  0.00    -0.398 A  
HETATM   10  H   UNL     1     -12.556  12.020  67.806  1.00  0.00     0.000 HD 
BRANCH   7  11
HETATM   11  C   UNL     1     -11.912  12.631  65.358  1.00  0.00    -0.446 C  
HETATM   12  O   UNL     1     -13.044  12.447  64.903  1.00  0.00    -0.765 OA 
BRANCH  11  13
HETATM   13  C   UNL     1     -11.475  14.041  65.533  1.00  0.00    -0.318 A  
HETATM   14  C   UNL     1     -10.780  14.351  66.713  1.00  0.00    -0.292 A  
HETATM   15  C   UNL     1     -10.303  15.643  66.937  1.00  0.00    -0.293 A  
HETATM   16  C   UNL     1     -10.518  16.636  65.984  1.00  0.00    -0.306 A  
HETATM   17  C   UNL     1     -11.244  16.348  64.826  1.00  0.00    -0.219 A  
HETATM   18  C   UNL     1     -11.743  15.061  64.612  1.00  0.00    -0.382 A  
HETATM   19  O   UNL     1     -12.505  14.815  63.504  1.00  0.00    -1.053 OA 
HETATM   20  H   UNL     1     -12.687  15.506  62.879  1.00  0.00     0.000 HD 
ENDBRANCH  11  13
ENDBRANCH   7  11
ENDBRANCH   2   3
TORSDOF 3
ENDMDL
MODEL       45
REMARK 921   NORMALIZED FREE ENERGY PREDICTED BY IDOCK:   -5.71 KCAL/MOL
REMARK 922        TOTAL FREE ENERGY PREDICTED BY IDOCK:   -7.33 KCAL/MOL
REMARK 923 INTER-LIGAND FREE ENERGY PREDICTED BY IDOCK:   -6.80 KCAL/MOL
REMARK 924 INTRA-LIGAND FREE ENERGY PREDICTED BY IDOCK:   -0.54 KCAL/MOL
REMARK 927      BINDING AFFINITY PREDICTED BY RF-SCORE:    0.00 PKD
ROOT
HETATM    1  C   UNL     1     -12.249  13.350  65.336  1.00  0.00    -0.452 C  
HETATM    2  O   UNL     1     -11.351  13.701  66.387  1.00  0.00    -0.304 OA 
ENDROOT
BRANCH   2   3
HETATM    3  C   UNL     1     -11.661  13.159  67.604  1.00  0.00    -0.369 A  
HETATM    4  C   UNL     1     -11.777  13.894  68.785  1.00  0.00    -0.392 A  
HETATM    5  C   UNL     1     -12.026  13.247  69.998  1.00  0.00    -0.329 A  
HETATM    6  O   UNL     1     -12.008  14.012  71.132  1.00  0.00    -0.437 OA 
HETATM    7  C   UNL     1     -12.219  11.861  70.047  1.00  0.00    -0.291 A  
HETATM    8  C   UNL     1     -11.878  11.784  67.629  1.00  0.00    -0.241 A  
HETATM    9  C   UNL     1     -12.152  11.139  68.841  1.00  0.00    -0.276 A  
HETATM   10  H   UNL     1     -12.177  13.571  71.957  1.00  0.00     0.000 HD 
BRANCH   7  11
HETATM   11  C   UNL     1     -12.418  11.065  71.291  1.00  0.00    -0.370 C  
HETATM   12  O   UNL     1     -13.185  11.500  72.155  1.00  0.00    -0.505 OA 
BRANCH  11  13
HETATM   13  C   UNL     1     -11.813   9.730  71.534  1.00  0.00    -0.476 A  
HETATM   14  C   UNL     1     -10.584   9.464  70.910  1.00  0.00    -0.390 A  
HETATM   15  C   UNL     1      -9.931   8.247  71.116  1.00  0.00    -0.230 A  
HETATM   16  C   UNL     1     -10.503   7.287  71.948  1.00  0.00    -0.224 A  
HETATM   17  C   UNL     1     -11.746   7.525  72.541  1.00  0.00    -0.310 A  
HETATM   18  C   UNL     1     -12.410   8.733  72.315  1.00  0.00    -0.378 A  
HETATM   19  O   UNL     1     -13.654   8.922  72.852  1.00  0.00    -0.824 OA 
HETATM   20  H   UNL     1     -14.059   8.246  73.382  1.00  0.00     0.000 HD 
ENDBRANCH  11  13
ENDBRANCH   7  11
ENDBRANCH   2   3
TORSDOF 3
ENDMDL
MODEL       46
REMARK 921   NORMALIZED FREE ENERGY PREDICTED BY IDOCK:   -5.69 KCAL/MOL
REMARK 922        TOTAL FREE ENERGY PREDICTED BY IDOCK:   -7.31 KCAL/MOL
REMARK 923 INTER-LIGAND FREE ENERGY PREDICTED BY IDOCK:   -6.66 KCAL/MOL
REMARK 924 INTRA-LIGAND FREE ENERGY PREDICTED BY IDOCK:   -0.65 KCAL/MOL
REMARK 927      BINDING AFFINITY PREDICTED BY RF-SCORE:    0.00 PKD
ROOT
HETATM    1  C   UNL     1      -9.757   9.147  69.080  1.00  0.00    -0.163 C  
HETATM    2  O   UNL     1     -10.177   8.991  67.726  1.00  0.00    -0.202 OA 
ENDROOT
BRANCH   2   3
HETATM    3  C   UNL     1     -10.567  10.151  67.114  1.00  0.00    -0.246 A  
HETATM    4  C   UNL     1     -10.072  10.599  65.889  1.00  0.00    -0.321 A  
HETATM    5  C   UNL     1     -10.474  11.834  65.373  1.00  0.00    -0.272 A  
HETATM    6  O   UNL     1      -9.860  12.265  64.229  1.00  0.00    -0.482 OA 
HETATM    7  C   UNL     1     -11.419  12.620  66.044  1.00  0.00    -0.414 A  
HETATM    8  C   UNL     1     -11.529  10.907  67.782  1.00  0.00    -0.323 A  
HETATM    9  C   UNL     1     -11.949  12.132  67.253  1.00  0.00    -0.158 A  
HETATM   10  H   UNL     1     -10.133  13.105  63.879  1.00  0.00     0.000 HD 
BRANCH   7  11
HETATM   11  C   UNL     1     -11.861  13.979  65.621  1.00  0.00    -0.377 C  
HETATM   12  O   UNL     1     -12.886  14.082  64.943  1.00  0.00    -0.692 OA 
BRANCH  11  13
HETATM   13  C   UNL     1     -11.190  15.240  66.030  1.00  0.00    -0.231 A  
HETATM   14  C   UNL     1     -10.767  15.332  67.366  1.00  0.00    -0.293 A  
HETATM   15  C   UNL     1     -10.096  16.469  67.821  1.00  0.00    -0.264 A  
HETATM   16  C   UNL     1      -9.843  17.521  66.944  1.00  0.00    -0.302 A  
HETATM   17  C   UNL     1     -10.295  17.456  65.624  1.00  0.00    -0.161 A  
HETATM   18  C   UNL     1     -10.988  16.329  65.175  1.00  0.00    -0.274 A  
HETATM   19  O   UNL     1     -11.479  16.311  63.898  1.00  0.00    -1.484 OA 
HETATM   20  H   UNL     1     -11.342  17.050  63.318  1.00  0.00     0.000 HD 
ENDBRANCH  11  13
ENDBRANCH   7  11
ENDBRANCH   2   3
TORSDOF 3
ENDMDL
MODEL       47
REMARK 921   NORMALIZED FREE ENERGY PREDICTED BY IDOCK:   -5.66 KCAL/MOL
REMARK 922        TOTAL FREE ENERGY PREDICTED BY IDOCK:   -7.28 KCAL/MOL
REMARK 923 INTER-LIGAND FREE ENERGY PREDICTED BY IDOCK:   -6.75 KCAL/MOL
REMARK 924 INTRA-LIGAND FREE ENERGY PREDICTED BY IDOCK:   -0.53 KCAL/MOL
REMARK 927      BINDING AFFINITY PREDICTED BY RF-SCORE:    0.00 PKD
ROOT
HETATM    1  C   UNL     1      -8.668  10.986  62.378  1.00  0.00    -0.303 C  
HETATM    2  O   UNL     1      -9.993  10.651  62.787  1.00  0.00    -0.266 OA 
ENDROOT
BRANCH   2   3
HETATM    3  C   UNL     1     -10.447  11.352  63.871  1.00  0.00    -0.387 A  
HETATM    4  C   UNL     1     -11.675  12.013  63.921  1.00  0.00    -0.537 A  
HETATM    5  C   UNL     1     -12.026  12.766  65.044  1.00  0.00    -0.412 A  
HETATM    6  O   UNL     1     -13.189  13.485  64.979  1.00  0.00    -0.721 OA 
HETATM    7  C   UNL     1     -11.183  12.828  66.160  1.00  0.00    -0.336 A  
HETATM    8  C   UNL     1      -9.608  11.379  64.983  1.00  0.00    -0.250 A  
HETATM    9  C   UNL     1      -9.972  12.114  66.117  1.00  0.00    -0.253 A  
HETATM   10  H   UNL     1     -13.427  13.997  65.743  1.00  0.00     0.000 HD 
BRANCH   7  11
HETATM   11  C   UNL     1     -11.427  13.656  67.375  1.00  0.00    -0.336 C  
HETATM   12  O   UNL     1     -11.320  14.882  67.286  1.00  0.00    -0.336 OA 
BRANCH  11  13
HETATM   13  C   UNL     1     -11.875  13.109  68.682  1.00  0.00    -0.363 A  
HETATM   14  C   UNL     1     -11.993  11.714  68.783  1.00  0.00    -0.326 A  
HETATM   15  C   UNL     1     -12.372  11.118  69.988  1.00  0.00    -0.351 A  
HETATM   16  C   UNL     1     -12.636  11.914  71.100  1.00  0.00    -0.390 A  
HETATM   17  C   UNL     1     -12.561  13.305  70.999  1.00  0.00    -0.408 A  
HETATM   18  C   UNL     1     -12.205  13.902  69.787  1.00  0.00    -0.332 A  
HETATM   19  O   UNL     1     -12.200  15.267  69.691  1.00  0.00    -0.441 OA 
HETATM   20  H   UNL     1     -12.424  15.805  70.441  1.00  0.00     0.000 HD 
ENDBRANCH  11  13
ENDBRANCH   7  11
ENDBRANCH   2   3
TORSDOF 3
ENDMDL
MODEL       48
REMARK 921   NORMALIZED FREE ENERGY PREDICTED BY IDOCK:   -5.65 KCAL/MOL
REMARK 922        TOTAL FREE ENERGY PREDICTED BY IDOCK:   -7.26 KCAL/MOL
REMARK 923 INTER-LIGAND FREE ENERGY PREDICTED BY IDOCK:   -6.50 KCAL/MOL
REMARK 924 INTRA-LIGAND FREE ENERGY PREDICTED BY IDOCK:   -0.77 KCAL/MOL
REMARK 927      BINDING AFFINITY PREDICTED BY RF-SCORE:    0.00 PKD
ROOT
HETATM    1  C   UNL     1     -11.227  11.050  67.385  1.00  0.00    -0.285 C  
HETATM    2  O   UNL     1     -12.057  11.934  66.634  1.00  0.00    -0.587 OA 
ENDROOT
BRANCH   2   3
HETATM    3  C   UNL     1     -11.603  13.223  66.569  1.00  0.00    -0.350 A  
HETATM    4  C   UNL     1     -11.690  14.141  67.616  1.00  0.00    -0.421 A  
HETATM    5  C   UNL     1     -11.265  15.460  67.436  1.00  0.00    -0.287 A  
HETATM    6  O   UNL     1     -11.489  16.337  68.462  1.00  0.00    -0.371 OA 
HETATM    7  C   UNL     1     -10.695  15.872  66.225  1.00  0.00    -0.261 A  
HETATM    8  C   UNL     1     -11.013  13.608  65.367  1.00  0.00    -0.302 A  
HETATM    9  C   UNL     1     -10.566  14.923  65.195  1.00  0.00    -0.450 A  
HETATM   10  H   UNL     1     -11.200  17.233  68.339  1.00  0.00     0.000 HD 
BRANCH   7  11
HETATM   11  C   UNL     1     -10.277  17.267  65.904  1.00  0.00    -0.261 C  
HETATM   12  O   UNL     1     -10.931  17.903  65.073  1.00  0.00    -0.776 OA 
BRANCH  11  13
HETATM   13  C   UNL     1      -9.165  17.982  66.581  1.00  0.00    -0.291 A  
HETATM   14  C   UNL     1      -7.897  17.380  66.533  1.00  0.00    -0.320 A  
HETATM   15  C   UNL     1      -6.791  18.005  67.112  1.00  0.00    -0.207 A  
HETATM   16  C   UNL     1      -6.945  19.237  67.744  1.00  0.00    -0.253 A  
HETATM   17  C   UNL     1      -8.210  19.825  67.834  1.00  0.00    -0.336 A  
HETATM   18  C   UNL     1      -9.320  19.187  67.275  1.00  0.00    -0.301 A  
HETATM   19  O   UNL     1     -10.559  19.747  67.429  1.00  0.00    -0.438 OA 
HETATM   20  H   UNL     1     -10.665  20.564  67.900  1.00  0.00     0.000 HD 
ENDBRANCH  11  13
ENDBRANCH   7  11
ENDBRANCH   2   3
TORSDOF 3
ENDMDL
MODEL       49
REMARK 921   NORMALIZED FREE ENERGY PREDICTED BY IDOCK:   -5.64 KCAL/MOL
REMARK 922        TOTAL FREE ENERGY PREDICTED BY IDOCK:   -7.25 KCAL/MOL
REMARK 923 INTER-LIGAND FREE ENERGY PREDICTED BY IDOCK:   -6.49 KCAL/MOL
REMARK 924 INTRA-LIGAND FREE ENERGY PREDICTED BY IDOCK:   -0.76 KCAL/MOL
REMARK 927      BINDING AFFINITY PREDICTED BY RF-SCORE:    0.00 PKD
ROOT
HETATM    1  C   UNL     1     -13.038   8.773  71.602  1.00  0.00    -0.352 C  
HETATM    2  O   UNL     1     -13.524   9.953  72.238  1.00  0.00    -0.430 OA 
ENDROOT
BRANCH   2   3
HETATM    3  C   UNL     1     -13.071  11.122  71.690  1.00  0.00    -0.424 A  
HETATM    4  C   UNL     1     -13.387  12.392  72.175  1.00  0.00    -0.508 A  
HETATM    5  C   UNL     1     -12.936  13.534  71.508  1.00  0.00    -0.355 A  
HETATM    6  O   UNL     1     -13.382  14.744  71.966  1.00  0.00    -0.318 OA 
HETATM    7  C   UNL     1     -12.117  13.430  70.377  1.00  0.00    -0.405 A  
HETATM    8  C   UNL     1     -12.233  11.000  70.584  1.00  0.00    -0.481 A  
HETATM    9  C   UNL     1     -11.763  12.144  69.930  1.00  0.00    -0.361 A  
HETATM   10  H   UNL     1     -13.075  15.520  71.512  1.00  0.00     0.000 HD 
BRANCH   7  11
HETATM   11  C   UNL     1     -11.643  14.578  69.552  1.00  0.00    -0.307 C  
HETATM   12  O   UNL     1     -11.632  15.704  70.056  1.00  0.00    -0.296 OA 
BRANCH  11  13
HETATM   13  C   UNL     1     -11.101  14.448  68.175  1.00  0.00    -0.279 A  
HETATM   14  C   UNL     1     -12.020  14.534  67.117  1.00  0.00    -0.373 A  
HETATM   15  C   UNL     1     -11.586  14.459  65.792  1.00  0.00    -0.353 A  
HETATM   16  C   UNL     1     -10.230  14.297  65.515  1.00  0.00    -0.379 A  
HETATM   17  C   UNL     1      -9.313  14.169  66.561  1.00  0.00    -0.285 A  
HETATM   18  C   UNL     1      -9.750  14.219  67.887  1.00  0.00    -0.222 A  
HETATM   19  O   UNL     1      -8.846  14.028  68.896  1.00  0.00    -0.357 OA 
HETATM   20  H   UNL     1      -7.930  13.873  68.701  1.00  0.00     0.000 HD 
ENDBRANCH  11  13
ENDBRANCH   7  11
ENDBRANCH   2   3
TORSDOF 3
ENDMDL
MODEL       50
REMARK 921   NORMALIZED FREE ENERGY PREDICTED BY IDOCK:   -5.63 KCAL/MOL
REMARK 922        TOTAL FREE ENERGY PREDICTED BY IDOCK:   -7.24 KCAL/MOL
REMARK 923 INTER-LIGAND FREE ENERGY PREDICTED BY IDOCK:   -6.51 KCAL/MOL
REMARK 924 INTRA-LIGAND FREE ENERGY PREDICTED BY IDOCK:   -0.72 KCAL/MOL
REMARK 927      BINDING AFFINITY PREDICTED BY RF-SCORE:    0.00 PKD
ROOT
HETATM    1  C   UNL     1      -9.240   8.033  69.398  1.00  0.00    -0.152 C  
HETATM    2  O   UNL     1     -10.609   8.259  69.727  1.00  0.00    -0.226 OA 
ENDROOT
BRANCH   2   3
HETATM    3  C   UNL     1     -11.035   9.545  69.539  1.00  0.00    -0.195 A  
HETATM    4  C   UNL     1     -11.028  10.204  68.309  1.00  0.00    -0.299 A  
HETATM    5  C   UNL     1     -11.414  11.544  68.223  1.00  0.00    -0.299 A  
HETATM    6  O   UNL     1     -11.269  12.162  67.011  1.00  0.00    -0.276 OA 
HETATM    7  C   UNL     1     -11.867  12.236  69.353  1.00  0.00    -0.370 A  
HETATM    8  C   UNL     1     -11.509  10.209  70.669  1.00  0.00    -0.432 A  
HETATM    9  C   UNL     1     -11.918  11.544  70.577  1.00  0.00    -0.439 A  
HETATM   10  H   UNL     1     -11.531  13.073  66.953  1.00  0.00     0.000 HD 
BRANCH   7  11
HETATM   11  C   UNL     1     -12.231  13.680  69.386  1.00  0.00    -0.259 C  
HETATM   12  O   UNL     1     -12.405  14.271  68.317  1.00  0.00    -0.224 OA 
BRANCH  11  13
HETATM   13  C   UNL     1     -12.483  14.449  70.633  1.00  0.00    -0.419 A  
HETATM   14  C   UNL     1     -13.808  14.501  71.093  1.00  0.00    -0.292 A  
HETATM   15  C   UNL     1     -14.122  15.172  72.277  1.00  0.00    -0.633 A  
HETATM   16  C   UNL     1     -13.114  15.796  73.008  1.00  0.00    -0.645 A  
HETATM   17  C   UNL     1     -11.799  15.786  72.537  1.00  0.00    -0.605 A  
HETATM   18  C   UNL     1     -11.488  15.135  71.340  1.00  0.00    -0.354 A  
HETATM   19  O   UNL     1     -10.207  15.190  70.863  1.00  0.00    -0.397 OA 
HETATM   20  H   UNL     1      -9.533  15.655  71.342  1.00  0.00     0.000 HD 
ENDBRANCH  11  13
ENDBRANCH   7  11
ENDBRANCH   2   3
TORSDOF 3
ENDMDL
MODEL       51
REMARK 921   NORMALIZED FREE ENERGY PREDICTED BY IDOCK:   -5.61 KCAL/MOL
REMARK 922        TOTAL FREE ENERGY PREDICTED BY IDOCK:   -7.22 KCAL/MOL
REMARK 923 INTER-LIGAND FREE ENERGY PREDICTED BY IDOCK:   -6.38 KCAL/MOL
REMARK 924 INTRA-LIGAND FREE ENERGY PREDICTED BY IDOCK:   -0.84 KCAL/MOL
REMARK 927      BINDING AFFINITY PREDICTED BY RF-SCORE:    0.00 PKD
ROOT
HETATM    1  C   UNL     1      -7.623   7.903  66.446  1.00  0.00    -0.091 C  
HETATM    2  O   UNL     1      -8.916   7.878  65.845  1.00  0.00    -0.168 OA 
ENDROOT
BRANCH   2   3
HETATM    3  C   UNL     1      -9.598   9.062  65.915  1.00  0.00    -0.247 A  
HETATM    4  C   UNL     1     -10.372   9.460  67.006  1.00  0.00    -0.322 A  
HETATM    5  C   UNL     1     -11.094  10.656  66.960  1.00  0.00    -0.145 A  
HETATM    6  O   UNL     1     -11.926  10.927  68.013  1.00  0.00    -0.744 OA 
HETATM    7  C   UNL     1     -11.013  11.503  65.848  1.00  0.00    -0.301 A  
HETATM    8  C   UNL     1      -9.484   9.905  64.812  1.00  0.00    -0.356 A  
HETATM    9  C   UNL     1     -10.188  11.114  64.777  1.00  0.00    -0.365 A  
HETATM   10  H   UNL     1     -12.416  11.740  67.981  1.00  0.00     0.000 HD 
BRANCH   7  11
HETATM   11  C   UNL     1     -11.794  12.759  65.667  1.00  0.00    -0.425 C  
HETATM   12  O   UNL     1     -12.935  12.684  65.202  1.00  0.00    -0.754 OA 
BRANCH  11  13
HETATM   13  C   UNL     1     -11.322  14.104  66.087  1.00  0.00    -0.337 A  
HETATM   14  C   UNL     1     -10.478  14.789  65.199  1.00  0.00    -0.443 A  
HETATM   15  C   UNL     1     -10.021  16.073  65.502  1.00  0.00    -0.282 A  
HETATM   16  C   UNL     1     -10.403  16.680  66.696  1.00  0.00    -0.296 A  
HETATM   17  C   UNL     1     -11.208  15.990  67.606  1.00  0.00    -0.183 A  
HETATM   18  C   UNL     1     -11.647  14.696  67.313  1.00  0.00    -0.387 A  
HETATM   19  O   UNL     1     -12.381  14.013  68.243  1.00  0.00    -0.537 OA 
HETATM   20  H   UNL     1     -12.601  14.415  69.075  1.00  0.00     0.000 HD 
ENDBRANCH  11  13
ENDBRANCH   7  11
ENDBRANCH   2   3
TORSDOF 3
ENDMDL
MODEL       52
REMARK 921   NORMALIZED FREE ENERGY PREDICTED BY IDOCK:   -5.56 KCAL/MOL
REMARK 922        TOTAL FREE ENERGY PREDICTED BY IDOCK:   -7.16 KCAL/MOL
REMARK 923 INTER-LIGAND FREE ENERGY PREDICTED BY IDOCK:   -6.26 KCAL/MOL
REMARK 924 INTRA-LIGAND FREE ENERGY PREDICTED BY IDOCK:   -0.90 KCAL/MOL
REMARK 927      BINDING AFFINITY PREDICTED BY RF-SCORE:    0.00 PKD
ROOT
HETATM    1  C   UNL     1     -11.501   8.248  72.435  1.00  0.00    -0.394 C  
HETATM    2  O   UNL     1     -12.463   9.237  72.074  1.00  0.00    -0.365 OA 
ENDROOT
BRANCH   2   3
HETATM    3  C   UNL     1     -12.035  10.129  71.129  1.00  0.00    -0.386 A  
HETATM    4  C   UNL     1     -11.077   9.843  70.156  1.00  0.00    -0.353 A  
HETATM    5  C   UNL     1     -10.646  10.840  69.275  1.00  0.00    -0.229 A  
HETATM    6  O   UNL     1      -9.620  10.525  68.426  1.00  0.00    -0.150 OA 
HETATM    7  C   UNL     1     -11.204  12.123  69.313  1.00  0.00    -0.288 A  
HETATM    8  C   UNL     1     -12.621  11.392  71.164  1.00  0.00    -0.490 A  
HETATM    9  C   UNL     1     -12.207  12.382  70.266  1.00  0.00    -0.345 A  
HETATM   10  H   UNL     1      -9.328  11.202  67.828  1.00  0.00     0.000 HD 
BRANCH   7  11
HETATM   11  C   UNL     1     -10.769  13.274  68.472  1.00  0.00    -0.262 C  
HETATM   12  O   UNL     1     -10.045  14.136  68.978  1.00  0.00    -0.193 OA 
BRANCH  11  13
HETATM   13  C   UNL     1     -11.081  13.416  67.026  1.00  0.00    -0.310 A  
HETATM   14  C   UNL     1     -12.390  13.796  66.691  1.00  0.00    -0.403 A  
HETATM   15  C   UNL     1     -12.755  13.988  65.357  1.00  0.00    -0.499 A  
HETATM   16  C   UNL     1     -11.813  13.800  64.348  1.00  0.00    -0.458 A  
HETATM   17  C   UNL     1     -10.518  13.382  64.668  1.00  0.00    -0.428 A  
HETATM   18  C   UNL     1     -10.160  13.167  66.001  1.00  0.00    -0.286 A  
HETATM   19  O   UNL     1      -8.909  12.696  66.289  1.00  0.00    -0.421 OA 
HETATM   20  H   UNL     1      -8.285  12.527  65.594  1.00  0.00     0.000 HD 
ENDBRANCH  11  13
ENDBRANCH   7  11
ENDBRANCH   2   3
TORSDOF 3
ENDMDL
MODEL       53
REMARK 921   NORMALIZED FREE ENERGY PREDICTED BY IDOCK:   -5.55 KCAL/MOL
REMARK 922        TOTAL FREE ENERGY PREDICTED BY IDOCK:   -7.14 KCAL/MOL
REMARK 923 INTER-LIGAND FREE ENERGY PREDICTED BY IDOCK:   -6.39 KCAL/MOL
REMARK 924 INTRA-LIGAND FREE ENERGY PREDICTED BY IDOCK:   -0.75 KCAL/MOL
REMARK 927      BINDING AFFINITY PREDICTED BY RF-SCORE:    0.00 PKD
ROOT
HETATM    1  C   UNL     1      -9.477  10.427  63.381  1.00  0.00    -0.315 C  
HETATM    2  O   UNL     1     -10.704  11.136  63.219  1.00  0.00    -0.319 OA 
ENDROOT
BRANCH   2   3
HETATM    3  C   UNL     1     -11.024  11.964  64.260  1.00  0.00    -0.353 A  
HETATM    4  C   UNL     1     -12.255  12.606  64.404  1.00  0.00    -0.518 A  
HETATM    5  C   UNL     1     -12.468  13.494  65.463  1.00  0.00    -0.491 A  
HETATM    6  O   UNL     1     -13.653  14.179  65.477  1.00  0.00    -0.685 OA 
HETATM    7  C   UNL     1     -11.478  13.714  66.427  1.00  0.00    -0.358 A  
HETATM    8  C   UNL     1     -10.037  12.150  65.225  1.00  0.00    -0.291 A  
HETATM    9  C   UNL     1     -10.261  13.020  66.298  1.00  0.00    -0.291 A  
HETATM   10  H   UNL     1     -13.797  14.782  66.197  1.00  0.00     0.000 HD 
BRANCH   7  11
HETATM   11  C   UNL     1     -11.575  14.689  67.550  1.00  0.00    -0.375 C  
HETATM   12  O   UNL     1     -12.217  14.371  68.555  1.00  0.00    -0.268 OA 
BRANCH  11  13
HETATM   13  C   UNL     1     -10.877  16.000  67.579  1.00  0.00    -0.292 A  
HETATM   14  C   UNL     1     -10.601  16.603  66.342  1.00  0.00    -0.200 A  
HETATM   15  C   UNL     1      -9.981  17.853  66.284  1.00  0.00    -0.333 A  
HETATM   16  C   UNL     1      -9.634  18.509  67.462  1.00  0.00    -0.303 A  
HETATM   17  C   UNL     1      -9.867  17.900  68.697  1.00  0.00    -0.375 A  
HETATM   18  C   UNL     1     -10.465  16.638  68.755  1.00  0.00    -0.324 A  
HETATM   19  O   UNL     1     -10.627  16.031  69.970  1.00  0.00    -0.301 OA 
HETATM   20  H   UNL     1     -10.347  16.463  70.768  1.00  0.00     0.000 HD 
ENDBRANCH  11  13
ENDBRANCH   7  11
ENDBRANCH   2   3
TORSDOF 3
ENDMDL
MODEL       54
REMARK 921   NORMALIZED FREE ENERGY PREDICTED BY IDOCK:   -5.54 KCAL/MOL
REMARK 922        TOTAL FREE ENERGY PREDICTED BY IDOCK:   -7.14 KCAL/MOL
REMARK 923 INTER-LIGAND FREE ENERGY PREDICTED BY IDOCK:   -6.29 KCAL/MOL
REMARK 924 INTRA-LIGAND FREE ENERGY PREDICTED BY IDOCK:   -0.84 KCAL/MOL
REMARK 927      BINDING AFFINITY PREDICTED BY RF-SCORE:    0.00 PKD
ROOT
HETATM    1  C   UNL     1     -10.246  19.888  68.203  1.00  0.00    -0.432 C  
HETATM    2  O   UNL     1      -9.717  19.078  67.155  1.00  0.00    -0.305 OA 
ENDROOT
BRANCH   2   3
HETATM    3  C   UNL     1     -10.156  17.783  67.160  1.00  0.00    -0.338 A  
HETATM    4  C   UNL     1     -11.018  17.248  68.119  1.00  0.00    -0.193 A  
HETATM    5  C   UNL     1     -11.356  15.893  68.086  1.00  0.00    -0.311 A  
HETATM    6  O   UNL     1     -12.107  15.409  69.123  1.00  0.00    -0.505 OA 
HETATM    7  C   UNL     1     -10.886  15.058  67.065  1.00  0.00    -0.311 A  
HETATM    8  C   UNL     1      -9.701  16.974  66.121  1.00  0.00    -0.283 A  
HETATM    9  C   UNL     1     -10.060  15.622  66.076  1.00  0.00    -0.355 A  
HETATM   10  H   UNL     1     -12.338  14.488  69.101  1.00  0.00     0.000 HD 
BRANCH   7  11
HETATM   11  C   UNL     1     -11.127  13.590  66.977  1.00  0.00    -0.296 C  
HETATM   12  O   UNL     1     -11.343  12.963  68.018  1.00  0.00    -0.256 OA 
BRANCH  11  13
HETATM   13  C   UNL     1     -11.206  12.832  65.702  1.00  0.00    -0.335 A  
HETATM   14  C   UNL     1     -12.415  12.903  64.992  1.00  0.00    -0.553 A  
HETATM   15  C   UNL     1     -12.558  12.249  63.766  1.00  0.00    -0.577 A  
HETATM   16  C   UNL     1     -11.494  11.520  63.242  1.00  0.00    -0.180 A  
HETATM   17  C   UNL     1     -10.300  11.409  63.960  1.00  0.00    -0.418 A  
HETATM   18  C   UNL     1     -10.165  12.043  65.198  1.00  0.00    -0.276 A  
HETATM   19  O   UNL     1      -9.013  11.871  65.915  1.00  0.00    -0.370 OA 
HETATM   20  H   UNL     1      -8.307  11.335  65.573  1.00  0.00     0.000 HD 
ENDBRANCH  11  13
ENDBRANCH   7  11
ENDBRANCH   2   3
TORSDOF 3
ENDMDL
MODEL       55
REMARK 921   NORMALIZED FREE ENERGY PREDICTED BY IDOCK:   -5.54 KCAL/MOL
REMARK 922        TOTAL FREE ENERGY PREDICTED BY IDOCK:   -7.13 KCAL/MOL
REMARK 923 INTER-LIGAND FREE ENERGY PREDICTED BY IDOCK:   -6.16 KCAL/MOL
REMARK 924 INTRA-LIGAND FREE ENERGY PREDICTED BY IDOCK:   -0.97 KCAL/MOL
REMARK 927      BINDING AFFINITY PREDICTED BY RF-SCORE:    0.00 PKD
ROOT
HETATM    1  C   UNL     1     -14.139  14.388  72.143  1.00  0.00    -0.535 C  
HETATM    2  O   UNL     1     -13.192  13.504  71.548  1.00  0.00    -0.354 OA 
ENDROOT
BRANCH   2   3
HETATM    3  C   UNL     1     -12.336  14.100  70.662  1.00  0.00    -0.365 A  
HETATM    4  C   UNL     1     -12.083  13.628  69.374  1.00  0.00    -0.364 A  
HETATM    5  C   UNL     1     -11.137  14.262  68.563  1.00  0.00    -0.257 A  
HETATM    6  O   UNL     1     -10.852  13.677  67.359  1.00  0.00    -0.268 OA 
HETATM    7  C   UNL     1     -10.466  15.409  69.003  1.00  0.00    -0.249 A  
HETATM    8  C   UNL     1     -11.698  15.256  71.106  1.00  0.00    -0.409 A  
HETATM    9  C   UNL     1     -10.768  15.904  70.285  1.00  0.00    -0.313 A  
HETATM   10  H   UNL     1     -10.209  14.108  66.808  1.00  0.00     0.000 HD 
BRANCH   7  11
HETATM   11  C   UNL     1      -9.391  16.116  68.250  1.00  0.00    -0.205 C  
HETATM   12  O   UNL     1      -8.432  15.461  67.834  1.00  0.00    -0.144 OA 
BRANCH  11  13
HETATM   13  C   UNL     1      -9.432  17.557  67.892  1.00  0.00    -0.277 A  
HETATM   14  C   UNL     1     -10.551  18.002  67.169  1.00  0.00    -0.337 A  
HETATM   15  C   UNL     1     -10.683  19.349  66.825  1.00  0.00    -0.550 A  
HETATM   16  C   UNL     1      -9.699  20.260  67.201  1.00  0.00    -0.592 A  
HETATM   17  C   UNL     1      -8.563  19.820  67.884  1.00  0.00    -0.360 A  
HETATM   18  C   UNL     1      -8.418  18.469  68.207  1.00  0.00    -0.318 A  
HETATM   19  O   UNL     1      -7.270  18.047  68.820  1.00  0.00    -0.267 OA 
HETATM   20  H   UNL     1      -6.582  18.666  69.034  1.00  0.00     0.000 HD 
ENDBRANCH  11  13
ENDBRANCH   7  11
ENDBRANCH   2   3
TORSDOF 3
ENDMDL
MODEL       56
REMARK 921   NORMALIZED FREE ENERGY PREDICTED BY IDOCK:   -5.53 KCAL/MOL
REMARK 922        TOTAL FREE ENERGY PREDICTED BY IDOCK:   -7.12 KCAL/MOL
REMARK 923 INTER-LIGAND FREE ENERGY PREDICTED BY IDOCK:   -6.29 KCAL/MOL
REMARK 924 INTRA-LIGAND FREE ENERGY PREDICTED BY IDOCK:   -0.83 KCAL/MOL
REMARK 927      BINDING AFFINITY PREDICTED BY RF-SCORE:    0.00 PKD
ROOT
HETATM    1  C   UNL     1     -13.231   8.295  71.928  1.00  0.00    -0.344 C  
HETATM    2  O   UNL     1     -11.964   8.910  72.156  1.00  0.00    -0.357 OA 
ENDROOT
BRANCH   2   3
HETATM    3  C   UNL     1     -11.519   9.693  71.126  1.00  0.00    -0.384 A  
HETATM    4  C   UNL     1     -10.348   9.453  70.405  1.00  0.00    -0.318 A  
HETATM    5  C   UNL     1      -9.933  10.348  69.416  1.00  0.00    -0.218 A  
HETATM    6  O   UNL     1      -8.717  10.117  68.832  1.00  0.00    -0.131 OA 
HETATM    7  C   UNL     1     -10.706  11.469  69.090  1.00  0.00    -0.210 A  
HETATM    8  C   UNL     1     -12.315  10.788  70.797  1.00  0.00    -0.480 A  
HETATM    9  C   UNL     1     -11.910  11.671  69.789  1.00  0.00    -0.428 A  
HETATM   10  H   UNL     1      -8.435  10.726  68.160  1.00  0.00     0.000 HD 
BRANCH   7  11
HETATM   11  C   UNL     1     -10.321  12.521  68.107  1.00  0.00    -0.232 C  
HETATM   12  O   UNL     1      -9.300  13.181  68.317  1.00  0.00    -0.212 OA 
BRANCH  11  13
HETATM   13  C   UNL     1     -11.043  12.779  66.834  1.00  0.00    -0.308 A  
HETATM   14  C   UNL     1     -10.786  11.904  65.766  1.00  0.00    -0.327 A  
HETATM   15  C   UNL     1     -11.451  12.056  64.548  1.00  0.00    -0.385 A  
HETATM   16  C   UNL     1     -12.379  13.083  64.389  1.00  0.00    -0.442 A  
HETATM   17  C   UNL     1     -12.611  13.984  65.432  1.00  0.00    -0.529 A  
HETATM   18  C   UNL     1     -11.927  13.847  66.642  1.00  0.00    -0.442 A  
HETATM   19  O   UNL     1     -12.121  14.775  67.628  1.00  0.00    -0.545 OA 
HETATM   20  H   UNL     1     -12.721  15.500  67.498  1.00  0.00     0.000 HD 
ENDBRANCH  11  13
ENDBRANCH   7  11
ENDBRANCH   2   3
TORSDOF 3
ENDMDL
MODEL       57
REMARK 921   NORMALIZED FREE ENERGY PREDICTED BY IDOCK:   -5.51 KCAL/MOL
REMARK 922        TOTAL FREE ENERGY PREDICTED BY IDOCK:   -7.10 KCAL/MOL
REMARK 923 INTER-LIGAND FREE ENERGY PREDICTED BY IDOCK:   -6.58 KCAL/MOL
REMARK 924 INTRA-LIGAND FREE ENERGY PREDICTED BY IDOCK:   -0.53 KCAL/MOL
REMARK 927      BINDING AFFINITY PREDICTED BY RF-SCORE:    0.00 PKD
ROOT
HETATM    1  C   UNL     1     -12.041  13.776  64.047  1.00  0.00    -0.403 C  
HETATM    2  O   UNL     1     -12.152  14.392  65.328  1.00  0.00    -0.378 OA 
ENDROOT
BRANCH   2   3
HETATM    3  C   UNL     1     -11.839  13.576  66.381  1.00  0.00    -0.394 A  
HETATM    4  C   UNL     1     -11.718  14.009  67.702  1.00  0.00    -0.412 A  
HETATM    5  C   UNL     1     -11.324  13.117  68.703  1.00  0.00    -0.289 A  
HETATM    6  O   UNL     1     -11.109  13.632  69.953  1.00  0.00    -0.470 OA 
HETATM    7  C   UNL     1     -11.098  11.766  68.415  1.00  0.00    -0.286 A  
HETATM    8  C   UNL     1     -11.645  12.230  66.080  1.00  0.00    -0.451 A  
HETATM    9  C   UNL     1     -11.274  11.333  67.088  1.00  0.00    -0.344 A  
HETATM   10  H   UNL     1     -10.842  13.026  70.633  1.00  0.00     0.000 HD 
BRANCH   7  11
HETATM   11  C   UNL     1     -10.607  10.751  69.389  1.00  0.00    -0.221 C  
HETATM   12  O   UNL     1      -9.403  10.483  69.407  1.00  0.00    -0.190 OA 
BRANCH  11  13
HETATM   13  C   UNL     1     -11.462  10.089  70.407  1.00  0.00    -0.389 A  
HETATM   14  C   UNL     1     -12.483  10.862  70.983  1.00  0.00    -0.514 A  
HETATM   15  C   UNL     1     -13.354  10.304  71.921  1.00  0.00    -0.487 A  
HETATM   16  C   UNL     1     -13.211   8.969  72.290  1.00  0.00    -0.519 A  
HETATM   17  C   UNL     1     -12.173   8.202  71.754  1.00  0.00    -0.358 A  
HETATM   18  C   UNL     1     -11.286   8.767  70.834  1.00  0.00    -0.275 A  
HETATM   19  O   UNL     1     -10.239   8.020  70.370  1.00  0.00    -0.197 OA 
HETATM   20  H   UNL     1     -10.119   7.123  70.659  1.00  0.00     0.000 HD 
ENDBRANCH  11  13
ENDBRANCH   7  11
ENDBRANCH   2   3
TORSDOF 3
ENDMDL
MODEL       58
REMARK 921   NORMALIZED FREE ENERGY PREDICTED BY IDOCK:   -5.51 KCAL/MOL
REMARK 922        TOTAL FREE ENERGY PREDICTED BY IDOCK:   -7.10 KCAL/MOL
REMARK 923 INTER-LIGAND FREE ENERGY PREDICTED BY IDOCK:   -6.60 KCAL/MOL
REMARK 924 INTRA-LIGAND FREE ENERGY PREDICTED BY IDOCK:   -0.50 KCAL/MOL
REMARK 927      BINDING AFFINITY PREDICTED BY RF-SCORE:    0.00 PKD
ROOT
HETATM    1  C   UNL     1     -11.553   9.389  71.166  1.00  0.00    -0.345 C  
HETATM    2  O   UNL     1     -12.172  10.624  71.520  1.00  0.00    -0.335 OA 
ENDROOT
BRANCH   2   3
HETATM    3  C   UNL     1     -12.048  11.612  70.581  1.00  0.00    -0.335 A  
HETATM    4  C   UNL     1     -12.507  12.919  70.750  1.00  0.00    -0.370 A  
HETATM    5  C   UNL     1     -12.402  13.844  69.707  1.00  0.00    -0.275 A  
HETATM    6  O   UNL     1     -12.979  15.070  69.897  1.00  0.00    -0.610 OA 
HETATM    7  C   UNL     1     -11.788  13.497  68.498  1.00  0.00    -0.398 A  
HETATM    8  C   UNL     1     -11.409  11.258  69.395  1.00  0.00    -0.360 A  
HETATM    9  C   UNL     1     -11.283  12.191  68.360  1.00  0.00    -0.314 A  
HETATM   10  H   UNL     1     -12.908  15.698  69.188  1.00  0.00     0.000 HD 
BRANCH   7  11
HETATM   11  C   UNL     1     -11.689  14.380  67.301  1.00  0.00    -0.404 C  
HETATM   12  O   UNL     1     -12.483  14.209  66.373  1.00  0.00    -0.461 OA 
BRANCH  11  13
HETATM   13  C   UNL     1     -10.743  15.520  67.180  1.00  0.00    -0.315 A  
HETATM   14  C   UNL     1     -10.977  16.633  68.003  1.00  0.00    -0.311 A  
HETATM   15  C   UNL     1     -10.113  17.729  67.977  1.00  0.00    -0.355 A  
HETATM   16  C   UNL     1      -9.009  17.721  67.128  1.00  0.00    -0.249 A  
HETATM   17  C   UNL     1      -8.791  16.636  66.275  1.00  0.00    -0.348 A  
HETATM   18  C   UNL     1      -9.669  15.549  66.283  1.00  0.00    -0.302 A  
HETATM   19  O   UNL     1      -9.475  14.526  65.396  1.00  0.00    -0.510 OA 
HETATM   20  H   UNL     1      -8.746  14.546  64.788  1.00  0.00     0.000 HD 
ENDBRANCH  11  13
ENDBRANCH   7  11
ENDBRANCH   2   3
TORSDOF 3
ENDMDL
MODEL       59
REMARK 921   NORMALIZED FREE ENERGY PREDICTED BY IDOCK:   -5.49 KCAL/MOL
REMARK 922        TOTAL FREE ENERGY PREDICTED BY IDOCK:   -7.08 KCAL/MOL
REMARK 923 INTER-LIGAND FREE ENERGY PREDICTED BY IDOCK:   -6.44 KCAL/MOL
REMARK 924 INTRA-LIGAND FREE ENERGY PREDICTED BY IDOCK:   -0.64 KCAL/MOL
REMARK 927      BINDING AFFINITY PREDICTED BY RF-SCORE:    0.00 PKD
ROOT
HETATM    1  C   UNL     1      -8.269  18.103  66.216  1.00  0.00    -0.212 C  
HETATM    2  O   UNL     1      -9.608  18.057  65.727  1.00  0.00    -0.505 OA 
ENDROOT
BRANCH   2   3
HETATM    3  C   UNL     1     -10.175  16.812  65.740  1.00  0.00    -0.291 A  
HETATM    4  C   UNL     1     -11.082  16.351  64.785  1.00  0.00    -0.246 A  
HETATM    5  C   UNL     1     -11.667  15.089  64.918  1.00  0.00    -0.336 A  
HETATM    6  O   UNL     1     -12.636  14.748  64.014  1.00  0.00    -0.862 OA 
HETATM    7  C   UNL     1     -11.317  14.242  65.977  1.00  0.00    -0.335 A  
HETATM    8  C   UNL     1      -9.794  15.973  66.785  1.00  0.00    -0.260 A  
HETATM    9  C   UNL     1     -10.363  14.700  66.904  1.00  0.00    -0.264 A  
HETATM   10  H   UNL     1     -13.033  13.890  64.105  1.00  0.00     0.000 HD 
BRANCH   7  11
HETATM   11  C   UNL     1     -11.932  12.913  66.252  1.00  0.00    -0.408 C  
HETATM   12  O   UNL     1     -12.631  12.393  65.379  1.00  0.00    -0.637 OA 
BRANCH  11  13
HETATM   13  C   UNL     1     -11.694  12.123  67.488  1.00  0.00    -0.385 A  
HETATM   14  C   UNL     1     -12.079  12.709  68.704  1.00  0.00    -0.144 A  
HETATM   15  C   UNL     1     -11.924  12.017  69.907  1.00  0.00    -0.391 A  
HETATM   16  C   UNL     1     -11.382  10.735  69.903  1.00  0.00    -0.385 A  
HETATM   17  C   UNL     1     -10.957  10.158  68.703  1.00  0.00    -0.273 A  
HETATM   18  C   UNL     1     -11.090  10.860  67.502  1.00  0.00    -0.310 A  
HETATM   19  O   UNL     1     -10.610  10.305  66.347  1.00  0.00    -0.193 OA 
HETATM   20  H   UNL     1     -10.200   9.449  66.357  1.00  0.00     0.000 HD 
ENDBRANCH  11  13
ENDBRANCH   7  11
ENDBRANCH   2   3
TORSDOF 3
ENDMDL
MODEL       60
REMARK 921   NORMALIZED FREE ENERGY PREDICTED BY IDOCK:   -5.41 KCAL/MOL
REMARK 922        TOTAL FREE ENERGY PREDICTED BY IDOCK:   -6.98 KCAL/MOL
REMARK 923 INTER-LIGAND FREE ENERGY PREDICTED BY IDOCK:   -6.22 KCAL/MOL
REMARK 924 INTRA-LIGAND FREE ENERGY PREDICTED BY IDOCK:   -0.76 KCAL/MOL
REMARK 927      BINDING AFFINITY PREDICTED BY RF-SCORE:    0.00 PKD
ROOT
HETATM    1  C   UNL     1      -7.627   6.212  73.300  1.00  0.00    -0.096 C  
HETATM    2  O   UNL     1      -8.591   5.466  72.560  1.00  0.00    -0.118 OA 
ENDROOT
BRANCH   2   3
HETATM    3  C   UNL     1      -9.695   6.181  72.181  1.00  0.00    -0.154 A  
HETATM    4  C   UNL     1     -10.369   6.004  70.973  1.00  0.00    -0.270 A  
HETATM    5  C   UNL     1     -11.445   6.830  70.637  1.00  0.00    -0.351 A  
HETATM    6  O   UNL     1     -11.984   6.683  69.388  1.00  0.00    -0.611 OA 
HETATM    7  C   UNL     1     -11.903   7.811  71.526  1.00  0.00    -0.324 A  
HETATM    8  C   UNL     1     -10.154   7.132  73.089  1.00  0.00    -0.292 A  
HETATM    9  C   UNL     1     -11.247   7.943  72.763  1.00  0.00    -0.466 A  
HETATM   10  H   UNL     1     -12.715   7.244  69.160  1.00  0.00     0.000 HD 
BRANCH   7  11
HETATM   11  C   UNL     1     -12.991   8.789  71.239  1.00  0.00    -0.193 C  
HETATM   12  O   UNL     1     -14.161   8.398  71.271  1.00  0.00    -0.308 OA 
BRANCH  11  13
HETATM   13  C   UNL     1     -12.768  10.237  70.993  1.00  0.00    -0.491 A  
HETATM   14  C   UNL     1     -13.280  11.132  71.947  1.00  0.00    -0.488 A  
HETATM   15  C   UNL     1     -13.081  12.507  71.809  1.00  0.00    -0.450 A  
HETATM   16  C   UNL     1     -12.369  12.997  70.717  1.00  0.00    -0.394 A  
HETATM   17  C   UNL     1     -11.891  12.119  69.741  1.00  0.00    -0.397 A  
HETATM   18  C   UNL     1     -12.111  10.745  69.866  1.00  0.00    -0.337 A  
HETATM   19  O   UNL     1     -11.691   9.908  68.869  1.00  0.00    -0.484 OA 
HETATM   20  H   UNL     1     -11.246  10.252  68.105  1.00  0.00     0.000 HD 
ENDBRANCH  11  13
ENDBRANCH   7  11
ENDBRANCH   2   3
TORSDOF 3
ENDMDL
MODEL       61
REMARK 921   NORMALIZED FREE ENERGY PREDICTED BY IDOCK:   -5.40 KCAL/MOL
REMARK 922        TOTAL FREE ENERGY PREDICTED BY IDOCK:   -6.97 KCAL/MOL
REMARK 923 INTER-LIGAND FREE ENERGY PREDICTED BY IDOCK:   -6.30 KCAL/MOL
REMARK 924 INTRA-LIGAND FREE ENERGY PREDICTED BY IDOCK:   -0.67 KCAL/MOL
REMARK 927      BINDING AFFINITY PREDICTED BY RF-SCORE:    0.00 PKD
ROOT
HETATM    1  C   UNL     1     -10.141  12.506  65.683  1.00  0.00    -0.269 C  
HETATM    2  O   UNL     1     -10.746  13.500  66.508  1.00  0.00    -0.284 OA 
ENDROOT
BRANCH   2   3
HETATM    3  C   UNL     1     -11.254  13.028  67.687  1.00  0.00    -0.280 A  
HETATM    4  C   UNL     1     -11.426  13.802  68.836  1.00  0.00    -0.344 A  
HETATM    5  C   UNL     1     -11.886  13.218  70.019  1.00  0.00    -0.295 A  
HETATM    6  O   UNL     1     -11.917  14.006  71.137  1.00  0.00    -0.437 OA 
HETATM    7  C   UNL     1     -12.236  11.863  70.063  1.00  0.00    -0.291 A  
HETATM    8  C   UNL     1     -11.623  11.685  67.705  1.00  0.00    -0.349 A  
HETATM    9  C   UNL     1     -12.107  11.106  68.884  1.00  0.00    -0.276 A  
HETATM   10  H   UNL     1     -12.230  13.609  71.941  1.00  0.00     0.000 HD 
BRANCH   7  11
HETATM   11  C   UNL     1     -12.665  11.126  71.285  1.00  0.00    -0.426 C  
HETATM   12  O   UNL     1     -13.098  11.773  72.243  1.00  0.00    -0.378 OA 
BRANCH  11  13
HETATM   13  C   UNL     1     -12.686   9.645  71.404  1.00  0.00    -0.466 A  
HETATM   14  C   UNL     1     -13.944   9.033  71.522  1.00  0.00    -0.336 A  
HETATM   15  C   UNL     1     -14.053   7.643  71.601  1.00  0.00    -0.547 A  
HETATM   16  C   UNL     1     -12.904   6.856  71.562  1.00  0.00    -0.384 A  
HETATM   17  C   UNL     1     -11.646   7.457  71.486  1.00  0.00    -0.304 A  
HETATM   18  C   UNL     1     -11.535   8.849  71.431  1.00  0.00    -0.311 A  
HETATM   19  O   UNL     1     -10.293   9.421  71.421  1.00  0.00    -0.324 OA 
HETATM   20  H   UNL     1      -9.512   8.881  71.440  1.00  0.00     0.000 HD 
ENDBRANCH  11  13
ENDBRANCH   7  11
ENDBRANCH   2   3
TORSDOF 3
ENDMDL
MODEL       62
REMARK 921   NORMALIZED FREE ENERGY PREDICTED BY IDOCK:   -5.39 KCAL/MOL
REMARK 922        TOTAL FREE ENERGY PREDICTED BY IDOCK:   -6.96 KCAL/MOL
REMARK 923 INTER-LIGAND FREE ENERGY PREDICTED BY IDOCK:   -6.23 KCAL/MOL
REMARK 924 INTRA-LIGAND FREE ENERGY PREDICTED BY IDOCK:   -0.73 KCAL/MOL
REMARK 927      BINDING AFFINITY PREDICTED BY RF-SCORE:    0.00 PKD
ROOT
HETATM    1  C   UNL     1      -9.657   8.704  69.781  1.00  0.00    -0.171 C  
HETATM    2  O   UNL     1     -10.882   8.856  69.067  1.00  0.00    -0.167 OA 
ENDROOT
BRANCH   2   3
HETATM    3  C   UNL     1     -10.796   9.644  67.952  1.00  0.00    -0.215 A  
HETATM    4  C   UNL     1     -10.182   9.256  66.760  1.00  0.00    -0.325 A  
HETATM    5  C   UNL     1     -10.078  10.154  65.695  1.00  0.00    -0.254 A  
HETATM    6  O   UNL     1      -9.360   9.750  64.602  1.00  0.00    -0.260 OA 
HETATM    7  C   UNL     1     -10.632  11.437  65.778  1.00  0.00    -0.315 A  
HETATM    8  C   UNL     1     -11.378  10.907  68.043  1.00  0.00    -0.382 A  
HETATM    9  C   UNL     1     -11.294  11.797  66.967  1.00  0.00    -0.387 A  
HETATM   10  H   UNL     1      -9.288  10.361  63.878  1.00  0.00     0.000 HD 
BRANCH   7  11
HETATM   11  C   UNL     1     -10.515  12.493  64.733  1.00  0.00    -0.311 C  
HETATM   12  O   UNL     1     -10.447  12.149  63.550  1.00  0.00    -0.419 OA 
BRANCH  11  13
HETATM   13  C   UNL     1     -10.555  13.952  65.012  1.00  0.00    -0.418 A  
HETATM   14  C   UNL     1      -9.666  14.440  65.983  1.00  0.00    -0.320 A  
HETATM   15  C   UNL     1      -9.616  15.804  66.277  1.00  0.00    -0.343 A  
HETATM   16  C   UNL     1     -10.454  16.689  65.603  1.00  0.00    -0.313 A  
HETATM   17  C   UNL     1     -11.371  16.208  64.666  1.00  0.00    -0.287 A  
HETATM   18  C   UNL     1     -11.439  14.841  64.389  1.00  0.00    -0.253 A  
HETATM   19  O   UNL     1     -12.386  14.382  63.515  1.00  0.00    -1.091 OA 
HETATM   20  H   UNL     1     -12.986  14.985  63.092  1.00  0.00     0.000 HD 
ENDBRANCH  11  13
ENDBRANCH   7  11
ENDBRANCH   2   3
TORSDOF 3
ENDMDL
MODEL       63
REMARK 921   NORMALIZED FREE ENERGY PREDICTED BY IDOCK:   -5.39 KCAL/MOL
REMARK 922        TOTAL FREE ENERGY PREDICTED BY IDOCK:   -6.96 KCAL/MOL
REMARK 923 INTER-LIGAND FREE ENERGY PREDICTED BY IDOCK:   -6.25 KCAL/MOL
REMARK 924 INTRA-LIGAND FREE ENERGY PREDICTED BY IDOCK:   -0.71 KCAL/MOL
REMARK 927      BINDING AFFINITY PREDICTED BY RF-SCORE:    0.00 PKD
ROOT
HETATM    1  C   UNL     1      -6.804  17.797  66.166  1.00  0.00    -0.294 C  
HETATM    2  O   UNL     1      -7.389  18.037  67.445  1.00  0.00    -0.200 OA 
ENDROOT
BRANCH   2   3
HETATM    3  C   UNL     1      -8.324  17.113  67.826  1.00  0.00    -0.202 A  
HETATM    4  C   UNL     1      -8.020  15.831  68.286  1.00  0.00    -0.130 A  
HETATM    5  C   UNL     1      -9.044  14.927  68.584  1.00  0.00    -0.185 A  
HETATM    6  O   UNL     1      -8.677  13.651  68.915  1.00  0.00    -0.371 OA 
HETATM    7  C   UNL     1     -10.389  15.305  68.481  1.00  0.00    -0.231 A  
HETATM    8  C   UNL     1      -9.655  17.515  67.744  1.00  0.00    -0.269 A  
HETATM    9  C   UNL     1     -10.679  16.617  68.065  1.00  0.00    -0.350 A  
HETATM   10  H   UNL     1      -9.373  13.038  69.117  1.00  0.00     0.000 HD 
BRANCH   7  11
HETATM   11  C   UNL     1     -11.553  14.401  68.704  1.00  0.00    -0.314 C  
HETATM   12  O   UNL     1     -11.951  13.708  67.764  1.00  0.00    -0.363 OA 
BRANCH  11  13
HETATM   13  C   UNL     1     -12.225  14.214  70.015  1.00  0.00    -0.418 A  
HETATM   14  C   UNL     1     -12.735  15.363  70.640  1.00  0.00    -0.490 A  
HETATM   15  C   UNL     1     -13.413  15.268  71.857  1.00  0.00    -0.547 A  
HETATM   16  C   UNL     1     -13.586  14.023  72.458  1.00  0.00    -0.670 A  
HETATM   17  C   UNL     1     -13.047  12.879  71.865  1.00  0.00    -0.474 A  
HETATM   18  C   UNL     1     -12.347  12.977  70.660  1.00  0.00    -0.310 A  
HETATM   19  O   UNL     1     -11.772  11.856  70.128  1.00  0.00    -0.432 OA 
HETATM   20  H   UNL     1     -11.854  11.017  70.565  1.00  0.00     0.000 HD 
ENDBRANCH  11  13
ENDBRANCH   7  11
ENDBRANCH   2   3
TORSDOF 3
ENDMDL
MODEL       64
REMARK 921   NORMALIZED FREE ENERGY PREDICTED BY IDOCK:   -5.35 KCAL/MOL
REMARK 922        TOTAL FREE ENERGY PREDICTED BY IDOCK:   -6.91 KCAL/MOL
REMARK 923 INTER-LIGAND FREE ENERGY PREDICTED BY IDOCK:   -6.08 KCAL/MOL
REMARK 924 INTRA-LIGAND FREE ENERGY PREDICTED BY IDOCK:   -0.83 KCAL/MOL
REMARK 927      BINDING AFFINITY PREDICTED BY RF-SCORE:    0.00 PKD
ROOT
HETATM    1  C   UNL     1     -11.605  12.522  69.125  1.00  0.00    -0.320 C  
HETATM    2  O   UNL     1     -12.152  13.145  67.964  1.00  0.00    -0.325 OA 
ENDROOT
BRANCH   2   3
HETATM    3  C   UNL     1     -11.690  14.411  67.728  1.00  0.00    -0.376 A  
HETATM    4  C   UNL     1     -11.411  14.923  66.460  1.00  0.00    -0.319 A  
HETATM    5  C   UNL     1     -10.872  16.205  66.319  1.00  0.00    -0.135 A  
HETATM    6  O   UNL     1     -10.511  16.598  65.059  1.00  0.00    -0.664 OA 
HETATM    7  C   UNL     1     -10.654  17.020  67.436  1.00  0.00    -0.289 A  
HETATM    8  C   UNL     1     -11.505  15.219  68.848  1.00  0.00    -0.346 A  
HETATM    9  C   UNL     1     -10.988  16.511  68.704  1.00  0.00    -0.344 A  
HETATM   10  H   UNL     1     -10.145  17.469  64.963  1.00  0.00     0.000 HD 
BRANCH   7  11
HETATM   11  C   UNL     1     -10.020  18.368  67.404  1.00  0.00    -0.334 C  
HETATM   12  O   UNL     1     -10.732  19.352  67.187  1.00  0.00    -0.455 OA 
BRANCH  11  13
HETATM   13  C   UNL     1      -8.586  18.624  67.698  1.00  0.00    -0.288 A  
HETATM   14  C   UNL     1      -8.291  19.302  68.891  1.00  0.00    -0.339 A  
HETATM   15  C   UNL     1      -6.966  19.548  69.259  1.00  0.00    -0.385 A  
HETATM   16  C   UNL     1      -5.928  19.119  68.436  1.00  0.00    -0.231 A  
HETATM   17  C   UNL     1      -6.212  18.480  67.226  1.00  0.00    -0.181 A  
HETATM   18  C   UNL     1      -7.537  18.255  66.846  1.00  0.00    -0.217 A  
HETATM   19  O   UNL     1      -7.796  17.685  65.630  1.00  0.00    -0.533 OA 
HETATM   20  H   UNL     1      -7.085  17.435  65.053  1.00  0.00     0.000 HD 
ENDBRANCH  11  13
ENDBRANCH   7  11
ENDBRANCH   2   3
TORSDOF 3
ENDMDL
MODEL       65
REMARK 921   NORMALIZED FREE ENERGY PREDICTED BY IDOCK:   -5.35 KCAL/MOL
REMARK 922        TOTAL FREE ENERGY PREDICTED BY IDOCK:   -6.91 KCAL/MOL
REMARK 923 INTER-LIGAND FREE ENERGY PREDICTED BY IDOCK:   -6.31 KCAL/MOL
REMARK 924 INTRA-LIGAND FREE ENERGY PREDICTED BY IDOCK:   -0.60 KCAL/MOL
REMARK 927      BINDING AFFINITY PREDICTED BY RF-SCORE:    0.00 PKD
ROOT
HETATM    1  C   UNL     1      -9.536   9.128  71.011  1.00  0.00    -0.280 C  
HETATM    2  O   UNL     1     -10.309   8.592  69.939  1.00  0.00    -0.199 OA 
ENDROOT
BRANCH   2   3
HETATM    3  C   UNL     1     -10.663   9.504  68.982  1.00  0.00    -0.202 A  
HETATM    4  C   UNL     1     -10.316   9.405  67.634  1.00  0.00    -0.303 A  
HETATM    5  C   UNL     1     -10.660  10.423  66.740  1.00  0.00    -0.205 A  
HETATM    6  O   UNL     1     -10.185  10.320  65.461  1.00  0.00    -0.284 OA 
HETATM    7  C   UNL     1     -11.405  11.530  67.163  1.00  0.00    -0.354 A  
HETATM    8  C   UNL     1     -11.429  10.585  69.415  1.00  0.00    -0.329 A  
HETATM    9  C   UNL     1     -11.794  11.591  68.513  1.00  0.00    -0.365 A  
HETATM   10  H   UNL     1     -10.419  11.011  64.853  1.00  0.00     0.000 HD 
BRANCH   7  11
HETATM   11  C   UNL     1     -11.762  12.700  66.312  1.00  0.00    -0.402 C  
HETATM   12  O   UNL     1     -12.641  12.564  65.457  1.00  0.00    -0.642 OA 
BRANCH  11  13
HETATM   13  C   UNL     1     -11.183  14.058  66.475  1.00  0.00    -0.326 A  
HETATM   14  C   UNL     1     -11.610  14.805  67.585  1.00  0.00    -0.374 A  
HETATM   15  C   UNL     1     -11.086  16.075  67.831  1.00  0.00    -0.307 A  
HETATM   16  C   UNL     1     -10.132  16.609  66.969  1.00  0.00    -0.281 A  
HETATM   17  C   UNL     1      -9.730  15.892  65.839  1.00  0.00    -0.386 A  
HETATM   18  C   UNL     1     -10.272  14.631  65.579  1.00  0.00    -0.370 A  
HETATM   19  O   UNL     1      -9.914  13.972  64.435  1.00  0.00    -0.702 OA 
HETATM   20  H   UNL     1      -9.296  14.361  63.827  1.00  0.00     0.000 HD 
ENDBRANCH  11  13
ENDBRANCH   7  11
ENDBRANCH   2   3
TORSDOF 3
ENDMDL
MODEL       66
REMARK 921   NORMALIZED FREE ENERGY PREDICTED BY IDOCK:   -5.35 KCAL/MOL
REMARK 922        TOTAL FREE ENERGY PREDICTED BY IDOCK:   -6.91 KCAL/MOL
REMARK 923 INTER-LIGAND FREE ENERGY PREDICTED BY IDOCK:   -5.97 KCAL/MOL
REMARK 924 INTRA-LIGAND FREE ENERGY PREDICTED BY IDOCK:   -0.94 KCAL/MOL
REMARK 927      BINDING AFFINITY PREDICTED BY RF-SCORE:    0.00 PKD
ROOT
HETATM    1  C   UNL     1     -11.917  14.917  69.474  1.00  0.00    -0.310 C  
HETATM    2  O   UNL     1     -11.818  15.491  68.172  1.00  0.00    -0.301 OA 
ENDROOT
BRANCH   2   3
HETATM    3  C   UNL     1     -11.559  14.592  67.173  1.00  0.00    -0.388 A  
HETATM    4  C   UNL     1     -12.530  14.054  66.328  1.00  0.00    -0.439 A  
HETATM    5  C   UNL     1     -12.185  13.086  65.381  1.00  0.00    -0.471 A  
HETATM    6  O   UNL     1     -13.204  12.514  64.669  1.00  0.00    -0.848 OA 
HETATM    7  C   UNL     1     -10.855  12.677  65.223  1.00  0.00    -0.319 A  
HETATM    8  C   UNL     1     -10.227  14.217  67.012  1.00  0.00    -0.260 A  
HETATM    9  C   UNL     1      -9.878  13.265  66.047  1.00  0.00    -0.271 A  
HETATM   10  H   UNL     1     -12.969  11.856  64.025  1.00  0.00     0.000 HD 
BRANCH   7  11
HETATM   11  C   UNL     1     -10.391  11.604  64.299  1.00  0.00    -0.322 C  
HETATM   12  O   UNL     1     -10.642  11.711  63.096  1.00  0.00    -0.347 OA 
BRANCH  11  13
HETATM   13  C   UNL     1      -9.569  10.439  64.718  1.00  0.00    -0.352 A  
HETATM   14  C   UNL     1     -10.051   9.669  65.788  1.00  0.00    -0.274 A  
HETATM   15  C   UNL     1      -9.356   8.537  66.218  1.00  0.00    -0.287 A  
HETATM   16  C   UNL     1      -8.174   8.167  65.582  1.00  0.00    -0.133 A  
HETATM   17  C   UNL     1      -7.663   8.950  64.543  1.00  0.00    -0.119 A  
HETATM   18  C   UNL     1      -8.346  10.097  64.129  1.00  0.00    -0.168 A  
HETATM   19  O   UNL     1      -7.798  10.885  63.154  1.00  0.00    -0.363 OA 
HETATM   20  H   UNL     1      -6.968  10.653  62.755  1.00  0.00     0.000 HD 
ENDBRANCH  11  13
ENDBRANCH   7  11
ENDBRANCH   2   3
TORSDOF 3
ENDMDL
MODEL       67
REMARK 921   NORMALIZED FREE ENERGY PREDICTED BY IDOCK:   -5.35 KCAL/MOL
REMARK 922        TOTAL FREE ENERGY PREDICTED BY IDOCK:   -6.91 KCAL/MOL
REMARK 923 INTER-LIGAND FREE ENERGY PREDICTED BY IDOCK:   -6.09 KCAL/MOL
REMARK 924 INTRA-LIGAND FREE ENERGY PREDICTED BY IDOCK:   -0.82 KCAL/MOL
REMARK 927      BINDING AFFINITY PREDICTED BY RF-SCORE:    0.00 PKD
ROOT
HETATM    1  C   UNL     1      -5.528  19.626  69.114  1.00  0.00    -0.199 C  
HETATM    2  O   UNL     1      -6.890  19.990  69.331  1.00  0.00    -0.311 OA 
ENDROOT
BRANCH   2   3
HETATM    3  C   UNL     1      -7.791  19.298  68.569  1.00  0.00    -0.348 A  
HETATM    4  C   UNL     1      -9.146  19.616  68.471  1.00  0.00    -0.368 A  
HETATM    5  C   UNL     1     -10.009  18.809  67.725  1.00  0.00    -0.350 A  
HETATM    6  O   UNL     1     -11.343  19.108  67.769  1.00  0.00    -0.166 OA 
HETATM    7  C   UNL     1      -9.525  17.702  67.017  1.00  0.00    -0.266 A  
HETATM    8  C   UNL     1      -7.287  18.217  67.849  1.00  0.00    -0.233 A  
HETATM    9  C   UNL     1      -8.148  17.423  67.082  1.00  0.00    -0.229 A  
HETATM   10  H   UNL     1     -11.929  18.560  67.262  1.00  0.00     0.000 HD 
BRANCH   7  11
HETATM   11  C   UNL     1     -10.366  16.737  66.253  1.00  0.00    -0.310 C  
HETATM   12  O   UNL     1     -10.654  17.002  65.083  1.00  0.00    -0.688 OA 
BRANCH  11  13
HETATM   13  C   UNL     1     -10.821  15.425  66.782  1.00  0.00    -0.306 A  
HETATM   14  C   UNL     1     -11.420  15.422  68.051  1.00  0.00    -0.333 A  
HETATM   15  C   UNL     1     -11.908  14.236  68.604  1.00  0.00    -0.379 A  
HETATM   16  C   UNL     1     -11.799  13.044  67.890  1.00  0.00    -0.389 A  
HETATM   17  C   UNL     1     -11.167  13.030  66.644  1.00  0.00    -0.341 A  
HETATM   18  C   UNL     1     -10.658  14.212  66.102  1.00  0.00    -0.293 A  
HETATM   19  O   UNL     1      -9.987  14.166  64.911  1.00  0.00    -0.577 OA 
HETATM   20  H   UNL     1      -9.876  13.343  64.451  1.00  0.00     0.000 HD 
ENDBRANCH  11  13
ENDBRANCH   7  11
ENDBRANCH   2   3
TORSDOF 3
ENDMDL
MODEL       68
REMARK 921   NORMALIZED FREE ENERGY PREDICTED BY IDOCK:   -5.33 KCAL/MOL
REMARK 922        TOTAL FREE ENERGY PREDICTED BY IDOCK:   -6.89 KCAL/MOL
REMARK 923 INTER-LIGAND FREE ENERGY PREDICTED BY IDOCK:   -6.08 KCAL/MOL
REMARK 924 INTRA-LIGAND FREE ENERGY PREDICTED BY IDOCK:   -0.81 KCAL/MOL
REMARK 927      BINDING AFFINITY PREDICTED BY RF-SCORE:    0.00 PKD
ROOT
HETATM    1  C   UNL     1      -6.315  20.053  70.082  1.00  0.00    -0.333 C  
HETATM    2  O   UNL     1      -6.492  19.643  68.727  1.00  0.00    -0.258 OA 
ENDROOT
BRANCH   2   3
HETATM    3  C   UNL     1      -7.607  18.882  68.504  1.00  0.00    -0.324 A  
HETATM    4  C   UNL     1      -8.814  19.380  68.011  1.00  0.00    -0.369 A  
HETATM    5  C   UNL     1      -9.924  18.541  67.883  1.00  0.00    -0.346 A  
HETATM    6  O   UNL     1     -11.107  19.119  67.509  1.00  0.00    -0.405 OA 
HETATM    7  C   UNL     1      -9.835  17.178  68.192  1.00  0.00    -0.281 A  
HETATM    8  C   UNL     1      -7.492  17.523  68.789  1.00  0.00    -0.258 A  
HETATM    9  C   UNL     1      -8.598  16.679  68.638  1.00  0.00    -0.253 A  
HETATM   10  H   UNL     1     -11.861  18.549  67.422  1.00  0.00     0.000 HD 
BRANCH   7  11
HETATM   11  C   UNL     1     -10.972  16.215  68.160  1.00  0.00    -0.341 C  
HETATM   12  O   UNL     1     -11.823  16.276  69.051  1.00  0.00    -0.267 OA 
BRANCH  11  13
HETATM   13  C   UNL     1     -11.199  15.227  67.074  1.00  0.00    -0.275 A  
HETATM   14  C   UNL     1     -10.701  15.553  65.802  1.00  0.00    -0.362 A  
HETATM   15  C   UNL     1     -10.840  14.662  64.736  1.00  0.00    -0.402 A  
HETATM   16  C   UNL     1     -11.479  13.440  64.933  1.00  0.00    -0.346 A  
HETATM   17  C   UNL     1     -12.015  13.125  66.185  1.00  0.00    -0.478 A  
HETATM   18  C   UNL     1     -11.897  14.026  67.245  1.00  0.00    -0.411 A  
HETATM   19  O   UNL     1     -12.483  13.727  68.445  1.00  0.00    -0.375 OA 
HETATM   20  H   UNL     1     -12.957  12.912  68.561  1.00  0.00     0.000 HD 
ENDBRANCH  11  13
ENDBRANCH   7  11
ENDBRANCH   2   3
TORSDOF 3
ENDMDL
MODEL       69
REMARK 921   NORMALIZED FREE ENERGY PREDICTED BY IDOCK:   -5.32 KCAL/MOL
REMARK 922        TOTAL FREE ENERGY PREDICTED BY IDOCK:   -6.88 KCAL/MOL
REMARK 923 INTER-LIGAND FREE ENERGY PREDICTED BY IDOCK:   -6.14 KCAL/MOL
REMARK 924 INTRA-LIGAND FREE ENERGY PREDICTED BY IDOCK:   -0.74 KCAL/MOL
REMARK 927      BINDING AFFINITY PREDICTED BY RF-SCORE:    0.00 PKD
ROOT
HETATM    1  C   UNL     1     -14.190  14.183  72.106  1.00  0.00    -0.546 C  
HETATM    2  O   UNL     1     -12.793  13.929  71.974  1.00  0.00    -0.326 OA 
ENDROOT
BRANCH   2   3
HETATM    3  C   UNL     1     -12.398  13.560  70.716  1.00  0.00    -0.363 A  
HETATM    4  C   UNL     1     -12.129  14.458  69.682  1.00  0.00    -0.381 A  
HETATM    5  C   UNL     1     -11.802  13.988  68.407  1.00  0.00    -0.362 A  
HETATM    6  O   UNL     1     -11.668  14.918  67.412  1.00  0.00    -0.356 OA 
HETATM    7  C   UNL     1     -11.684  12.616  68.155  1.00  0.00    -0.396 A  
HETATM    8  C   UNL     1     -12.258  12.193  70.491  1.00  0.00    -0.392 A  
HETATM    9  C   UNL     1     -11.907  11.724  69.220  1.00  0.00    -0.389 A  
HETATM   10  H   UNL     1     -11.446  14.598  66.546  1.00  0.00     0.000 HD 
BRANCH   7  11
HETATM   11  C   UNL     1     -11.412  12.009  66.821  1.00  0.00    -0.345 C  
HETATM   12  O   UNL     1     -12.144  12.310  65.875  1.00  0.00    -0.609 OA 
BRANCH  11  13
HETATM   13  C   UNL     1     -10.260  11.118  66.528  1.00  0.00    -0.275 A  
HETATM   14  C   UNL     1     -10.495   9.734  66.578  1.00  0.00    -0.212 A  
HETATM   15  C   UNL     1      -9.474   8.830  66.280  1.00  0.00    -0.300 A  
HETATM   16  C   UNL     1      -8.211   9.301  65.930  1.00  0.00    -0.116 A  
HETATM   17  C   UNL     1      -7.956  10.675  65.918  1.00  0.00    -0.157 A  
HETATM   18  C   UNL     1      -8.970  11.580  66.240  1.00  0.00    -0.196 A  
HETATM   19  O   UNL     1      -8.684  12.917  66.284  1.00  0.00    -0.420 OA 
HETATM   20  H   UNL     1      -7.810  13.230  66.089  1.00  0.00     0.000 HD 
ENDBRANCH  11  13
ENDBRANCH   7  11
ENDBRANCH   2   3
TORSDOF 3
ENDMDL
MODEL       70
REMARK 921   NORMALIZED FREE ENERGY PREDICTED BY IDOCK:   -5.31 KCAL/MOL
REMARK 922        TOTAL FREE ENERGY PREDICTED BY IDOCK:   -6.87 KCAL/MOL
REMARK 923 INTER-LIGAND FREE ENERGY PREDICTED BY IDOCK:   -6.52 KCAL/MOL
REMARK 924 INTRA-LIGAND FREE ENERGY PREDICTED BY IDOCK:   -0.35 KCAL/MOL
REMARK 927      BINDING AFFINITY PREDICTED BY RF-SCORE:    0.00 PKD
ROOT
HETATM    1  C   UNL     1      -9.918  11.163  63.166  1.00  0.00    -0.356 C  
HETATM    2  O   UNL     1     -10.806  12.236  63.474  1.00  0.00    -0.425 OA 
ENDROOT
BRANCH   2   3
HETATM    3  C   UNL     1     -11.142  12.334  64.796  1.00  0.00    -0.311 A  
HETATM    4  C   UNL     1     -11.747  13.451  65.373  1.00  0.00    -0.354 A  
HETATM    5  C   UNL     1     -11.989  13.492  66.749  1.00  0.00    -0.404 A  
HETATM    6  O   UNL     1     -12.473  14.663  67.266  1.00  0.00    -0.530 OA 
HETATM    7  C   UNL     1     -11.683  12.397  67.565  1.00  0.00    -0.425 A  
HETATM    8  C   UNL     1     -10.856  11.224  65.588  1.00  0.00    -0.242 A  
HETATM    9  C   UNL     1     -11.121  11.257  66.962  1.00  0.00    -0.356 A  
HETATM   10  H   UNL     1     -12.637  14.690  68.201  1.00  0.00     0.000 HD 
BRANCH   7  11
HETATM   11  C   UNL     1     -11.832  12.363  69.048  1.00  0.00    -0.300 C  
HETATM   12  O   UNL     1     -12.152  13.401  69.633  1.00  0.00    -0.312 OA 
BRANCH  11  13
HETATM   13  C   UNL     1     -11.700  11.134  69.872  1.00  0.00    -0.433 A  
HETATM   14  C   UNL     1     -12.863  10.659  70.499  1.00  0.00    -0.356 A  
HETATM   15  C   UNL     1     -12.832   9.489  71.261  1.00  0.00    -0.414 A  
HETATM   16  C   UNL     1     -11.638   8.787  71.403  1.00  0.00    -0.366 A  
HETATM   17  C   UNL     1     -10.466   9.274  70.818  1.00  0.00    -0.343 A  
HETATM   18  C   UNL     1     -10.492  10.457  70.075  1.00  0.00    -0.182 A  
HETATM   19  O   UNL     1      -9.323  10.951  69.565  1.00  0.00    -0.409 OA 
HETATM   20  H   UNL     1      -8.503  10.492  69.702  1.00  0.00     0.000 HD 
ENDBRANCH  11  13
ENDBRANCH   7  11
ENDBRANCH   2   3
TORSDOF 3
ENDMDL
MODEL       71
REMARK 921   NORMALIZED FREE ENERGY PREDICTED BY IDOCK:   -5.25 KCAL/MOL
REMARK 922        TOTAL FREE ENERGY PREDICTED BY IDOCK:   -6.80 KCAL/MOL
REMARK 923 INTER-LIGAND FREE ENERGY PREDICTED BY IDOCK:   -5.92 KCAL/MOL
REMARK 924 INTRA-LIGAND FREE ENERGY PREDICTED BY IDOCK:   -0.87 KCAL/MOL
REMARK 927      BINDING AFFINITY PREDICTED BY RF-SCORE:    0.00 PKD
ROOT
HETATM    1  C   UNL     1     -11.224  10.563  69.180  1.00  0.00    -0.256 C  
HETATM    2  O   UNL     1     -12.101  11.282  68.314  1.00  0.00    -0.619 OA 
ENDROOT
BRANCH   2   3
HETATM    3  C   UNL     1     -11.548  12.396  67.744  1.00  0.00    -0.352 A  
HETATM    4  C   UNL     1     -10.212  12.500  67.355  1.00  0.00    -0.217 A  
HETATM    5  C   UNL     1      -9.717  13.704  66.847  1.00  0.00    -0.262 A  
HETATM    6  O   UNL     1      -8.373  13.774  66.598  1.00  0.00    -0.425 OA 
HETATM    7  C   UNL     1     -10.558  14.809  66.666  1.00  0.00    -0.299 A  
HETATM    8  C   UNL     1     -12.406  13.476  67.545  1.00  0.00    -0.083 A  
HETATM    9  C   UNL     1     -11.914  14.673  67.013  1.00  0.00    -0.301 A  
HETATM   10  H   UNL     1      -8.036  14.592  66.253  1.00  0.00     0.000 HD 
BRANCH   7  11
HETATM   11  C   UNL     1     -10.118  16.155  66.202  1.00  0.00    -0.338 C  
HETATM   12  O   UNL     1     -10.262  16.446  65.011  1.00  0.00    -0.566 OA 
BRANCH  11  13
HETATM   13  C   UNL     1      -9.587  17.215  67.098  1.00  0.00    -0.255 A  
HETATM   14  C   UNL     1     -10.508  18.153  67.591  1.00  0.00    -0.432 A  
HETATM   15  C   UNL     1     -10.095  19.158  68.468  1.00  0.00    -0.499 A  
HETATM   16  C   UNL     1      -8.760  19.233  68.858  1.00  0.00    -0.334 A  
HETATM   17  C   UNL     1      -7.829  18.329  68.340  1.00  0.00    -0.318 A  
HETATM   18  C   UNL     1      -8.236  17.338  67.444  1.00  0.00    -0.191 A  
HETATM   19  O   UNL     1      -7.299  16.504  66.899  1.00  0.00    -0.179 OA 
HETATM   20  H   UNL     1      -6.383  16.587  67.134  1.00  0.00     0.000 HD 
ENDBRANCH  11  13
ENDBRANCH   7  11
ENDBRANCH   2   3
TORSDOF 3
ENDMDL
MODEL       72
REMARK 921   NORMALIZED FREE ENERGY PREDICTED BY IDOCK:   -5.24 KCAL/MOL
REMARK 922        TOTAL FREE ENERGY PREDICTED BY IDOCK:   -6.78 KCAL/MOL
REMARK 923 INTER-LIGAND FREE ENERGY PREDICTED BY IDOCK:   -6.01 KCAL/MOL
REMARK 924 INTRA-LIGAND FREE ENERGY PREDICTED BY IDOCK:   -0.77 KCAL/MOL
REMARK 927      BINDING AFFINITY PREDICTED BY RF-SCORE:    0.00 PKD
ROOT
HETATM    1  C   UNL     1      -7.522   8.492  62.591  1.00  0.00    -0.100 C  
HETATM    2  O   UNL     1      -7.272   9.604  63.448  1.00  0.00    -0.105 OA 
ENDROOT
BRANCH   2   3
HETATM    3  C   UNL     1      -8.398  10.199  63.950  1.00  0.00    -0.172 A  
HETATM    4  C   UNL     1      -9.493  10.588  63.177  1.00  0.00    -0.367 A  
HETATM    5  C   UNL     1     -10.571  11.255  63.766  1.00  0.00    -0.392 A  
HETATM    6  O   UNL     1     -11.554  11.715  62.933  1.00  0.00    -0.757 OA 
HETATM    7  C   UNL     1     -10.601  11.496  65.145  1.00  0.00    -0.350 A  
HETATM    8  C   UNL     1      -8.423  10.405  65.327  1.00  0.00    -0.173 A  
HETATM    9  C   UNL     1      -9.514  11.052  65.920  1.00  0.00    -0.244 A  
HETATM   10  H   UNL     1     -12.286  12.168  63.333  1.00  0.00     0.000 HD 
BRANCH   7  11
HETATM   11  C   UNL     1     -11.663  12.259  65.860  1.00  0.00    -0.389 C  
HETATM   12  O   UNL     1     -12.767  12.380  65.323  1.00  0.00    -0.617 OA 
BRANCH  11  13
HETATM   13  C   UNL     1     -11.510  12.823  67.226  1.00  0.00    -0.393 A  
HETATM   14  C   UNL     1     -10.879  14.073  67.332  1.00  0.00    -0.288 A  
HETATM   15  C   UNL     1     -10.729  14.689  68.576  1.00  0.00    -0.248 A  
HETATM   16  C   UNL     1     -11.208  14.059  69.723  1.00  0.00    -0.175 A  
HETATM   17  C   UNL     1     -11.800  12.797  69.632  1.00  0.00    -0.384 A  
HETATM   18  C   UNL     1     -11.928  12.170  68.391  1.00  0.00    -0.198 A  
HETATM   19  O   UNL     1     -12.452  10.908  68.331  1.00  0.00    -0.659 OA 
HETATM   20  H   UNL     1     -12.736  10.465  69.121  1.00  0.00     0.000 HD 
ENDBRANCH  11  13
ENDBRANCH   7  11
ENDBRANCH   2   3
TORSDOF 3
ENDMDL
MODEL       73
REMARK 921   NORMALIZED FREE ENERGY PREDICTED BY IDOCK:   -5.23 KCAL/MOL
REMARK 922        TOTAL FREE ENERGY PREDICTED BY IDOCK:   -6.78 KCAL/MOL
REMARK 923 INTER-LIGAND FREE ENERGY PREDICTED BY IDOCK:   -5.87 KCAL/MOL
REMARK 924 INTRA-LIGAND FREE ENERGY PREDICTED BY IDOCK:   -0.90 KCAL/MOL
REMARK 927      BINDING AFFINITY PREDICTED BY RF-SCORE:    0.00 PKD
ROOT
HETATM    1  C   UNL     1     -14.411  15.297  71.850  1.00  0.00    -0.589 C  
HETATM    2  O   UNL     1     -13.666  14.271  72.502  1.00  0.00    -0.468 OA 
ENDROOT
BRANCH   2   3
HETATM    3  C   UNL     1     -13.004  13.423  71.656  1.00  0.00    -0.355 A  
HETATM    4  C   UNL     1     -12.254  13.839  70.555  1.00  0.00    -0.440 A  
HETATM    5  C   UNL     1     -11.671  12.898  69.702  1.00  0.00    -0.299 A  
HETATM    6  O   UNL     1     -11.052  13.370  68.577  1.00  0.00    -0.246 OA 
HETATM    7  C   UNL     1     -11.779  11.526  69.963  1.00  0.00    -0.414 A  
HETATM    8  C   UNL     1     -13.099  12.064  71.947  1.00  0.00    -0.475 A  
HETATM    9  C   UNL     1     -12.494  11.123  71.106  1.00  0.00    -0.498 A  
HETATM   10  H   UNL     1     -10.655  12.730  67.998  1.00  0.00     0.000 HD 
BRANCH   7  11
HETATM   11  C   UNL     1     -11.260  10.442  69.083  1.00  0.00    -0.246 C  
HETATM   12  O   UNL     1     -11.621  10.413  67.904  1.00  0.00    -0.406 OA 
BRANCH  11  13
HETATM   13  C   UNL     1     -10.262   9.426  69.510  1.00  0.00    -0.219 A  
HETATM   14  C   UNL     1      -9.210   9.870  70.326  1.00  0.00    -0.123 A  
HETATM   15  C   UNL     1      -8.251   8.972  70.800  1.00  0.00    -0.213 A  
HETATM   16  C   UNL     1      -8.338   7.624  70.461  1.00  0.00    -0.126 A  
HETATM   17  C   UNL     1      -9.358   7.179  69.615  1.00  0.00    -0.149 A  
HETATM   18  C   UNL     1     -10.303   8.082  69.121  1.00  0.00    -0.220 A  
HETATM   19  O   UNL     1     -11.255   7.640  68.244  1.00  0.00    -0.386 OA 
HETATM   20  H   UNL     1     -11.282   6.728  67.981  1.00  0.00     0.000 HD 
ENDBRANCH  11  13
ENDBRANCH   7  11
ENDBRANCH   2   3
TORSDOF 3
ENDMDL
MODEL       74
REMARK 921   NORMALIZED FREE ENERGY PREDICTED BY IDOCK:   -5.22 KCAL/MOL
REMARK 922        TOTAL FREE ENERGY PREDICTED BY IDOCK:   -6.75 KCAL/MOL
REMARK 923 INTER-LIGAND FREE ENERGY PREDICTED BY IDOCK:   -5.92 KCAL/MOL
REMARK 924 INTRA-LIGAND FREE ENERGY PREDICTED BY IDOCK:   -0.84 KCAL/MOL
REMARK 927      BINDING AFFINITY PREDICTED BY RF-SCORE:    0.00 PKD
ROOT
HETATM    1  C   UNL     1     -12.045  14.060  64.345  1.00  0.00    -0.458 C  
HETATM    2  O   UNL     1     -12.541  14.147  65.679  1.00  0.00    -0.487 OA 
ENDROOT
BRANCH   2   3
HETATM    3  C   UNL     1     -11.979  13.258  66.554  1.00  0.00    -0.391 A  
HETATM    4  C   UNL     1     -11.988  13.408  67.941  1.00  0.00    -0.360 A  
HETATM    5  C   UNL     1     -11.324  12.486  68.755  1.00  0.00    -0.293 A  
HETATM    6  O   UNL     1     -11.271  12.758  70.096  1.00  0.00    -0.460 OA 
HETATM    7  C   UNL     1     -10.686  11.368  68.204  1.00  0.00    -0.241 A  
HETATM    8  C   UNL     1     -11.373  12.138  65.990  1.00  0.00    -0.410 A  
HETATM    9  C   UNL     1     -10.729  11.202  66.808  1.00  0.00    -0.326 A  
HETATM   10  H   UNL     1     -10.820  12.131  70.649  1.00  0.00     0.000 HD 
BRANCH   7  11
HETATM   11  C   UNL     1      -9.892  10.368  68.971  1.00  0.00    -0.212 C  
HETATM   12  O   UNL     1      -8.744  10.663  69.315  1.00  0.00    -0.149 OA 
BRANCH  11  13
HETATM   13  C   UNL     1     -10.419   9.056  69.428  1.00  0.00    -0.229 A  
HETATM   14  C   UNL     1     -10.243   7.963  68.565  1.00  0.00    -0.229 A  
HETATM   15  C   UNL     1     -10.677   6.688  68.936  1.00  0.00    -0.304 A  
HETATM   16  C   UNL     1     -11.289   6.498  70.172  1.00  0.00    -0.463 A  
HETATM   17  C   UNL     1     -11.506   7.587  71.020  1.00  0.00    -0.299 A  
HETATM   18  C   UNL     1     -11.094   8.866  70.639  1.00  0.00    -0.262 A  
HETATM   19  O   UNL     1     -11.373   9.928  71.455  1.00  0.00    -0.343 OA 
HETATM   20  H   UNL     1     -11.831   9.799  72.277  1.00  0.00     0.000 HD 
ENDBRANCH  11  13
ENDBRANCH   7  11
ENDBRANCH   2   3
TORSDOF 3
ENDMDL
MODEL       75
REMARK 921   NORMALIZED FREE ENERGY PREDICTED BY IDOCK:   -5.20 KCAL/MOL
REMARK 922        TOTAL FREE ENERGY PREDICTED BY IDOCK:   -6.73 KCAL/MOL
REMARK 923 INTER-LIGAND FREE ENERGY PREDICTED BY IDOCK:   -6.06 KCAL/MOL
REMARK 924 INTRA-LIGAND FREE ENERGY PREDICTED BY IDOCK:   -0.67 KCAL/MOL
REMARK 927      BINDING AFFINITY PREDICTED BY RF-SCORE:    0.00 PKD
ROOT
HETATM    1  C   UNL     1     -11.271  15.078  66.475  1.00  0.00    -0.312 C  
HETATM    2  O   UNL     1     -12.307  14.132  66.735  1.00  0.00    -0.438 OA 
ENDROOT
BRANCH   2   3
HETATM    3  C   UNL     1     -11.931  13.081  67.526  1.00  0.00    -0.306 A  
HETATM    4  C   UNL     1     -11.608  11.812  67.046  1.00  0.00    -0.321 A  
HETATM    5  C   UNL     1     -11.306  10.777  67.936  1.00  0.00    -0.299 A  
HETATM    6  O   UNL     1     -11.116   9.530  67.405  1.00  0.00    -0.399 OA 
HETATM    7  C   UNL     1     -11.267  11.004  69.317  1.00  0.00    -0.321 A  
HETATM    8  C   UNL     1     -11.871  13.332  68.895  1.00  0.00    -0.367 A  
HETATM    9  C   UNL     1     -11.544  12.301  69.783  1.00  0.00    -0.314 A  
HETATM   10  H   UNL     1     -10.910   8.827  68.009  1.00  0.00     0.000 HD 
BRANCH   7  11
HETATM   11  C   UNL     1     -11.028   9.958  70.352  1.00  0.00    -0.318 C  
HETATM   12  O   UNL     1      -9.878   9.789  70.767  1.00  0.00    -0.218 OA 
BRANCH  11  13
HETATM   13  C   UNL     1     -12.102   9.151  70.986  1.00  0.00    -0.324 A  
HETATM   14  C   UNL     1     -13.106   9.852  71.672  1.00  0.00    -0.538 A  
HETATM   15  C   UNL     1     -14.171   9.170  72.264  1.00  0.00    -0.370 A  
HETATM   16  C   UNL     1     -14.239   7.781  72.174  1.00  0.00    -0.328 A  
HETATM   17  C   UNL     1     -13.223   7.071  71.529  1.00  0.00    -0.382 A  
HETATM   18  C   UNL     1     -12.145   7.752  70.958  1.00  0.00    -0.244 A  
HETATM   19  O   UNL     1     -11.130   7.035  70.387  1.00  0.00    -0.262 OA 
HETATM   20  H   UNL     1     -11.159   6.087  70.368  1.00  0.00     0.000 HD 
ENDBRANCH  11  13
ENDBRANCH   7  11
ENDBRANCH   2   3
TORSDOF 3
ENDMDL
MODEL       76
REMARK 921   NORMALIZED FREE ENERGY PREDICTED BY IDOCK:   -5.18 KCAL/MOL
REMARK 922        TOTAL FREE ENERGY PREDICTED BY IDOCK:   -6.71 KCAL/MOL
REMARK 923 INTER-LIGAND FREE ENERGY PREDICTED BY IDOCK:   -6.08 KCAL/MOL
REMARK 924 INTRA-LIGAND FREE ENERGY PREDICTED BY IDOCK:   -0.64 KCAL/MOL
REMARK 927      BINDING AFFINITY PREDICTED BY RF-SCORE:    0.00 PKD
ROOT
HETATM    1  C   UNL     1      -9.850   5.904  72.546  1.00  0.00    -0.161 C  
HETATM    2  O   UNL     1      -9.561   7.221  73.014  1.00  0.00    -0.150 OA 
ENDROOT
BRANCH   2   3
HETATM    3  C   UNL     1     -10.209   8.219  72.338  1.00  0.00    -0.327 A  
HETATM    4  C   UNL     1     -11.546   8.565  72.538  1.00  0.00    -0.376 A  
HETATM    5  C   UNL     1     -12.146   9.551  71.750  1.00  0.00    -0.384 A  
HETATM    6  O   UNL     1     -13.488   9.756  71.917  1.00  0.00    -0.402 OA 
HETATM    7  C   UNL     1     -11.408  10.247  70.785  1.00  0.00    -0.421 A  
HETATM    8  C   UNL     1      -9.453   8.920  71.402  1.00  0.00    -0.344 A  
HETATM    9  C   UNL     1     -10.048   9.924  70.629  1.00  0.00    -0.146 A  
HETATM   10  H   UNL     1     -13.896  10.426  71.382  1.00  0.00     0.000 HD 
BRANCH   7  11
HETATM   11  C   UNL     1     -11.966  11.261  69.846  1.00  0.00    -0.365 C  
HETATM   12  O   UNL     1     -12.509  10.871  68.809  1.00  0.00    -0.431 OA 
BRANCH  11  13
HETATM   13  C   UNL     1     -11.986  12.723  70.111  1.00  0.00    -0.371 A  
HETATM   14  C   UNL     1     -11.184  13.531  69.289  1.00  0.00    -0.285 A  
HETATM   15  C   UNL     1     -11.175  14.918  69.449  1.00  0.00    -0.302 A  
HETATM   16  C   UNL     1     -11.966  15.507  70.432  1.00  0.00    -0.398 A  
HETATM   17  C   UNL     1     -12.736  14.709  71.282  1.00  0.00    -0.402 A  
HETATM   18  C   UNL     1     -12.727  13.319  71.138  1.00  0.00    -0.320 A  
HETATM   19  O   UNL     1     -13.436  12.552  72.020  1.00  0.00    -0.493 OA 
HETATM   20  H   UNL     1     -13.939  12.956  72.717  1.00  0.00     0.000 HD 
ENDBRANCH  11  13
ENDBRANCH   7  11
ENDBRANCH   2   3
TORSDOF 3
ENDMDL
MODEL       77
REMARK 921   NORMALIZED FREE ENERGY PREDICTED BY IDOCK:   -5.18 KCAL/MOL
REMARK 922        TOTAL FREE ENERGY PREDICTED BY IDOCK:   -6.71 KCAL/MOL
REMARK 923 INTER-LIGAND FREE ENERGY PREDICTED BY IDOCK:   -5.77 KCAL/MOL
REMARK 924 INTRA-LIGAND FREE ENERGY PREDICTED BY IDOCK:   -0.94 KCAL/MOL
REMARK 927      BINDING AFFINITY PREDICTED BY RF-SCORE:    0.00 PKD
ROOT
HETATM    1  C   UNL     1     -10.995   5.559  73.550  1.00  0.00    -0.240 C  
HETATM    2  O   UNL     1     -10.467   6.865  73.774  1.00  0.00    -0.342 OA 
ENDROOT
BRANCH   2   3
HETATM    3  C   UNL     1     -10.821   7.791  72.831  1.00  0.00    -0.392 A  
HETATM    4  C   UNL     1     -12.138   8.104  72.493  1.00  0.00    -0.377 A  
HETATM    5  C   UNL     1     -12.406   9.012  71.464  1.00  0.00    -0.331 A  
HETATM    6  O   UNL     1     -13.715   9.183  71.104  1.00  0.00    -0.563 OA 
HETATM    7  C   UNL     1     -11.366   9.665  70.793  1.00  0.00    -0.409 A  
HETATM    8  C   UNL     1      -9.774   8.452  72.192  1.00  0.00    -0.370 A  
HETATM    9  C   UNL     1     -10.044   9.379  71.179  1.00  0.00    -0.335 A  
HETATM   10  H   UNL     1     -13.897   9.800  70.405  1.00  0.00     0.000 HD 
BRANCH   7  11
HETATM   11  C   UNL     1     -11.538  10.592  69.638  1.00  0.00    -0.296 C  
HETATM   12  O   UNL     1     -12.404  11.468  69.707  1.00  0.00    -0.240 OA 
BRANCH  11  13
HETATM   13  C   UNL     1     -10.675  10.588  68.428  1.00  0.00    -0.262 A  
HETATM   14  C   UNL     1     -10.699   9.432  67.632  1.00  0.00    -0.295 A  
HETATM   15  C   UNL     1      -9.946   9.362  66.459  1.00  0.00    -0.339 A  
HETATM   16  C   UNL     1      -9.162  10.448  66.073  1.00  0.00    -0.200 A  
HETATM   17  C   UNL     1      -9.099  11.587  66.880  1.00  0.00    -0.181 A  
HETATM   18  C   UNL     1      -9.834  11.647  68.067  1.00  0.00    -0.190 A  
HETATM   19  O   UNL     1      -9.710  12.744  68.874  1.00  0.00    -0.411 OA 
HETATM   20  H   UNL     1      -9.139  13.462  68.629  1.00  0.00     0.000 HD 
ENDBRANCH  11  13
ENDBRANCH   7  11
ENDBRANCH   2   3
TORSDOF 3
ENDMDL
MODEL       78
REMARK 921   NORMALIZED FREE ENERGY PREDICTED BY IDOCK:   -5.18 KCAL/MOL
REMARK 922        TOTAL FREE ENERGY PREDICTED BY IDOCK:   -6.71 KCAL/MOL
REMARK 923 INTER-LIGAND FREE ENERGY PREDICTED BY IDOCK:   -6.31 KCAL/MOL
REMARK 924 INTRA-LIGAND FREE ENERGY PREDICTED BY IDOCK:   -0.40 KCAL/MOL
REMARK 927      BINDING AFFINITY PREDICTED BY RF-SCORE:    0.00 PKD
ROOT
HETATM    1  C   UNL     1      -9.987  11.806  63.265  1.00  0.00    -0.410 C  
HETATM    2  O   UNL     1     -10.008  11.739  64.689  1.00  0.00    -0.249 OA 
ENDROOT
BRANCH   2   3
HETATM    3  C   UNL     1     -10.267  12.930  65.312  1.00  0.00    -0.278 A  
HETATM    4  C   UNL     1     -10.572  14.116  64.643  1.00  0.00    -0.391 A  
HETATM    5  C   UNL     1     -10.751  15.303  65.358  1.00  0.00    -0.391 A  
HETATM    6  O   UNL     1     -10.928  16.451  64.634  1.00  0.00    -0.760 OA 
HETATM    7  C   UNL     1     -10.684  15.317  66.757  1.00  0.00    -0.313 A  
HETATM    8  C   UNL     1     -10.225  12.919  66.704  1.00  0.00    -0.251 A  
HETATM    9  C   UNL     1     -10.428  14.104  67.421  1.00  0.00    -0.271 A  
HETATM   10  H   UNL     1     -11.050  17.257  65.120  1.00  0.00     0.000 HD 
BRANCH   7  11
HETATM   11  C   UNL     1     -10.787  16.536  67.609  1.00  0.00    -0.269 C  
HETATM   12  O   UNL     1     -11.585  16.533  68.549  1.00  0.00    -0.252 OA 
BRANCH  11  13
HETATM   13  C   UNL     1      -9.929  17.738  67.453  1.00  0.00    -0.323 A  
HETATM   14  C   UNL     1     -10.524  18.877  66.886  1.00  0.00    -0.496 A  
HETATM   15  C   UNL     1      -9.796  20.060  66.739  1.00  0.00    -0.574 A  
HETATM   16  C   UNL     1      -8.468  20.112  67.157  1.00  0.00    -0.403 A  
HETATM   17  C   UNL     1      -7.855  18.972  67.683  1.00  0.00    -0.269 A  
HETATM   18  C   UNL     1      -8.575  17.782  67.808  1.00  0.00    -0.237 A  
HETATM   19  O   UNL     1      -7.940  16.661  68.266  1.00  0.00    -0.178 OA 
HETATM   20  H   UNL     1      -7.022  16.690  68.507  1.00  0.00     0.000 HD 
ENDBRANCH  11  13
ENDBRANCH   7  11
ENDBRANCH   2   3
TORSDOF 3
ENDMDL
MODEL       79
REMARK 921   NORMALIZED FREE ENERGY PREDICTED BY IDOCK:   -5.17 KCAL/MOL
REMARK 922        TOTAL FREE ENERGY PREDICTED BY IDOCK:   -6.70 KCAL/MOL
REMARK 923 INTER-LIGAND FREE ENERGY PREDICTED BY IDOCK:   -6.43 KCAL/MOL
REMARK 924 INTRA-LIGAND FREE ENERGY PREDICTED BY IDOCK:   -0.27 KCAL/MOL
REMARK 927      BINDING AFFINITY PREDICTED BY RF-SCORE:    0.00 PKD
ROOT
HETATM    1  C   UNL     1     -11.892  16.233  71.296  1.00  0.00    -0.299 C  
HETATM    2  O   UNL     1     -13.018  15.424  70.961  1.00  0.00    -0.432 OA 
ENDROOT
BRANCH   2   3
HETATM    3  C   UNL     1     -12.728  14.101  70.762  1.00  0.00    -0.344 A  
HETATM    4  C   UNL     1     -13.188  13.064  71.574  1.00  0.00    -0.360 A  
HETATM    5  C   UNL     1     -12.782  11.748  71.338  1.00  0.00    -0.308 A  
HETATM    6  O   UNL     1     -13.173  10.799  72.242  1.00  0.00    -0.605 OA 
HETATM    7  C   UNL     1     -11.953  11.436  70.253  1.00  0.00    -0.460 A  
HETATM    8  C   UNL     1     -11.926  13.806  69.662  1.00  0.00    -0.399 A  
HETATM    9  C   UNL     1     -11.539  12.484  69.412  1.00  0.00    -0.368 A  
HETATM   10  H   UNL     1     -12.897   9.905  72.081  1.00  0.00     0.000 HD 
BRANCH   7  11
HETATM   11  C   UNL     1     -11.405  10.083  69.954  1.00  0.00    -0.250 C  
HETATM   12  O   UNL     1     -11.168   9.787  68.780  1.00  0.00    -0.144 OA 
BRANCH  11  13
HETATM   13  C   UNL     1     -11.041   9.082  70.990  1.00  0.00    -0.356 A  
HETATM   14  C   UNL     1      -9.751   9.169  71.537  1.00  0.00    -0.313 A  
HETATM   15  C   UNL     1      -9.345   8.289  72.542  1.00  0.00    -0.350 A  
HETATM   16  C   UNL     1     -10.225   7.315  73.007  1.00  0.00    -0.313 A  
HETATM   17  C   UNL     1     -11.497   7.193  72.441  1.00  0.00    -0.303 A  
HETATM   18  C   UNL     1     -11.895   8.058  71.418  1.00  0.00    -0.295 A  
HETATM   19  O   UNL     1     -13.118   7.882  70.833  1.00  0.00    -0.530 OA 
HETATM   20  H   UNL     1     -13.697   7.187  71.123  1.00  0.00     0.000 HD 
ENDBRANCH  11  13
ENDBRANCH   7  11
ENDBRANCH   2   3
TORSDOF 3
ENDMDL
MODEL       80
REMARK 921   NORMALIZED FREE ENERGY PREDICTED BY IDOCK:   -5.16 KCAL/MOL
REMARK 922        TOTAL FREE ENERGY PREDICTED BY IDOCK:   -6.69 KCAL/MOL
REMARK 923 INTER-LIGAND FREE ENERGY PREDICTED BY IDOCK:   -5.94 KCAL/MOL
REMARK 924 INTRA-LIGAND FREE ENERGY PREDICTED BY IDOCK:   -0.75 KCAL/MOL
REMARK 927      BINDING AFFINITY PREDICTED BY RF-SCORE:    0.00 PKD
ROOT
HETATM    1  C   UNL     1     -10.197   6.690  70.569  1.00  0.00    -0.189 C  
HETATM    2  O   UNL     1     -11.286   7.278  71.277  1.00  0.00    -0.252 OA 
ENDROOT
BRANCH   2   3
HETATM    3  C   UNL     1     -11.455   8.617  71.052  1.00  0.00    -0.278 A  
HETATM    4  C   UNL     1     -12.333   9.430  71.768  1.00  0.00    -0.471 A  
HETATM    5  C   UNL     1     -12.493  10.775  71.420  1.00  0.00    -0.373 A  
HETATM    6  O   UNL     1     -13.457  11.484  72.084  1.00  0.00    -0.545 OA 
HETATM    7  C   UNL     1     -11.739  11.344  70.387  1.00  0.00    -0.362 A  
HETATM    8  C   UNL     1     -10.676   9.173  70.039  1.00  0.00    -0.254 A  
HETATM    9  C   UNL     1     -10.820  10.525  69.707  1.00  0.00    -0.335 A  
HETATM   10  H   UNL     1     -13.565  12.397  71.847  1.00  0.00     0.000 HD 
BRANCH   7  11
HETATM   11  C   UNL     1     -11.884  12.742  69.889  1.00  0.00    -0.301 C  
HETATM   12  O   UNL     1     -12.379  13.588  70.638  1.00  0.00    -0.345 OA 
BRANCH  11  13
HETATM   13  C   UNL     1     -11.393  13.212  68.568  1.00  0.00    -0.321 A  
HETATM   14  C   UNL     1     -11.936  12.595  67.430  1.00  0.00    -0.309 A  
HETATM   15  C   UNL     1     -11.555  13.005  66.150  1.00  0.00    -0.412 A  
HETATM   16  C   UNL     1     -10.629  14.034  66.000  1.00  0.00    -0.297 A  
HETATM   17  C   UNL     1     -10.052  14.627  67.126  1.00  0.00    -0.244 A  
HETATM   18  C   UNL     1     -10.414  14.200  68.406  1.00  0.00    -0.254 A  
HETATM   19  O   UNL     1      -9.792  14.748  69.494  1.00  0.00    -0.400 OA 
HETATM   20  H   UNL     1      -9.128  15.418  69.384  1.00  0.00     0.000 HD 
ENDBRANCH  11  13
ENDBRANCH   7  11
ENDBRANCH   2   3
TORSDOF 3
ENDMDL
MODEL       81
REMARK 921   NORMALIZED FREE ENERGY PREDICTED BY IDOCK:   -5.15 KCAL/MOL
REMARK 922        TOTAL FREE ENERGY PREDICTED BY IDOCK:   -6.68 KCAL/MOL
REMARK 923 INTER-LIGAND FREE ENERGY PREDICTED BY IDOCK:   -5.80 KCAL/MOL
REMARK 924 INTRA-LIGAND FREE ENERGY PREDICTED BY IDOCK:   -0.88 KCAL/MOL
REMARK 927      BINDING AFFINITY PREDICTED BY RF-SCORE:    0.00 PKD
ROOT
HETATM    1  C   UNL     1     -11.882  11.195  68.190  1.00  0.00    -0.164 C  
HETATM    2  O   UNL     1     -11.949  12.181  67.162  1.00  0.00    -0.580 OA 
ENDROOT
BRANCH   2   3
HETATM    3  C   UNL     1     -10.991  13.155  67.246  1.00  0.00    -0.268 A  
HETATM    4  C   UNL     1     -10.133  13.322  68.334  1.00  0.00    -0.237 A  
HETATM    5  C   UNL     1      -9.233  14.391  68.365  1.00  0.00    -0.195 A  
HETATM    6  O   UNL     1      -8.506  14.564  69.511  1.00  0.00    -0.381 OA 
HETATM    7  C   UNL     1      -9.135  15.280  67.289  1.00  0.00    -0.210 A  
HETATM    8  C   UNL     1     -10.889  14.014  66.154  1.00  0.00    -0.291 A  
HETATM    9  C   UNL     1      -9.971  15.070  66.177  1.00  0.00    -0.313 A  
HETATM   10  H   UNL     1      -7.894  15.291  69.533  1.00  0.00     0.000 HD 
BRANCH   7  11
HETATM   11  C   UNL     1      -8.265  16.490  67.251  1.00  0.00    -0.173 C  
HETATM   12  O   UNL     1      -7.042  16.337  67.205  1.00  0.00    -0.153 OA 
BRANCH  11  13
HETATM   13  C   UNL     1      -8.776  17.884  67.182  1.00  0.00    -0.248 A  
HETATM   14  C   UNL     1      -9.863  18.206  68.010  1.00  0.00    -0.331 A  
HETATM   15  C   UNL     1     -10.378  19.504  68.032  1.00  0.00    -0.564 A  
HETATM   16  C   UNL     1      -9.810  20.488  67.226  1.00  0.00    -0.581 A  
HETATM   17  C   UNL     1      -8.755  20.167  66.368  1.00  0.00    -0.317 A  
HETATM   18  C   UNL     1      -8.255  18.863  66.328  1.00  0.00    -0.268 A  
HETATM   19  O   UNL     1      -7.265  18.554  65.436  1.00  0.00    -0.530 OA 
HETATM   20  H   UNL     1      -6.912  19.219  64.857  1.00  0.00     0.000 HD 
ENDBRANCH  11  13
ENDBRANCH   7  11
ENDBRANCH   2   3
TORSDOF 3
ENDMDL
MODEL       82
REMARK 921   NORMALIZED FREE ENERGY PREDICTED BY IDOCK:   -5.14 KCAL/MOL
REMARK 922        TOTAL FREE ENERGY PREDICTED BY IDOCK:   -6.66 KCAL/MOL
REMARK 923 INTER-LIGAND FREE ENERGY PREDICTED BY IDOCK:   -5.73 KCAL/MOL
REMARK 924 INTRA-LIGAND FREE ENERGY PREDICTED BY IDOCK:   -0.93 KCAL/MOL
REMARK 927      BINDING AFFINITY PREDICTED BY RF-SCORE:    0.00 PKD
ROOT
HETATM    1  C   UNL     1     -12.260  14.716  64.419  1.00  0.00    -0.452 C  
HETATM    2  O   UNL     1     -12.810  13.463  64.820  1.00  0.00    -0.680 OA 
ENDROOT
BRANCH   2   3
HETATM    3  C   UNL     1     -11.881  12.516  65.157  1.00  0.00    -0.405 A  
HETATM    4  C   UNL     1     -11.207  11.713  64.237  1.00  0.00    -0.392 A  
HETATM    5  C   UNL     1     -10.327  10.720  64.677  1.00  0.00    -0.324 A  
HETATM    6  O   UNL     1      -9.793   9.891  63.729  1.00  0.00    -0.482 OA 
HETATM    7  C   UNL     1     -10.061  10.549  66.041  1.00  0.00    -0.317 A  
HETATM    8  C   UNL     1     -11.608  12.378  66.516  1.00  0.00    -0.447 A  
HETATM    9  C   UNL     1     -10.709  11.400  66.955  1.00  0.00    -0.308 A  
HETATM   10  H   UNL     1      -9.195   9.217  64.028  1.00  0.00     0.000 HD 
BRANCH   7  11
HETATM   11  C   UNL     1      -9.200   9.479  66.619  1.00  0.00    -0.152 C  
HETATM   12  O   UNL     1      -8.004   9.455  66.317  1.00  0.00    -0.109 OA 
BRANCH  11  13
HETATM   13  C   UNL     1      -9.668   8.475  67.609  1.00  0.00    -0.201 A  
HETATM   14  C   UNL     1     -10.650   7.567  67.181  1.00  0.00    -0.415 A  
HETATM   15  C   UNL     1     -11.116   6.569  68.039  1.00  0.00    -0.332 A  
HETATM   16  C   UNL     1     -10.604   6.471  69.331  1.00  0.00    -0.291 A  
HETATM   17  C   UNL     1      -9.657   7.395  69.780  1.00  0.00    -0.163 A  
HETATM   18  C   UNL     1      -9.208   8.409  68.930  1.00  0.00    -0.147 A  
HETATM   19  O   UNL     1      -8.329   9.341  69.408  1.00  0.00    -0.115 OA 
HETATM   20  H   UNL     1      -8.017   9.296  70.304  1.00  0.00     0.000 HD 
ENDBRANCH  11  13
ENDBRANCH   7  11
ENDBRANCH   2   3
TORSDOF 3
ENDMDL
MODEL       83
REMARK 921   NORMALIZED FREE ENERGY PREDICTED BY IDOCK:   -5.14 KCAL/MOL
REMARK 922        TOTAL FREE ENERGY PREDICTED BY IDOCK:   -6.66 KCAL/MOL
REMARK 923 INTER-LIGAND FREE ENERGY PREDICTED BY IDOCK:   -6.89 KCAL/MOL
REMARK 924 INTRA-LIGAND FREE ENERGY PREDICTED BY IDOCK:    0.24 KCAL/MOL
REMARK 927      BINDING AFFINITY PREDICTED BY RF-SCORE:    0.00 PKD
ROOT
HETATM    1  C   UNL     1     -10.002  10.800  63.246  1.00  0.00    -0.315 C  
HETATM    2  O   UNL     1     -11.298  11.287  63.591  1.00  0.00    -0.325 OA 
ENDROOT
BRANCH   2   3
HETATM    3  C   UNL     1     -11.294  12.357  64.444  1.00  0.00    -0.340 A  
HETATM    4  C   UNL     1     -11.312  13.690  64.034  1.00  0.00    -0.247 A  
HETATM    5  C   UNL     1     -11.233  14.720  64.976  1.00  0.00    -0.395 A  
HETATM    6  O   UNL     1     -11.134  15.999  64.500  1.00  0.00    -0.790 OA 
HETATM    7  C   UNL     1     -11.190  14.439  66.347  1.00  0.00    -0.345 A  
HETATM    8  C   UNL     1     -11.280  12.059  65.805  1.00  0.00    -0.383 A  
HETATM    9  C   UNL     1     -11.225  13.091  66.749  1.00  0.00    -0.333 A  
HETATM   10  H   UNL     1     -11.080  16.698  65.140  1.00  0.00     0.000 HD 
BRANCH   7  11
HETATM   11  C   UNL     1     -11.033  15.454  67.427  1.00  0.00    -0.312 C  
HETATM   12  O   UNL     1     -10.617  16.576  67.127  1.00  0.00    -0.314 OA 
BRANCH  11  13
HETATM   13  C   UNL     1     -11.422  15.232  68.844  1.00  0.00    -0.346 A  
HETATM   14  C   UNL     1     -12.012  13.997  69.157  1.00  0.00    -0.400 A  
HETATM   15  C   UNL     1     -12.373  13.696  70.472  1.00  0.00    -0.425 A  
HETATM   16  C   UNL     1     -12.147  14.628  71.483  1.00  0.00    -0.413 A  
HETATM   17  C   UNL     1     -11.598  15.876  71.174  1.00  0.00    -0.481 A  
HETATM   18  C   UNL     1     -11.260  16.186  69.855  1.00  0.00    -0.349 A  
HETATM   19  O   UNL     1     -10.784  17.435  69.564  1.00  0.00    -0.382 OA 
HETATM   20  H   UNL     1     -10.674  18.082  70.250  1.00  0.00     0.000 HD 
ENDBRANCH  11  13
ENDBRANCH   7  11
ENDBRANCH   2   3
TORSDOF 3
ENDMDL
MODEL       84
REMARK 921   NORMALIZED FREE ENERGY PREDICTED BY IDOCK:   -5.13 KCAL/MOL
REMARK 922        TOTAL FREE ENERGY PREDICTED BY IDOCK:   -6.65 KCAL/MOL
REMARK 923 INTER-LIGAND FREE ENERGY PREDICTED BY IDOCK:   -6.12 KCAL/MOL
REMARK 924 INTRA-LIGAND FREE ENERGY PREDICTED BY IDOCK:   -0.53 KCAL/MOL
REMARK 927      BINDING AFFINITY PREDICTED BY RF-SCORE:    0.00 PKD
ROOT
HETATM    1  C   UNL     1     -10.662  12.556  63.719  1.00  0.00    -0.445 C  
HETATM    2  O   UNL     1     -10.648  13.425  64.850  1.00  0.00    -0.340 OA 
ENDROOT
BRANCH   2   3
HETATM    3  C   UNL     1     -10.498  12.790  66.052  1.00  0.00    -0.274 A  
HETATM    4  C   UNL     1      -9.447  13.026  66.940  1.00  0.00    -0.242 A  
HETATM    5  C   UNL     1      -9.333  12.277  68.114  1.00  0.00    -0.205 A  
HETATM    6  O   UNL     1      -8.216  12.476  68.879  1.00  0.00    -0.340 OA 
HETATM    7  C   UNL     1     -10.296  11.319  68.452  1.00  0.00    -0.207 A  
HETATM    8  C   UNL     1     -11.480  11.860  66.385  1.00  0.00    -0.371 A  
HETATM    9  C   UNL     1     -11.378  11.128  67.574  1.00  0.00    -0.351 A  
HETATM   10  H   UNL     1      -8.139  11.967  69.677  1.00  0.00     0.000 HD 
BRANCH   7  11
HETATM   11  C   UNL     1     -10.233  10.420  69.639  1.00  0.00    -0.209 C  
HETATM   12  O   UNL     1      -9.143   9.935  69.956  1.00  0.00    -0.225 OA 
BRANCH  11  13
HETATM   13  C   UNL     1     -11.388  10.125  70.526  1.00  0.00    -0.416 A  
HETATM   14  C   UNL     1     -11.656   8.774  70.796  1.00  0.00    -0.288 A  
HETATM   15  C   UNL     1     -12.701   8.414  71.650  1.00  0.00    -0.358 A  
HETATM   16  C   UNL     1     -13.484   9.403  72.240  1.00  0.00    -0.539 A  
HETATM   17  C   UNL     1     -13.251  10.749  71.946  1.00  0.00    -0.524 A  
HETATM   18  C   UNL     1     -12.222  11.108  71.072  1.00  0.00    -0.333 A  
HETATM   19  O   UNL     1     -12.050  12.425  70.747  1.00  0.00    -0.456 OA 
HETATM   20  H   UNL     1     -12.616  13.092  71.117  1.00  0.00     0.000 HD 
ENDBRANCH  11  13
ENDBRANCH   7  11
ENDBRANCH   2   3
TORSDOF 3
ENDMDL
MODEL       85
REMARK 921   NORMALIZED FREE ENERGY PREDICTED BY IDOCK:   -5.12 KCAL/MOL
REMARK 922        TOTAL FREE ENERGY PREDICTED BY IDOCK:   -6.64 KCAL/MOL
REMARK 923 INTER-LIGAND FREE ENERGY PREDICTED BY IDOCK:   -5.84 KCAL/MOL
REMARK 924 INTRA-LIGAND FREE ENERGY PREDICTED BY IDOCK:   -0.79 KCAL/MOL
REMARK 927      BINDING AFFINITY PREDICTED BY RF-SCORE:    0.00 PKD
ROOT
HETATM    1  C   UNL     1     -12.605  14.042  65.267  1.00  0.00    -0.470 C  
HETATM    2  O   UNL     1     -11.947  13.975  66.530  1.00  0.00    -0.401 OA 
ENDROOT
BRANCH   2   3
HETATM    3  C   UNL     1     -11.543  12.719  66.895  1.00  0.00    -0.366 A  
HETATM    4  C   UNL     1     -10.836  11.848  66.064  1.00  0.00    -0.342 A  
HETATM    5  C   UNL     1     -10.528  10.555  66.496  1.00  0.00    -0.212 A  
HETATM    6  O   UNL     1      -9.941   9.715  65.589  1.00  0.00    -0.305 OA 
HETATM    7  C   UNL     1     -10.870  10.127  67.784  1.00  0.00    -0.346 A  
HETATM    8  C   UNL     1     -11.867  12.320  68.189  1.00  0.00    -0.372 A  
HETATM    9  C   UNL     1     -11.536  11.033  68.629  1.00  0.00    -0.385 A  
HETATM   10  H   UNL     1      -9.732   8.837  65.883  1.00  0.00     0.000 HD 
BRANCH   7  11
HETATM   11  C   UNL     1     -10.654   8.752  68.316  1.00  0.00    -0.142 C  
HETATM   12  O   UNL     1     -10.585   7.813  67.519  1.00  0.00    -0.260 OA 
BRANCH  11  13
HETATM   13  C   UNL     1     -10.433   8.438  69.752  1.00  0.00    -0.220 A  
HETATM   14  C   UNL     1      -9.402   9.133  70.405  1.00  0.00    -0.272 A  
HETATM   15  C   UNL     1      -9.154   8.922  71.763  1.00  0.00    -0.241 A  
HETATM   16  C   UNL     1      -9.933   8.016  72.477  1.00  0.00    -0.338 A  
HETATM   17  C   UNL     1     -10.934   7.289  71.827  1.00  0.00    -0.256 A  
HETATM   18  C   UNL     1     -11.167   7.481  70.463  1.00  0.00    -0.269 A  
HETATM   19  O   UNL     1     -12.107   6.715  69.831  1.00  0.00    -0.641 OA 
HETATM   20  H   UNL     1     -12.605   6.066  70.314  1.00  0.00     0.000 HD 
ENDBRANCH  11  13
ENDBRANCH   7  11
ENDBRANCH   2   3
TORSDOF 3
ENDMDL
MODEL       86
REMARK 921   NORMALIZED FREE ENERGY PREDICTED BY IDOCK:   -5.10 KCAL/MOL
REMARK 922        TOTAL FREE ENERGY PREDICTED BY IDOCK:   -6.62 KCAL/MOL
REMARK 923 INTER-LIGAND FREE ENERGY PREDICTED BY IDOCK:   -5.85 KCAL/MOL
REMARK 924 INTRA-LIGAND FREE ENERGY PREDICTED BY IDOCK:   -0.76 KCAL/MOL
REMARK 927      BINDING AFFINITY PREDICTED BY RF-SCORE:    0.00 PKD
ROOT
HETATM    1  C   UNL     1      -6.775  18.223  67.805  1.00  0.00    -0.206 C  
HETATM    2  O   UNL     1      -7.919  18.003  68.627  1.00  0.00    -0.304 OA 
ENDROOT
BRANCH   2   3
HETATM    3  C   UNL     1      -8.574  16.825  68.386  1.00  0.00    -0.235 A  
HETATM    4  C   UNL     1      -9.427  16.200  69.296  1.00  0.00    -0.224 A  
HETATM    5  C   UNL     1      -9.997  14.960  68.992  1.00  0.00    -0.235 A  
HETATM    6  O   UNL     1     -10.726  14.348  69.975  1.00  0.00    -0.458 OA 
HETATM    7  C   UNL     1      -9.770  14.349  67.753  1.00  0.00    -0.221 A  
HETATM    8  C   UNL     1      -8.359  16.246  67.138  1.00  0.00    -0.219 A  
HETATM    9  C   UNL     1      -8.950  15.016  66.825  1.00  0.00    -0.293 A  
HETATM   10  H   UNL     1     -11.113  13.505  69.768  1.00  0.00     0.000 HD 
BRANCH   7  11
HETATM   11  C   UNL     1     -10.268  13.001  67.357  1.00  0.00    -0.231 C  
HETATM   12  O   UNL     1     -10.199  12.081  68.176  1.00  0.00    -0.189 OA 
BRANCH  11  13
HETATM   13  C   UNL     1     -10.924  12.702  66.058  1.00  0.00    -0.313 A  
HETATM   14  C   UNL     1     -10.194  11.933  65.137  1.00  0.00    -0.314 A  
HETATM   15  C   UNL     1     -10.754  11.577  63.909  1.00  0.00    -0.458 A  
HETATM   16  C   UNL     1     -12.046  11.988  63.591  1.00  0.00    -0.627 A  
HETATM   17  C   UNL     1     -12.765  12.789  64.483  1.00  0.00    -0.405 A  
HETATM   18  C   UNL     1     -12.196  13.165  65.702  1.00  0.00    -0.466 A  
HETATM   19  O   UNL     1     -12.890  14.001  66.533  1.00  0.00    -0.456 OA 
HETATM   20  H   UNL     1     -13.753  14.315  66.292  1.00  0.00     0.000 HD 
ENDBRANCH  11  13
ENDBRANCH   7  11
ENDBRANCH   2   3
TORSDOF 3
ENDMDL
MODEL       87
REMARK 921   NORMALIZED FREE ENERGY PREDICTED BY IDOCK:   -5.10 KCAL/MOL
REMARK 922        TOTAL FREE ENERGY PREDICTED BY IDOCK:   -6.61 KCAL/MOL
REMARK 923 INTER-LIGAND FREE ENERGY PREDICTED BY IDOCK:   -5.72 KCAL/MOL
REMARK 924 INTRA-LIGAND FREE ENERGY PREDICTED BY IDOCK:   -0.90 KCAL/MOL
REMARK 927      BINDING AFFINITY PREDICTED BY RF-SCORE:    0.00 PKD
ROOT
HETATM    1  C   UNL     1     -12.629  11.981  63.104  1.00  0.00    -0.220 C  
HETATM    2  O   UNL     1     -13.040  12.438  64.391  1.00  0.00    -0.786 OA 
ENDROOT
BRANCH   2   3
HETATM    3  C   UNL     1     -12.048  13.023  65.130  1.00  0.00    -0.433 A  
HETATM    4  C   UNL     1     -10.759  12.507  65.264  1.00  0.00    -0.318 A  
HETATM    5  C   UNL     1      -9.830  13.135  66.099  1.00  0.00    -0.280 A  
HETATM    6  O   UNL     1      -8.626  12.510  66.278  1.00  0.00    -0.412 OA 
HETATM    7  C   UNL     1     -10.153  14.320  66.771  1.00  0.00    -0.264 A  
HETATM    8  C   UNL     1     -12.378  14.216  65.768  1.00  0.00    -0.481 A  
HETATM    9  C   UNL     1     -11.440  14.857  66.585  1.00  0.00    -0.297 A  
HETATM   10  H   UNL     1      -7.995  12.937  66.846  1.00  0.00     0.000 HD 
BRANCH   7  11
HETATM   11  C   UNL     1      -9.267  15.028  67.737  1.00  0.00    -0.181 C  
HETATM   12  O   UNL     1      -8.891  14.425  68.746  1.00  0.00    -0.183 OA 
BRANCH  11  13
HETATM   13  C   UNL     1      -8.731  16.398  67.529  1.00  0.00    -0.188 A  
HETATM   14  C   UNL     1      -7.794  16.566  66.496  1.00  0.00    -0.338 A  
HETATM   15  C   UNL     1      -7.270  17.828  66.212  1.00  0.00    -0.331 A  
HETATM   16  C   UNL     1      -7.678  18.932  66.958  1.00  0.00    -0.241 A  
HETATM   17  C   UNL     1      -8.578  18.768  68.014  1.00  0.00    -0.324 A  
HETATM   18  C   UNL     1      -9.084  17.501  68.314  1.00  0.00    -0.274 A  
HETATM   19  O   UNL     1      -9.914  17.352  69.391  1.00  0.00    -0.165 OA 
HETATM   20  H   UNL     1     -10.154  18.100  69.924  1.00  0.00     0.000 HD 
ENDBRANCH  11  13
ENDBRANCH   7  11
ENDBRANCH   2   3
TORSDOF 3
ENDMDL
MODEL       88
REMARK 921   NORMALIZED FREE ENERGY PREDICTED BY IDOCK:   -5.10 KCAL/MOL
REMARK 922        TOTAL FREE ENERGY PREDICTED BY IDOCK:   -6.61 KCAL/MOL
REMARK 923 INTER-LIGAND FREE ENERGY PREDICTED BY IDOCK:   -6.03 KCAL/MOL
REMARK 924 INTRA-LIGAND FREE ENERGY PREDICTED BY IDOCK:   -0.58 KCAL/MOL
REMARK 927      BINDING AFFINITY PREDICTED BY RF-SCORE:    0.00 PKD
ROOT
HETATM    1  C   UNL     1     -10.767   6.069  73.361  1.00  0.00    -0.262 C  
HETATM    2  O   UNL     1     -10.403   7.435  73.546  1.00  0.00    -0.342 OA 
ENDROOT
BRANCH   2   3
HETATM    3  C   UNL     1     -10.754   8.262  72.514  1.00  0.00    -0.341 A  
HETATM    4  C   UNL     1     -12.067   8.613  72.199  1.00  0.00    -0.451 A  
HETATM    5  C   UNL     1     -12.337   9.407  71.081  1.00  0.00    -0.308 A  
HETATM    6  O   UNL     1     -13.651   9.613  70.761  1.00  0.00    -0.596 OA 
HETATM    7  C   UNL     1     -11.298   9.910  70.289  1.00  0.00    -0.357 A  
HETATM    8  C   UNL     1      -9.706   8.776  71.754  1.00  0.00    -0.380 A  
HETATM    9  C   UNL     1      -9.975   9.591  70.648  1.00  0.00    -0.342 A  
HETATM   10  H   UNL     1     -13.834  10.152  70.001  1.00  0.00     0.000 HD 
BRANCH   7  11
HETATM   11  C   UNL     1     -11.477  10.701  69.039  1.00  0.00    -0.274 C  
HETATM   12  O   UNL     1     -12.305  11.616  69.032  1.00  0.00    -0.311 OA 
BRANCH  11  13
HETATM   13  C   UNL     1     -10.663  10.516  67.809  1.00  0.00    -0.319 A  
HETATM   14  C   UNL     1     -10.077  11.665  67.255  1.00  0.00    -0.221 A  
HETATM   15  C   UNL     1      -9.266  11.572  66.121  1.00  0.00    -0.230 A  
HETATM   16  C   UNL     1      -9.037  10.329  65.534  1.00  0.00    -0.211 A  
HETATM   17  C   UNL     1      -9.650   9.186  66.054  1.00  0.00    -0.342 A  
HETATM   18  C   UNL     1     -10.480   9.283  67.173  1.00  0.00    -0.249 A  
HETATM   19  O   UNL     1     -11.121   8.163  67.628  1.00  0.00    -0.492 OA 
HETATM   20  H   UNL     1     -10.997   7.327  67.197  1.00  0.00     0.000 HD 
ENDBRANCH  11  13
ENDBRANCH   7  11
ENDBRANCH   2   3
TORSDOF 3
ENDMDL
MODEL       89
REMARK 921   NORMALIZED FREE ENERGY PREDICTED BY IDOCK:   -5.09 KCAL/MOL
REMARK 922        TOTAL FREE ENERGY PREDICTED BY IDOCK:   -6.60 KCAL/MOL
REMARK 923 INTER-LIGAND FREE ENERGY PREDICTED BY IDOCK:   -6.10 KCAL/MOL
REMARK 924 INTRA-LIGAND FREE ENERGY PREDICTED BY IDOCK:   -0.50 KCAL/MOL
REMARK 927      BINDING AFFINITY PREDICTED BY RF-SCORE:    0.00 PKD
ROOT
HETATM    1  C   UNL     1      -7.940  19.759  67.906  1.00  0.00    -0.294 C  
HETATM    2  O   UNL     1      -7.427  18.429  67.859  1.00  0.00    -0.229 OA 
ENDROOT
BRANCH   2   3
HETATM    3  C   UNL     1      -8.360  17.468  67.578  1.00  0.00    -0.215 A  
HETATM    4  C   UNL     1      -9.009  17.339  66.350  1.00  0.00    -0.282 A  
HETATM    5  C   UNL     1     -10.004  16.372  66.175  1.00  0.00    -0.339 A  
HETATM    6  O   UNL     1     -10.682  16.379  64.987  1.00  0.00    -0.638 OA 
HETATM    7  C   UNL     1     -10.329  15.481  67.205  1.00  0.00    -0.272 A  
HETATM    8  C   UNL     1      -8.651  16.573  68.605  1.00  0.00    -0.243 A  
HETATM    9  C   UNL     1      -9.630  15.590  68.421  1.00  0.00    -0.199 A  
HETATM   10  H   UNL     1     -11.358  15.722  64.868  1.00  0.00     0.000 HD 
BRANCH   7  11
HETATM   11  C   UNL     1     -11.418  14.465  67.148  1.00  0.00    -0.362 C  
HETATM   12  O   UNL     1     -12.126  14.413  66.140  1.00  0.00    -0.399 OA 
BRANCH  11  13
HETATM   13  C   UNL     1     -11.662  13.445  68.200  1.00  0.00    -0.397 A  
HETATM   14  C   UNL     1     -11.993  13.915  69.481  1.00  0.00    -0.396 A  
HETATM   15  C   UNL     1     -12.274  13.021  70.516  1.00  0.00    -0.392 A  
HETATM   16  C   UNL     1     -12.226  11.649  70.277  1.00  0.00    -0.401 A  
HETATM   17  C   UNL     1     -11.858  11.170  69.017  1.00  0.00    -0.418 A  
HETATM   18  C   UNL     1     -11.553  12.065  67.988  1.00  0.00    -0.342 A  
HETATM   19  O   UNL     1     -11.134  11.577  66.781  1.00  0.00    -0.286 OA 
HETATM   20  H   UNL     1     -11.059  10.642  66.638  1.00  0.00     0.000 HD 
ENDBRANCH  11  13
ENDBRANCH   7  11
ENDBRANCH   2   3
TORSDOF 3
ENDMDL
MODEL       90
REMARK 921   NORMALIZED FREE ENERGY PREDICTED BY IDOCK:   -5.08 KCAL/MOL
REMARK 922        TOTAL FREE ENERGY PREDICTED BY IDOCK:   -6.60 KCAL/MOL
REMARK 923 INTER-LIGAND FREE ENERGY PREDICTED BY IDOCK:   -6.10 KCAL/MOL
REMARK 924 INTRA-LIGAND FREE ENERGY PREDICTED BY IDOCK:   -0.50 KCAL/MOL
REMARK 927      BINDING AFFINITY PREDICTED BY RF-SCORE:    0.00 PKD
ROOT
HETATM    1  C   UNL     1     -12.458  16.055  72.396  1.00  0.00    -0.469 C  
HETATM    2  O   UNL     1     -13.504  15.235  71.878  1.00  0.00    -0.378 OA 
ENDROOT
BRANCH   2   3
HETATM    3  C   UNL     1     -13.125  13.957  71.571  1.00  0.00    -0.365 A  
HETATM    4  C   UNL     1     -13.594  12.818  72.228  1.00  0.00    -0.563 A  
HETATM    5  C   UNL     1     -13.096  11.556  71.895  1.00  0.00    -0.387 A  
HETATM    6  O   UNL     1     -13.508  10.498  72.658  1.00  0.00    -0.460 OA 
HETATM    7  C   UNL     1     -12.162  11.400  70.863  1.00  0.00    -0.447 A  
HETATM    8  C   UNL     1     -12.217  13.819  70.523  1.00  0.00    -0.440 A  
HETATM    9  C   UNL     1     -11.737  12.551  70.174  1.00  0.00    -0.255 A  
HETATM   10  H   UNL     1     -13.170   9.640  72.431  1.00  0.00     0.000 HD 
BRANCH   7  11
HETATM   11  C   UNL     1     -11.515  10.114  70.477  1.00  0.00    -0.337 C  
HETATM   12  O   UNL     1     -11.913   9.072  71.003  1.00  0.00    -0.287 OA 
BRANCH  11  13
HETATM   13  C   UNL     1     -10.468   9.988  69.430  1.00  0.00    -0.252 A  
HETATM   14  C   UNL     1      -9.157   9.739  69.867  1.00  0.00    -0.257 A  
HETATM   15  C   UNL     1      -8.122   9.570  68.946  1.00  0.00    -0.096 A  
HETATM   16  C   UNL     1      -8.389   9.649  67.581  1.00  0.00    -0.121 A  
HETATM   17  C   UNL     1      -9.683   9.937  67.137  1.00  0.00    -0.224 A  
HETATM   18  C   UNL     1     -10.714  10.130  68.060  1.00  0.00    -0.260 A  
HETATM   19  O   UNL     1     -11.958  10.474  67.608  1.00  0.00    -0.502 OA 
HETATM   20  H   UNL     1     -12.125  10.571  66.678  1.00  0.00     0.000 HD 
ENDBRANCH  11  13
ENDBRANCH   7  11
ENDBRANCH   2   3
TORSDOF 3
ENDMDL
MODEL       91
REMARK 921   NORMALIZED FREE ENERGY PREDICTED BY IDOCK:   -5.08 KCAL/MOL
REMARK 922        TOTAL FREE ENERGY PREDICTED BY IDOCK:   -6.59 KCAL/MOL
REMARK 923 INTER-LIGAND FREE ENERGY PREDICTED BY IDOCK:   -5.74 KCAL/MOL
REMARK 924 INTRA-LIGAND FREE ENERGY PREDICTED BY IDOCK:   -0.86 KCAL/MOL
REMARK 927      BINDING AFFINITY PREDICTED BY RF-SCORE:    0.00 PKD
ROOT
HETATM    1  C   UNL     1     -14.263  15.103  72.071  1.00  0.00    -0.577 C  
HETATM    2  O   UNL     1     -12.837  15.119  72.064  1.00  0.00    -0.307 OA 
ENDROOT
BRANCH   2   3
HETATM    3  C   UNL     1     -12.274  15.052  70.818  1.00  0.00    -0.329 A  
HETATM    4  C   UNL     1     -12.491  14.013  69.913  1.00  0.00    -0.301 A  
HETATM    5  C   UNL     1     -11.816  13.991  68.689  1.00  0.00    -0.361 A  
HETATM    6  O   UNL     1     -11.983  12.885  67.901  1.00  0.00    -0.349 OA 
HETATM    7  C   UNL     1     -10.955  15.033  68.324  1.00  0.00    -0.274 A  
HETATM    8  C   UNL     1     -11.443  16.111  70.461  1.00  0.00    -0.363 A  
HETATM    9  C   UNL     1     -10.785  16.099  69.225  1.00  0.00    -0.295 A  
HETATM   10  H   UNL     1     -11.524  12.870  67.070  1.00  0.00     0.000 HD 
BRANCH   7  11
HETATM   11  C   UNL     1     -10.134  15.072  67.081  1.00  0.00    -0.239 C  
HETATM   12  O   UNL     1     -10.560  14.503  66.073  1.00  0.00    -0.290 OA 
BRANCH  11  13
HETATM   13  C   UNL     1      -8.860  15.824  66.945  1.00  0.00    -0.273 A  
HETATM   14  C   UNL     1      -7.718  15.256  67.531  1.00  0.00    -0.200 A  
HETATM   15  C   UNL     1      -6.475  15.882  67.417  1.00  0.00    -0.209 A  
HETATM   16  C   UNL     1      -6.365  17.081  66.716  1.00  0.00    -0.246 A  
HETATM   17  C   UNL     1      -7.503  17.676  66.165  1.00  0.00    -0.334 A  
HETATM   18  C   UNL     1      -8.750  17.062  66.300  1.00  0.00    -0.250 A  
HETATM   19  O   UNL     1      -9.861  17.691  65.809  1.00  0.00    -0.539 OA 
HETATM   20  H   UNL     1      -9.787  18.531  65.372  1.00  0.00     0.000 HD 
ENDBRANCH  11  13
ENDBRANCH   7  11
ENDBRANCH   2   3
TORSDOF 3
ENDMDL
MODEL       92
REMARK 921   NORMALIZED FREE ENERGY PREDICTED BY IDOCK:   -5.07 KCAL/MOL
REMARK 922        TOTAL FREE ENERGY PREDICTED BY IDOCK:   -6.59 KCAL/MOL
REMARK 923 INTER-LIGAND FREE ENERGY PREDICTED BY IDOCK:   -5.90 KCAL/MOL
REMARK 924 INTRA-LIGAND FREE ENERGY PREDICTED BY IDOCK:   -0.69 KCAL/MOL
REMARK 927      BINDING AFFINITY PREDICTED BY RF-SCORE:    0.00 PKD
ROOT
HETATM    1  C   UNL     1     -10.623  18.615  66.636  1.00  0.00    -0.359 C  
HETATM    2  O   UNL     1      -9.826  17.861  65.724  1.00  0.00    -0.540 OA 
ENDROOT
BRANCH   2   3
HETATM    3  C   UNL     1     -10.155  16.535  65.643  1.00  0.00    -0.251 A  
HETATM    4  C   UNL     1      -9.515  15.522  66.359  1.00  0.00    -0.320 A  
HETATM    5  C   UNL     1      -9.870  14.185  66.159  1.00  0.00    -0.308 A  
HETATM    6  O   UNL     1      -9.123  13.236  66.802  1.00  0.00    -0.246 OA 
HETATM    7  C   UNL     1     -10.905  13.839  65.283  1.00  0.00    -0.326 A  
HETATM    8  C   UNL     1     -11.206  16.212  64.788  1.00  0.00    -0.313 A  
HETATM    9  C   UNL     1     -11.576  14.875  64.607  1.00  0.00    -0.395 A  
HETATM   10  H   UNL     1      -9.364  12.327  66.666  1.00  0.00     0.000 HD 
BRANCH   7  11
HETATM   11  C   UNL     1     -11.313  12.446  64.943  1.00  0.00    -0.317 C  
HETATM   12  O   UNL     1     -12.492  12.120  65.101  1.00  0.00    -0.508 OA 
BRANCH  11  13
HETATM   13  C   UNL     1     -10.405  11.434  64.343  1.00  0.00    -0.375 A  
HETATM   14  C   UNL     1     -10.110  11.571  62.978  1.00  0.00    -0.330 A  
HETATM   15  C   UNL     1      -9.236  10.683  62.347  1.00  0.00    -0.300 A  
HETATM   16  C   UNL     1      -8.652   9.651  63.077  1.00  0.00    -0.207 A  
HETATM   17  C   UNL     1      -8.971   9.481  64.427  1.00  0.00    -0.255 A  
HETATM   18  C   UNL     1      -9.864  10.355  65.052  1.00  0.00    -0.319 A  
HETATM   19  O   UNL     1     -10.213  10.133  66.356  1.00  0.00    -0.230 OA 
HETATM   20  H   UNL     1      -9.846   9.401  66.837  1.00  0.00     0.000 HD 
ENDBRANCH  11  13
ENDBRANCH   7  11
ENDBRANCH   2   3
TORSDOF 3
ENDMDL
MODEL       93
REMARK 921   NORMALIZED FREE ENERGY PREDICTED BY IDOCK:   -5.07 KCAL/MOL
REMARK 922        TOTAL FREE ENERGY PREDICTED BY IDOCK:   -6.59 KCAL/MOL
REMARK 923 INTER-LIGAND FREE ENERGY PREDICTED BY IDOCK:   -6.27 KCAL/MOL
REMARK 924 INTRA-LIGAND FREE ENERGY PREDICTED BY IDOCK:   -0.31 KCAL/MOL
REMARK 927      BINDING AFFINITY PREDICTED BY RF-SCORE:    0.00 PKD
ROOT
HETATM    1  C   UNL     1     -12.739  12.180  63.950  1.00  0.00    -0.377 C  
HETATM    2  O   UNL     1     -12.783  12.546  65.328  1.00  0.00    -0.654 OA 
ENDROOT
BRANCH   2   3
HETATM    3  C   UNL     1     -12.134  13.713  65.627  1.00  0.00    -0.425 A  
HETATM    4  C   UNL     1     -11.985  14.221  66.918  1.00  0.00    -0.467 A  
HETATM    5  C   UNL     1     -11.369  15.459  67.123  1.00  0.00    -0.203 A  
HETATM    6  O   UNL     1     -11.364  15.953  68.399  1.00  0.00    -0.346 OA 
HETATM    7  C   UNL     1     -10.840  16.185  66.049  1.00  0.00    -0.155 A  
HETATM    8  C   UNL     1     -11.589  14.408  64.550  1.00  0.00    -0.393 A  
HETATM    9  C   UNL     1     -10.950  15.636  64.759  1.00  0.00    -0.418 A  
HETATM   10  H   UNL     1     -10.945  16.794  68.538  1.00  0.00     0.000 HD 
BRANCH   7  11
HETATM   11  C   UNL     1     -10.230  17.541  66.148  1.00  0.00    -0.335 C  
HETATM   12  O   UNL     1     -10.729  18.463  65.497  1.00  0.00    -0.588 OA 
BRANCH  11  13
HETATM   13  C   UNL     1      -9.099  17.884  67.048  1.00  0.00    -0.256 A  
HETATM   14  C   UNL     1      -9.215  19.066  67.797  1.00  0.00    -0.339 A  
HETATM   15  C   UNL     1      -8.213  19.441  68.694  1.00  0.00    -0.399 A  
HETATM   16  C   UNL     1      -7.086  18.636  68.848  1.00  0.00    -0.317 A  
HETATM   17  C   UNL     1      -6.941  17.480  68.078  1.00  0.00    -0.195 A  
HETATM   18  C   UNL     1      -7.933  17.118  67.163  1.00  0.00    -0.191 A  
HETATM   19  O   UNL     1      -7.743  16.017  66.373  1.00  0.00    -0.214 OA 
HETATM   20  H   UNL     1      -6.952  15.497  66.450  1.00  0.00     0.000 HD 
ENDBRANCH  11  13
ENDBRANCH   7  11
ENDBRANCH   2   3
TORSDOF 3
ENDMDL
MODEL       94
REMARK 921   NORMALIZED FREE ENERGY PREDICTED BY IDOCK:   -5.06 KCAL/MOL
REMARK 922        TOTAL FREE ENERGY PREDICTED BY IDOCK:   -6.58 KCAL/MOL
REMARK 923 INTER-LIGAND FREE ENERGY PREDICTED BY IDOCK:   -5.68 KCAL/MOL
REMARK 924 INTRA-LIGAND FREE ENERGY PREDICTED BY IDOCK:   -0.90 KCAL/MOL
REMARK 927      BINDING AFFINITY PREDICTED BY RF-SCORE:    0.00 PKD
ROOT
HETATM    1  C   UNL     1      -7.492   6.724  67.559  1.00  0.00    -0.097 C  
HETATM    2  O   UNL     1      -7.310   7.779  66.617  1.00  0.00    -0.084 OA 
ENDROOT
BRANCH   2   3
HETATM    3  C   UNL     1      -8.180   8.826  66.762  1.00  0.00    -0.108 A  
HETATM    4  C   UNL     1      -8.256   9.634  67.897  1.00  0.00    -0.106 A  
HETATM    5  C   UNL     1      -9.226  10.636  67.987  1.00  0.00    -0.148 A  
HETATM    6  O   UNL     1      -9.323  11.310  69.174  1.00  0.00    -0.396 OA 
HETATM    7  C   UNL     1     -10.101  10.887  66.923  1.00  0.00    -0.253 A  
HETATM    8  C   UNL     1      -9.024   9.079  65.683  1.00  0.00    -0.249 A  
HETATM    9  C   UNL     1      -9.979  10.099  65.764  1.00  0.00    -0.339 A  
HETATM   10  H   UNL     1      -9.982  11.991  69.234  1.00  0.00     0.000 HD 
BRANCH   7  11
HETATM   11  C   UNL     1     -11.214  11.878  66.943  1.00  0.00    -0.325 C  
HETATM   12  O   UNL     1     -12.154  11.696  67.720  1.00  0.00    -0.613 OA 
BRANCH  11  13
HETATM   13  C   UNL     1     -11.232  13.129  66.140  1.00  0.00    -0.320 A  
HETATM   14  C   UNL     1     -10.194  14.047  66.367  1.00  0.00    -0.293 A  
HETATM   15  C   UNL     1     -10.119  15.230  65.628  1.00  0.00    -0.401 A  
HETATM   16  C   UNL     1     -11.079  15.502  64.658  1.00  0.00    -0.373 A  
HETATM   17  C   UNL     1     -12.139  14.615  64.453  1.00  0.00    -0.481 A  
HETATM   18  C   UNL     1     -12.228  13.443  65.208  1.00  0.00    -0.440 A  
HETATM   19  O   UNL     1     -13.306  12.619  65.038  1.00  0.00    -0.651 OA 
HETATM   20  H   UNL     1     -13.982  12.832  64.406  1.00  0.00     0.000 HD 
ENDBRANCH  11  13
ENDBRANCH   7  11
ENDBRANCH   2   3
TORSDOF 3
ENDMDL
MODEL       95
REMARK 921   NORMALIZED FREE ENERGY PREDICTED BY IDOCK:   -5.06 KCAL/MOL
REMARK 922        TOTAL FREE ENERGY PREDICTED BY IDOCK:   -6.57 KCAL/MOL
REMARK 923 INTER-LIGAND FREE ENERGY PREDICTED BY IDOCK:   -5.98 KCAL/MOL
REMARK 924 INTRA-LIGAND FREE ENERGY PREDICTED BY IDOCK:   -0.59 KCAL/MOL
REMARK 927      BINDING AFFINITY PREDICTED BY RF-SCORE:    0.00 PKD
ROOT
HETATM    1  C   UNL     1     -14.082  15.162  72.062  1.00  0.00    -0.559 C  
HETATM    2  O   UNL     1     -13.547  15.825  70.918  1.00  0.00    -0.538 OA 
ENDROOT
BRANCH   2   3
HETATM    3  C   UNL     1     -12.714  15.056  70.153  1.00  0.00    -0.224 A  
HETATM    4  C   UNL     1     -12.463  13.703  70.380  1.00  0.00    -0.364 A  
HETATM    5  C   UNL     1     -11.540  13.013  69.589  1.00  0.00    -0.253 A  
HETATM    6  O   UNL     1     -11.253  11.722  69.942  1.00  0.00    -0.466 OA 
HETATM    7  C   UNL     1     -10.892  13.647  68.523  1.00  0.00    -0.275 A  
HETATM    8  C   UNL     1     -12.100  15.696  69.079  1.00  0.00    -0.227 A  
HETATM    9  C   UNL     1     -11.193  14.998  68.272  1.00  0.00    -0.309 A  
HETATM   10  H   UNL     1     -10.626  11.254  69.404  1.00  0.00     0.000 HD 
BRANCH   7  11
HETATM   11  C   UNL     1      -9.841  13.028  67.666  1.00  0.00    -0.212 C  
HETATM   12  O   UNL     1      -8.717  12.853  68.144  1.00  0.00    -0.180 OA 
BRANCH  11  13
HETATM   13  C   UNL     1     -10.076  12.525  66.288  1.00  0.00    -0.264 A  
HETATM   14  C   UNL     1     -10.261  11.141  66.137  1.00  0.00    -0.293 A  
HETATM   15  C   UNL     1     -10.524  10.593  64.880  1.00  0.00    -0.282 A  
HETATM   16  C   UNL     1     -10.604  11.424  63.765  1.00  0.00    -0.464 A  
HETATM   17  C   UNL     1     -10.381  12.797  63.898  1.00  0.00    -0.352 A  
HETATM   18  C   UNL     1     -10.093  13.342  65.152  1.00  0.00    -0.246 A  
HETATM   19  O   UNL     1      -9.815  14.678  65.252  1.00  0.00    -0.469 OA 
HETATM   20  H   UNL     1      -9.826  15.232  64.481  1.00  0.00     0.000 HD 
ENDBRANCH  11  13
ENDBRANCH   7  11
ENDBRANCH   2   3
TORSDOF 3
ENDMDL
MODEL       96
REMARK 921   NORMALIZED FREE ENERGY PREDICTED BY IDOCK:   -5.05 KCAL/MOL
REMARK 922        TOTAL FREE ENERGY PREDICTED BY IDOCK:   -6.56 KCAL/MOL
REMARK 923 INTER-LIGAND FREE ENERGY PREDICTED BY IDOCK:   -5.75 KCAL/MOL
REMARK 924 INTRA-LIGAND FREE ENERGY PREDICTED BY IDOCK:   -0.82 KCAL/MOL
REMARK 927      BINDING AFFINITY PREDICTED BY RF-SCORE:    0.00 PKD
ROOT
HETATM    1  C   UNL     1     -12.081  13.675  64.166  1.00  0.00    -0.435 C  
HETATM    2  O   UNL     1     -10.986  13.623  65.078  1.00  0.00    -0.314 OA 
ENDROOT
BRANCH   2   3
HETATM    3  C   UNL     1     -10.789  12.401  65.661  1.00  0.00    -0.277 A  
HETATM    4  C   UNL     1     -10.041  11.370  65.092  1.00  0.00    -0.319 A  
HETATM    5  C   UNL     1      -9.953  10.128  65.727  1.00  0.00    -0.271 A  
HETATM    6  O   UNL     1      -9.305   9.126  65.057  1.00  0.00    -0.424 OA 
HETATM    7  C   UNL     1     -10.564   9.910  66.967  1.00  0.00    -0.272 A  
HETATM    8  C   UNL     1     -11.380  12.211  66.908  1.00  0.00    -0.402 A  
HETATM    9  C   UNL     1     -11.271  10.975  67.555  1.00  0.00    -0.372 A  
HETATM   10  H   UNL     1      -9.246   8.282  65.488  1.00  0.00     0.000 HD 
BRANCH   7  11
HETATM   11  C   UNL     1     -10.593   8.608  67.693  1.00  0.00    -0.203 C  
HETATM   12  O   UNL     1     -10.802   7.577  67.048  1.00  0.00    -0.348 OA 
BRANCH  11  13
HETATM   13  C   UNL     1     -10.305   8.454  69.142  1.00  0.00    -0.229 A  
HETATM   14  C   UNL     1      -9.260   9.229  69.671  1.00  0.00    -0.182 A  
HETATM   15  C   UNL     1      -8.949   9.169  71.031  1.00  0.00    -0.281 A  
HETATM   16  C   UNL     1      -9.681   8.334  71.872  1.00  0.00    -0.299 A  
HETATM   17  C   UNL     1     -10.696   7.528  71.349  1.00  0.00    -0.243 A  
HETATM   18  C   UNL     1     -10.990   7.570  69.984  1.00  0.00    -0.240 A  
HETATM   19  O   UNL     1     -11.943   6.727  69.480  1.00  0.00    -0.634 OA 
HETATM   20  H   UNL     1     -12.408   6.128  70.051  1.00  0.00     0.000 HD 
ENDBRANCH  11  13
ENDBRANCH   7  11
ENDBRANCH   2   3
TORSDOF 3
ENDMDL
MODEL       97
REMARK 921   NORMALIZED FREE ENERGY PREDICTED BY IDOCK:   -5.05 KCAL/MOL
REMARK 922        TOTAL FREE ENERGY PREDICTED BY IDOCK:   -6.56 KCAL/MOL
REMARK 923 INTER-LIGAND FREE ENERGY PREDICTED BY IDOCK:   -5.87 KCAL/MOL
REMARK 924 INTRA-LIGAND FREE ENERGY PREDICTED BY IDOCK:   -0.70 KCAL/MOL
REMARK 927      BINDING AFFINITY PREDICTED BY RF-SCORE:    0.00 PKD
ROOT
HETATM    1  C   UNL     1     -10.442  19.961  66.229  1.00  0.00    -0.479 C  
HETATM    2  O   UNL     1      -9.840  18.751  65.772  1.00  0.00    -0.464 OA 
ENDROOT
BRANCH   2   3
HETATM    3  C   UNL     1     -10.227  17.630  66.455  1.00  0.00    -0.364 A  
HETATM    4  C   UNL     1     -10.544  17.607  67.813  1.00  0.00    -0.380 A  
HETATM    5  C   UNL     1     -10.860  16.401  68.444  1.00  0.00    -0.342 A  
HETATM    6  O   UNL     1     -11.043  16.432  69.800  1.00  0.00    -0.338 OA 
HETATM    7  C   UNL     1     -10.919  15.205  67.719  1.00  0.00    -0.306 A  
HETATM    8  C   UNL     1     -10.308  16.455  65.712  1.00  0.00    -0.388 A  
HETATM    9  C   UNL     1     -10.648  15.251  66.340  1.00  0.00    -0.308 A  
HETATM   10  H   UNL     1     -11.258  15.612  70.228  1.00  0.00     0.000 HD 
BRANCH   7  11
HETATM   11  C   UNL     1     -11.174  13.858  68.305  1.00  0.00    -0.272 C  
HETATM   12  O   UNL     1     -11.967  13.763  69.246  1.00  0.00    -0.320 OA 
BRANCH  11  13
HETATM   13  C   UNL     1     -10.595  12.595  67.778  1.00  0.00    -0.233 A  
HETATM   14  C   UNL     1      -9.370  12.178  68.324  1.00  0.00    -0.198 A  
HETATM   15  C   UNL     1      -8.778  10.984  67.910  1.00  0.00    -0.133 A  
HETATM   16  C   UNL     1      -9.405  10.198  66.946  1.00  0.00    -0.185 A  
HETATM   17  C   UNL     1     -10.603  10.624  66.366  1.00  0.00    -0.240 A  
HETATM   18  C   UNL     1     -11.184  11.831  66.763  1.00  0.00    -0.328 A  
HETATM   19  O   UNL     1     -12.322  12.262  66.139  1.00  0.00    -0.588 OA 
HETATM   20  H   UNL     1     -12.721  11.744  65.451  1.00  0.00     0.000 HD 
ENDBRANCH  11  13
ENDBRANCH   7  11
ENDBRANCH   2   3
TORSDOF 3
ENDMDL
MODEL       98
REMARK 921   NORMALIZED FREE ENERGY PREDICTED BY IDOCK:   -5.03 KCAL/MOL
REMARK 922        TOTAL FREE ENERGY PREDICTED BY IDOCK:   -6.53 KCAL/MOL
REMARK 923 INTER-LIGAND FREE ENERGY PREDICTED BY IDOCK:   -5.78 KCAL/MOL
REMARK 924 INTRA-LIGAND FREE ENERGY PREDICTED BY IDOCK:   -0.75 KCAL/MOL
REMARK 927      BINDING AFFINITY PREDICTED BY RF-SCORE:    0.00 PKD
ROOT
HETATM    1  C   UNL     1     -10.831  12.237  63.479  1.00  0.00    -0.454 C  
HETATM    2  O   UNL     1     -10.238  12.931  64.575  1.00  0.00    -0.345 OA 
ENDROOT
BRANCH   2   3
HETATM    3  C   UNL     1     -10.103  12.186  65.714  1.00  0.00    -0.247 A  
HETATM    4  C   UNL     1     -10.503  10.854  65.835  1.00  0.00    -0.285 A  
HETATM    5  C   UNL     1     -10.393  10.192  67.060  1.00  0.00    -0.244 A  
HETATM    6  O   UNL     1     -10.913   8.929  67.139  1.00  0.00    -0.360 OA 
HETATM    7  C   UNL     1      -9.831  10.828  68.174  1.00  0.00    -0.171 A  
HETATM    8  C   UNL     1      -9.516  12.826  66.804  1.00  0.00    -0.243 A  
HETATM    9  C   UNL     1      -9.384  12.154  68.024  1.00  0.00    -0.197 A  
HETATM   10  H   UNL     1     -10.838   8.479  67.973  1.00  0.00     0.000 HD 
BRANCH   7  11
HETATM   11  C   UNL     1      -9.733  10.241  69.540  1.00  0.00    -0.211 C  
HETATM   12  O   UNL     1      -8.617   9.954  69.981  1.00  0.00    -0.203 OA 
BRANCH  11  13
HETATM   13  C   UNL     1     -10.891  10.049  70.451  1.00  0.00    -0.380 A  
HETATM   14  C   UNL     1     -11.865  11.060  70.466  1.00  0.00    -0.464 A  
HETATM   15  C   UNL     1     -13.002  10.938  71.267  1.00  0.00    -0.492 A  
HETATM   16  C   UNL     1     -13.174   9.805  72.058  1.00  0.00    -0.557 A  
HETATM   17  C   UNL     1     -12.191   8.812  72.081  1.00  0.00    -0.448 A  
HETATM   18  C   UNL     1     -11.042   8.945  71.299  1.00  0.00    -0.297 A  
HETATM   19  O   UNL     1     -10.062   7.994  71.383  1.00  0.00    -0.180 OA 
HETATM   20  H   UNL     1     -10.164   7.245  71.959  1.00  0.00     0.000 HD 
ENDBRANCH  11  13
ENDBRANCH   7  11
ENDBRANCH   2   3
TORSDOF 3
ENDMDL
MODEL       99
REMARK 921   NORMALIZED FREE ENERGY PREDICTED BY IDOCK:   -5.02 KCAL/MOL
REMARK 922        TOTAL FREE ENERGY PREDICTED BY IDOCK:   -6.52 KCAL/MOL
REMARK 923 INTER-LIGAND FREE ENERGY PREDICTED BY IDOCK:   -5.79 KCAL/MOL
REMARK 924 INTRA-LIGAND FREE ENERGY PREDICTED BY IDOCK:   -0.73 KCAL/MOL
REMARK 927      BINDING AFFINITY PREDICTED BY RF-SCORE:    0.00 PKD
ROOT
HETATM    1  C   UNL     1      -8.656   5.813  71.128  1.00  0.00    -0.128 C  
HETATM    2  O   UNL     1      -8.160   7.147  71.038  1.00  0.00    -0.102 OA 
ENDROOT
BRANCH   2   3
HETATM    3  C   UNL     1      -9.112   8.091  70.763  1.00  0.00    -0.145 A  
HETATM    4  C   UNL     1     -10.470   7.945  71.050  1.00  0.00    -0.223 A  
HETATM    5  C   UNL     1     -11.383   8.932  70.667  1.00  0.00    -0.259 A  
HETATM    6  O   UNL     1     -12.710   8.671  70.872  1.00  0.00    -0.497 OA 
HETATM    7  C   UNL     1     -10.950  10.106  70.040  1.00  0.00    -0.364 A  
HETATM    8  C   UNL     1      -8.661   9.265  70.164  1.00  0.00    -0.215 A  
HETATM    9  C   UNL     1      -9.573  10.263  69.803  1.00  0.00    -0.146 A  
HETATM   10  H   UNL     1     -13.330   9.341  70.611  1.00  0.00     0.000 HD 
BRANCH   7  11
HETATM   11  C   UNL     1     -11.843  11.184  69.527  1.00  0.00    -0.353 C  
HETATM   12  O   UNL     1     -12.299  11.081  68.385  1.00  0.00    -0.528 OA 
BRANCH  11  13
HETATM   13  C   UNL     1     -12.295  12.348  70.333  1.00  0.00    -0.307 A  
HETATM   14  C   UNL     1     -13.029  12.071  71.497  1.00  0.00    -0.407 A  
HETATM   15  C   UNL     1     -13.458  13.107  72.329  1.00  0.00    -0.665 A  
HETATM   16  C   UNL     1     -13.156  14.427  72.002  1.00  0.00    -0.444 A  
HETATM   17  C   UNL     1     -12.462  14.716  70.825  1.00  0.00    -0.407 A  
HETATM   18  C   UNL     1     -12.053  13.681  69.980  1.00  0.00    -0.348 A  
HETATM   19  O   UNL     1     -11.431  13.987  68.801  1.00  0.00    -0.253 OA 
HETATM   20  H   UNL     1     -11.267  14.891  68.562  1.00  0.00     0.000 HD 
ENDBRANCH  11  13
ENDBRANCH   7  11
ENDBRANCH   2   3
TORSDOF 3
ENDMDL
MODEL      100
REMARK 921   NORMALIZED FREE ENERGY PREDICTED BY IDOCK:   -5.01 KCAL/MOL
REMARK 922        TOTAL FREE ENERGY PREDICTED BY IDOCK:   -6.51 KCAL/MOL
REMARK 923 INTER-LIGAND FREE ENERGY PREDICTED BY IDOCK:   -5.92 KCAL/MOL
REMARK 924 INTRA-LIGAND FREE ENERGY PREDICTED BY IDOCK:   -0.59 KCAL/MOL
REMARK 927      BINDING AFFINITY PREDICTED BY RF-SCORE:    0.00 PKD
ROOT
HETATM    1  C   UNL     1     -10.568   6.314  71.454  1.00  0.00    -0.237 C  
HETATM    2  O   UNL     1     -11.174   6.194  70.169  1.00  0.00    -0.351 OA 
ENDROOT
BRANCH   2   3
HETATM    3  C   UNL     1     -10.884   7.217  69.307  1.00  0.00    -0.183 A  
HETATM    4  C   UNL     1     -10.558   7.042  67.961  1.00  0.00    -0.260 A  
HETATM    5  C   UNL     1     -10.205   8.141  67.172  1.00  0.00    -0.296 A  
HETATM    6  O   UNL     1      -9.781   7.885  65.896  1.00  0.00    -0.443 OA 
HETATM    7  C   UNL     1     -10.225   9.439  67.697  1.00  0.00    -0.281 A  
HETATM    8  C   UNL     1     -10.936   8.503  69.838  1.00  0.00    -0.165 A  
HETATM    9  C   UNL     1     -10.606   9.605  69.040  1.00  0.00    -0.237 A  
HETATM   10  H   UNL     1      -9.541   8.632  65.361  1.00  0.00     0.000 HD 
BRANCH   7  11
HETATM   11  C   UNL     1      -9.799  10.666  66.966  1.00  0.00    -0.185 C  
HETATM   12  O   UNL     1      -8.686  11.141  67.207  1.00  0.00    -0.136 OA 
BRANCH  11  13
HETATM   13  C   UNL     1     -10.596  11.320  65.896  1.00  0.00    -0.309 A  
HETATM   14  C   UNL     1     -10.153  11.147  64.575  1.00  0.00    -0.364 A  
HETATM   15  C   UNL     1     -10.867  11.698  63.509  1.00  0.00    -0.497 A  
HETATM   16  C   UNL     1     -12.028  12.426  63.757  1.00  0.00    -0.600 A  
HETATM   17  C   UNL     1     -12.455  12.639  65.070  1.00  0.00    -0.556 A  
HETATM   18  C   UNL     1     -11.727  12.108  66.138  1.00  0.00    -0.315 A  
HETATM   19  O   UNL     1     -12.124  12.381  67.418  1.00  0.00    -0.505 OA 
HETATM   20  H   UNL     1     -12.891  12.916  67.582  1.00  0.00     0.000 HD 
ENDBRANCH  11  13
ENDBRANCH   7  11
ENDBRANCH   2   3
TORSDOF 3
ENDMDL
MODEL      101
REMARK 921   NORMALIZED FREE ENERGY PREDICTED BY IDOCK:   -5.01 KCAL/MOL
REMARK 922        TOTAL FREE ENERGY PREDICTED BY IDOCK:   -6.51 KCAL/MOL
REMARK 923 INTER-LIGAND FREE ENERGY PREDICTED BY IDOCK:   -6.73 KCAL/MOL
REMARK 924 INTRA-LIGAND FREE ENERGY PREDICTED BY IDOCK:    0.23 KCAL/MOL
REMARK 927      BINDING AFFINITY PREDICTED BY RF-SCORE:    0.00 PKD
ROOT
HETATM    1  C   UNL     1      -9.212   9.868  62.491  1.00  0.00    -0.283 C  
HETATM    2  O   UNL     1     -10.012  11.048  62.465  1.00  0.00    -0.126 OA 
ENDROOT
BRANCH   2   3
HETATM    3  C   UNL     1     -10.540  11.403  63.677  1.00  0.00    -0.412 A  
HETATM    4  C   UNL     1     -11.632  12.256  63.839  1.00  0.00    -0.525 A  
HETATM    5  C   UNL     1     -12.059  12.622  65.119  1.00  0.00    -0.455 A  
HETATM    6  O   UNL     1     -13.057  13.553  65.204  1.00  0.00    -0.737 OA 
HETATM    7  C   UNL     1     -11.438  12.099  66.260  1.00  0.00    -0.433 A  
HETATM    8  C   UNL     1      -9.928  10.852  64.800  1.00  0.00    -0.366 A  
HETATM    9  C   UNL     1     -10.371  11.200  66.081  1.00  0.00    -0.302 A  
HETATM   10  H   UNL     1     -13.347  13.802  66.074  1.00  0.00     0.000 HD 
BRANCH   7  11
HETATM   11  C   UNL     1     -11.765  12.477  67.664  1.00  0.00    -0.361 C  
HETATM   12  O   UNL     1     -12.228  11.615  68.416  1.00  0.00    -0.498 OA 
BRANCH  11  13
HETATM   13  C   UNL     1     -11.495  13.814  68.253  1.00  0.00    -0.348 A  
HETATM   14  C   UNL     1     -12.134  14.118  69.466  1.00  0.00    -0.388 A  
HETATM   15  C   UNL     1     -11.904  15.338  70.103  1.00  0.00    -0.356 A  
HETATM   16  C   UNL     1     -11.034  16.264  69.533  1.00  0.00    -0.339 A  
HETATM   17  C   UNL     1     -10.425  15.989  68.306  1.00  0.00    -0.269 A  
HETATM   18  C   UNL     1     -10.674  14.778  67.655  1.00  0.00    -0.270 A  
HETATM   19  O   UNL     1     -10.120  14.554  66.425  1.00  0.00    -0.266 OA 
HETATM   20  H   UNL     1      -9.563  15.208  66.020  1.00  0.00     0.000 HD 
ENDBRANCH  11  13
ENDBRANCH   7  11
ENDBRANCH   2   3
TORSDOF 3
ENDMDL
MODEL      102
REMARK 921   NORMALIZED FREE ENERGY PREDICTED BY IDOCK:   -5.00 KCAL/MOL
REMARK 922        TOTAL FREE ENERGY PREDICTED BY IDOCK:   -6.50 KCAL/MOL
REMARK 923 INTER-LIGAND FREE ENERGY PREDICTED BY IDOCK:   -6.00 KCAL/MOL
REMARK 924 INTRA-LIGAND FREE ENERGY PREDICTED BY IDOCK:   -0.49 KCAL/MOL
REMARK 927      BINDING AFFINITY PREDICTED BY RF-SCORE:    0.00 PKD
ROOT
HETATM    1  C   UNL     1      -9.788  18.436  66.836  1.00  0.00    -0.338 C  
HETATM    2  O   UNL     1     -10.311  17.958  68.074  1.00  0.00    -0.352 OA 
ENDROOT
BRANCH   2   3
HETATM    3  C   UNL     1     -10.743  16.660  68.045  1.00  0.00    -0.350 A  
HETATM    4  C   UNL     1     -11.640  16.109  68.961  1.00  0.00    -0.298 A  
HETATM    5  C   UNL     1     -11.970  14.753  68.898  1.00  0.00    -0.263 A  
HETATM    6  O   UNL     1     -12.760  14.252  69.897  1.00  0.00    -0.480 OA 
HETATM    7  C   UNL     1     -11.455  13.934  67.886  1.00  0.00    -0.350 A  
HETATM    8  C   UNL     1     -10.242  15.867  67.015  1.00  0.00    -0.283 A  
HETATM    9  C   UNL     1     -10.592  14.514  66.938  1.00  0.00    -0.279 A  
HETATM   10  H   UNL     1     -12.985  13.331  69.854  1.00  0.00     0.000 HD 
BRANCH   7  11
HETATM   11  C   UNL     1     -11.684  12.465  67.770  1.00  0.00    -0.350 C  
HETATM   12  O   UNL     1     -12.265  12.035  66.770  1.00  0.00    -0.545 OA 
BRANCH  11  13
HETATM   13  C   UNL     1     -11.184  11.463  68.747  1.00  0.00    -0.308 A  
HETATM   14  C   UNL     1     -12.089  11.020  69.724  1.00  0.00    -0.424 A  
HETATM   15  C   UNL     1     -11.710  10.052  70.656  1.00  0.00    -0.421 A  
HETATM   16  C   UNL     1     -10.423   9.520  70.617  1.00  0.00    -0.374 A  
HETATM   17  C   UNL     1      -9.502   9.984  69.674  1.00  0.00    -0.247 A  
HETATM   18  C   UNL     1      -9.874  10.971  68.758  1.00  0.00    -0.198 A  
HETATM   19  O   UNL     1      -8.940  11.457  67.885  1.00  0.00    -0.143 OA 
HETATM   20  H   UNL     1      -8.052  11.123  67.892  1.00  0.00     0.000 HD 
ENDBRANCH  11  13
ENDBRANCH   7  11
ENDBRANCH   2   3
TORSDOF 3
ENDMDL
MODEL      103
REMARK 921   NORMALIZED FREE ENERGY PREDICTED BY IDOCK:   -4.99 KCAL/MOL
REMARK 922        TOTAL FREE ENERGY PREDICTED BY IDOCK:   -6.49 KCAL/MOL
REMARK 923 INTER-LIGAND FREE ENERGY PREDICTED BY IDOCK:   -5.97 KCAL/MOL
REMARK 924 INTRA-LIGAND FREE ENERGY PREDICTED BY IDOCK:   -0.52 KCAL/MOL
REMARK 927      BINDING AFFINITY PREDICTED BY RF-SCORE:    0.00 PKD
ROOT
HETATM    1  C   UNL     1      -6.419  19.175  68.037  1.00  0.00    -0.228 C  
HETATM    2  O   UNL     1      -7.817  19.312  68.287  1.00  0.00    -0.294 OA 
ENDROOT
BRANCH   2   3
HETATM    3  C   UNL     1      -8.570  18.233  67.912  1.00  0.00    -0.258 A  
HETATM    4  C   UNL     1      -9.103  18.052  66.635  1.00  0.00    -0.290 A  
HETATM    5  C   UNL     1      -9.923  16.954  66.361  1.00  0.00    -0.309 A  
HETATM    6  O   UNL     1     -10.508  16.902  65.125  1.00  0.00    -0.663 OA 
HETATM    7  C   UNL     1     -10.180  15.987  67.340  1.00  0.00    -0.273 A  
HETATM    8  C   UNL     1      -8.793  17.267  68.890  1.00  0.00    -0.173 A  
HETATM    9  C   UNL     1      -9.594  16.155  68.608  1.00  0.00    -0.226 A  
HETATM   10  H   UNL     1     -11.065  16.155  64.939  1.00  0.00     0.000 HD 
BRANCH   7  11
HETATM   11  C   UNL     1     -11.094  14.821  67.175  1.00  0.00    -0.333 C  
HETATM   12  O   UNL     1     -11.563  14.591  66.058  1.00  0.00    -0.356 OA 
BRANCH  11  13
HETATM   13  C   UNL     1     -11.420  13.857  68.258  1.00  0.00    -0.346 A  
HETATM   14  C   UNL     1     -10.938  12.546  68.110  1.00  0.00    -0.260 A  
HETATM   15  C   UNL     1     -11.169  11.589  69.100  1.00  0.00    -0.337 A  
HETATM   16  C   UNL     1     -11.884  11.935  70.244  1.00  0.00    -0.368 A  
HETATM   17  C   UNL     1     -12.403  13.225  70.382  1.00  0.00    -0.365 A  
HETATM   18  C   UNL     1     -12.193  14.176  69.380  1.00  0.00    -0.287 A  
HETATM   19  O   UNL     1     -12.763  15.413  69.503  1.00  0.00    -0.604 OA 
HETATM   20  H   UNL     1     -13.287  15.630  70.265  1.00  0.00     0.000 HD 
ENDBRANCH  11  13
ENDBRANCH   7  11
ENDBRANCH   2   3
TORSDOF 3
ENDMDL
MODEL      104
REMARK 921   NORMALIZED FREE ENERGY PREDICTED BY IDOCK:   -4.98 KCAL/MOL
REMARK 922        TOTAL FREE ENERGY PREDICTED BY IDOCK:   -6.48 KCAL/MOL
REMARK 923 INTER-LIGAND FREE ENERGY PREDICTED BY IDOCK:   -5.52 KCAL/MOL
REMARK 924 INTRA-LIGAND FREE ENERGY PREDICTED BY IDOCK:   -0.96 KCAL/MOL
REMARK 927      BINDING AFFINITY PREDICTED BY RF-SCORE:    0.00 PKD
ROOT
HETATM    1  C   UNL     1      -7.061  10.052  64.965  1.00  0.00    -0.136 C  
HETATM    2  O   UNL     1      -8.465  10.273  64.839  1.00  0.00    -0.165 OA 
ENDROOT
BRANCH   2   3
HETATM    3  C   UNL     1      -9.104  10.555  66.015  1.00  0.00    -0.168 A  
HETATM    4  C   UNL     1      -8.824  11.663  66.816  1.00  0.00    -0.184 A  
HETATM    5  C   UNL     1      -9.478  11.833  68.040  1.00  0.00    -0.188 A  
HETATM    6  O   UNL     1      -9.070  12.874  68.829  1.00  0.00    -0.388 OA 
HETATM    7  C   UNL     1     -10.462  10.930  68.460  1.00  0.00    -0.209 A  
HETATM    8  C   UNL     1     -10.100   9.662  66.405  1.00  0.00    -0.317 A  
HETATM    9  C   UNL     1     -10.771   9.846  67.619  1.00  0.00    -0.339 A  
HETATM   10  H   UNL     1      -9.515  12.989  69.660  1.00  0.00     0.000 HD 
BRANCH   7  11
HETATM   11  C   UNL     1     -11.165  10.978  69.774  1.00  0.00    -0.268 C  
HETATM   12  O   UNL     1     -11.792  11.998  70.072  1.00  0.00    -0.323 OA 
BRANCH  11  13
HETATM   13  C   UNL     1     -11.233   9.839  70.726  1.00  0.00    -0.419 A  
HETATM   14  C   UNL     1     -10.012   9.325  71.193  1.00  0.00    -0.356 A  
HETATM   15  C   UNL     1      -9.990   8.280  72.118  1.00  0.00    -0.343 A  
HETATM   16  C   UNL     1     -11.187   7.741  72.584  1.00  0.00    -0.438 A  
HETATM   17  C   UNL     1     -12.406   8.218  72.094  1.00  0.00    -0.410 A  
HETATM   18  C   UNL     1     -12.428   9.247  71.150  1.00  0.00    -0.272 A  
HETATM   19  O   UNL     1     -13.628   9.656  70.636  1.00  0.00    -0.599 OA 
HETATM   20  H   UNL     1     -14.439   9.254  70.923  1.00  0.00     0.000 HD 
ENDBRANCH  11  13
ENDBRANCH   7  11
ENDBRANCH   2   3
TORSDOF 3
ENDMDL
MODEL      105
REMARK 921   NORMALIZED FREE ENERGY PREDICTED BY IDOCK:   -4.98 KCAL/MOL
REMARK 922        TOTAL FREE ENERGY PREDICTED BY IDOCK:   -6.47 KCAL/MOL
REMARK 923 INTER-LIGAND FREE ENERGY PREDICTED BY IDOCK:   -5.72 KCAL/MOL
REMARK 924 INTRA-LIGAND FREE ENERGY PREDICTED BY IDOCK:   -0.75 KCAL/MOL
REMARK 927      BINDING AFFINITY PREDICTED BY RF-SCORE:    0.00 PKD
ROOT
HETATM    1  C   UNL     1     -11.096  15.257  69.162  1.00  0.00    -0.263 C  
HETATM    2  O   UNL     1     -10.528  14.466  68.120  1.00  0.00    -0.230 OA 
ENDROOT
BRANCH   2   3
HETATM    3  C   UNL     1     -10.605  13.116  68.325  1.00  0.00    -0.248 A  
HETATM    4  C   UNL     1     -11.769  12.442  68.697  1.00  0.00    -0.372 A  
HETATM    5  C   UNL     1     -11.738  11.069  68.956  1.00  0.00    -0.333 A  
HETATM    6  O   UNL     1     -12.885  10.495  69.432  1.00  0.00    -0.654 OA 
HETATM    7  C   UNL     1     -10.558  10.333  68.794  1.00  0.00    -0.231 A  
HETATM    8  C   UNL     1      -9.428  12.395  68.131  1.00  0.00    -0.214 A  
HETATM    9  C   UNL     1      -9.404  11.016  68.367  1.00  0.00    -0.179 A  
HETATM   10  H   UNL     1     -12.863   9.561  69.608  1.00  0.00     0.000 HD 
BRANCH   7  11
HETATM   11  C   UNL     1     -10.398   8.886  69.111  1.00  0.00    -0.220 C  
HETATM   12  O   UNL     1     -10.054   8.117  68.209  1.00  0.00    -0.185 OA 
BRANCH  11  13
HETATM   13  C   UNL     1     -10.548   8.308  70.471  1.00  0.00    -0.233 A  
HETATM   14  C   UNL     1      -9.685   8.792  71.468  1.00  0.00    -0.361 A  
HETATM   15  C   UNL     1      -9.786   8.328  72.781  1.00  0.00    -0.336 A  
HETATM   16  C   UNL     1     -10.749   7.375  73.107  1.00  0.00    -0.436 A  
HETATM   17  C   UNL     1     -11.584   6.857  72.114  1.00  0.00    -0.322 A  
HETATM   18  C   UNL     1     -11.467   7.303  70.795  1.00  0.00    -0.299 A  
HETATM   19  O   UNL     1     -12.250   6.738  69.827  1.00  0.00    -0.610 OA 
HETATM   20  H   UNL     1     -12.874   6.057  70.046  1.00  0.00     0.000 HD 
ENDBRANCH  11  13
ENDBRANCH   7  11
ENDBRANCH   2   3
TORSDOF 3
ENDMDL
MODEL      106
REMARK 921   NORMALIZED FREE ENERGY PREDICTED BY IDOCK:   -4.97 KCAL/MOL
REMARK 922        TOTAL FREE ENERGY PREDICTED BY IDOCK:   -6.46 KCAL/MOL
REMARK 923 INTER-LIGAND FREE ENERGY PREDICTED BY IDOCK:   -5.79 KCAL/MOL
REMARK 924 INTRA-LIGAND FREE ENERGY PREDICTED BY IDOCK:   -0.67 KCAL/MOL
REMARK 927      BINDING AFFINITY PREDICTED BY RF-SCORE:    0.00 PKD
ROOT
HETATM    1  C   UNL     1      -7.371   6.885  65.517  1.00  0.00    -0.079 C  
HETATM    2  O   UNL     1      -7.097   8.119  66.176  1.00  0.00    -0.061 OA 
ENDROOT
BRANCH   2   3
HETATM    3  C   UNL     1      -8.156   8.984  66.226  1.00  0.00    -0.110 A  
HETATM    4  C   UNL     1      -8.935   9.338  65.123  1.00  0.00    -0.257 A  
HETATM    5  C   UNL     1      -9.953  10.287  65.254  1.00  0.00    -0.317 A  
HETATM    6  O   UNL     1     -10.597  10.676  64.111  1.00  0.00    -0.434 OA 
HETATM    7  C   UNL     1     -10.249  10.857  66.497  1.00  0.00    -0.282 A  
HETATM    8  C   UNL     1      -8.455   9.521  67.476  1.00  0.00    -0.126 A  
HETATM    9  C   UNL     1      -9.490  10.453  67.610  1.00  0.00    -0.165 A  
HETATM   10  H   UNL     1     -11.289  11.320  64.199  1.00  0.00     0.000 HD 
BRANCH   7  11
HETATM   11  C   UNL     1     -11.261  11.926  66.732  1.00  0.00    -0.327 C  
HETATM   12  O   UNL     1     -12.129  11.741  67.589  1.00  0.00    -0.598 OA 
BRANCH  11  13
HETATM   13  C   UNL     1     -11.251  13.249  66.054  1.00  0.00    -0.316 A  
HETATM   14  C   UNL     1     -10.225  14.139  66.410  1.00  0.00    -0.292 A  
HETATM   15  C   UNL     1     -10.123  15.387  65.792  1.00  0.00    -0.391 A  
HETATM   16  C   UNL     1     -11.046  15.754  64.816  1.00  0.00    -0.413 A  
HETATM   17  C   UNL     1     -12.095  14.892  64.485  1.00  0.00    -0.420 A  
HETATM   18  C   UNL     1     -12.211  13.653  65.119  1.00  0.00    -0.433 A  
HETATM   19  O   UNL     1     -13.280  12.851  64.828  1.00  0.00    -0.764 OA 
HETATM   20  H   UNL     1     -13.931  13.126  64.194  1.00  0.00     0.000 HD 
ENDBRANCH  11  13
ENDBRANCH   7  11
ENDBRANCH   2   3
TORSDOF 3
ENDMDL
MODEL      107
REMARK 921   NORMALIZED FREE ENERGY PREDICTED BY IDOCK:   -4.96 KCAL/MOL
REMARK 922        TOTAL FREE ENERGY PREDICTED BY IDOCK:   -6.46 KCAL/MOL
REMARK 923 INTER-LIGAND FREE ENERGY PREDICTED BY IDOCK:   -5.78 KCAL/MOL
REMARK 924 INTRA-LIGAND FREE ENERGY PREDICTED BY IDOCK:   -0.68 KCAL/MOL
REMARK 927      BINDING AFFINITY PREDICTED BY RF-SCORE:    0.00 PKD
ROOT
HETATM    1  C   UNL     1     -13.400  15.362  71.610  1.00  0.00    -0.490 C  
HETATM    2  O   UNL     1     -12.356  14.392  71.548  1.00  0.00    -0.336 OA 
ENDROOT
BRANCH   2   3
HETATM    3  C   UNL     1     -12.159  13.847  70.308  1.00  0.00    -0.353 A  
HETATM    4  C   UNL     1     -12.198  12.479  70.035  1.00  0.00    -0.262 A  
HETATM    5  C   UNL     1     -11.913  12.007  68.751  1.00  0.00    -0.244 A  
HETATM    6  O   UNL     1     -11.852  10.651  68.581  1.00  0.00    -0.612 OA 
HETATM    7  C   UNL     1     -11.638  12.895  67.703  1.00  0.00    -0.406 A  
HETATM    8  C   UNL     1     -11.915  14.746  69.272  1.00  0.00    -0.329 A  
HETATM    9  C   UNL     1     -11.653  14.274  67.981  1.00  0.00    -0.364 A  
HETATM   10  H   UNL     1     -11.658  10.330  67.708  1.00  0.00     0.000 HD 
BRANCH   7  11
HETATM   11  C   UNL     1     -11.252  12.496  66.320  1.00  0.00    -0.315 C  
HETATM   12  O   UNL     1     -11.989  12.818  65.384  1.00  0.00    -0.385 OA 
BRANCH  11  13
HETATM   13  C   UNL     1      -9.985  11.800  65.975  1.00  0.00    -0.258 A  
HETATM   14  C   UNL     1      -8.892  12.003  66.832  1.00  0.00    -0.197 A  
HETATM   15  C   UNL     1      -7.677  11.355  66.599  1.00  0.00    -0.129 A  
HETATM   16  C   UNL     1      -7.546  10.501  65.507  1.00  0.00    -0.120 A  
HETATM   17  C   UNL     1      -8.615  10.324  64.625  1.00  0.00    -0.194 A  
HETATM   18  C   UNL     1      -9.823  10.991  64.844  1.00  0.00    -0.274 A  
HETATM   19  O   UNL     1     -10.836  10.855  63.935  1.00  0.00    -0.509 OA 
HETATM   20  H   UNL     1     -10.726  10.306  63.168  1.00  0.00     0.000 HD 
ENDBRANCH  11  13
ENDBRANCH   7  11
ENDBRANCH   2   3
TORSDOF 3
ENDMDL
MODEL      108
REMARK 921   NORMALIZED FREE ENERGY PREDICTED BY IDOCK:   -4.96 KCAL/MOL
REMARK 922        TOTAL FREE ENERGY PREDICTED BY IDOCK:   -6.46 KCAL/MOL
REMARK 923 INTER-LIGAND FREE ENERGY PREDICTED BY IDOCK:   -5.73 KCAL/MOL
REMARK 924 INTRA-LIGAND FREE ENERGY PREDICTED BY IDOCK:   -0.73 KCAL/MOL
REMARK 927      BINDING AFFINITY PREDICTED BY RF-SCORE:    0.00 PKD
ROOT
HETATM    1  C   UNL     1     -11.745   8.686  71.914  1.00  0.00    -0.352 C  
HETATM    2  O   UNL     1     -11.162   8.052  70.778  1.00  0.00    -0.261 OA 
ENDROOT
BRANCH   2   3
HETATM    3  C   UNL     1     -10.696   8.914  69.822  1.00  0.00    -0.225 A  
HETATM    4  C   UNL     1     -10.581  10.293  69.997  1.00  0.00    -0.321 A  
HETATM    5  C   UNL     1     -10.163  11.106  68.940  1.00  0.00    -0.194 A  
HETATM    6  O   UNL     1     -10.187  12.459  69.142  1.00  0.00    -0.422 OA 
HETATM    7  C   UNL     1      -9.799  10.552  67.707  1.00  0.00    -0.188 A  
HETATM    8  C   UNL     1     -10.312   8.342  68.612  1.00  0.00    -0.225 A  
HETATM    9  C   UNL     1      -9.870   9.154  67.561  1.00  0.00    -0.227 A  
HETATM   10  H   UNL     1      -9.903  13.012  68.423  1.00  0.00     0.000 HD 
BRANCH   7  11
HETATM   11  C   UNL     1      -9.411  11.330  66.497  1.00  0.00    -0.185 C  
HETATM   12  O   UNL     1      -8.213  11.532  66.283  1.00  0.00    -0.142 OA 
BRANCH  11  13
HETATM   13  C   UNL     1     -10.372  11.817  65.473  1.00  0.00    -0.304 A  
HETATM   14  C   UNL     1     -11.612  12.286  65.936  1.00  0.00    -0.450 A  
HETATM   15  C   UNL     1     -12.556  12.795  65.042  1.00  0.00    -0.538 A  
HETATM   16  C   UNL     1     -12.268  12.839  63.680  1.00  0.00    -0.597 A  
HETATM   17  C   UNL     1     -11.053  12.336  63.205  1.00  0.00    -0.389 A  
HETATM   18  C   UNL     1     -10.118  11.805  64.097  1.00  0.00    -0.310 A  
HETATM   19  O   UNL     1      -8.963  11.260  63.607  1.00  0.00    -0.398 OA 
HETATM   20  H   UNL     1      -8.791  11.251  62.673  1.00  0.00     0.000 HD 
ENDBRANCH  11  13
ENDBRANCH   7  11
ENDBRANCH   2   3
TORSDOF 3
ENDMDL
MODEL      109
REMARK 921   NORMALIZED FREE ENERGY PREDICTED BY IDOCK:   -4.94 KCAL/MOL
REMARK 922        TOTAL FREE ENERGY PREDICTED BY IDOCK:   -6.43 KCAL/MOL
REMARK 923 INTER-LIGAND FREE ENERGY PREDICTED BY IDOCK:   -5.85 KCAL/MOL
REMARK 924 INTRA-LIGAND FREE ENERGY PREDICTED BY IDOCK:   -0.59 KCAL/MOL
REMARK 927      BINDING AFFINITY PREDICTED BY RF-SCORE:    0.00 PKD
ROOT
HETATM    1  C   UNL     1      -7.973   7.464  69.349  1.00  0.00    -0.124 C  
HETATM    2  O   UNL     1      -9.324   7.537  68.897  1.00  0.00    -0.143 OA 
ENDROOT
BRANCH   2   3
HETATM    3  C   UNL     1      -9.494   8.218  67.722  1.00  0.00    -0.149 A  
HETATM    4  C   UNL     1      -8.963   7.815  66.496  1.00  0.00    -0.191 A  
HETATM    5  C   UNL     1      -9.127   8.612  65.360  1.00  0.00    -0.090 A  
HETATM    6  O   UNL     1      -8.481   8.218  64.220  1.00  0.00    -0.354 OA 
HETATM    7  C   UNL     1      -9.870   9.797  65.414  1.00  0.00    -0.365 A  
HETATM    8  C   UNL     1     -10.259   9.380  67.789  1.00  0.00    -0.273 A  
HETATM    9  C   UNL     1     -10.443  10.165  66.645  1.00  0.00    -0.254 A  
HETATM   10  H   UNL     1      -8.592   8.760  63.448  1.00  0.00     0.000 HD 
BRANCH   7  11
HETATM   11  C   UNL     1     -10.044  10.754  64.284  1.00  0.00    -0.361 C  
HETATM   12  O   UNL     1      -9.633  10.429  63.167  1.00  0.00    -0.306 OA 
BRANCH  11  13
HETATM   13  C   UNL     1     -10.758  12.052  64.392  1.00  0.00    -0.369 A  
HETATM   14  C   UNL     1     -10.227  13.000  65.281  1.00  0.00    -0.294 A  
HETATM   15  C   UNL     1     -10.817  14.258  65.413  1.00  0.00    -0.348 A  
HETATM   16  C   UNL     1     -11.943  14.578  64.658  1.00  0.00    -0.478 A  
HETATM   17  C   UNL     1     -12.504  13.627  63.801  1.00  0.00    -0.262 A  
HETATM   18  C   UNL     1     -11.928  12.360  63.687  1.00  0.00    -0.539 A  
HETATM   19  O   UNL     1     -12.528  11.422  62.892  1.00  0.00    -0.949 OA 
HETATM   20  H   UNL     1     -13.321  11.631  62.414  1.00  0.00     0.000 HD 
ENDBRANCH  11  13
ENDBRANCH   7  11
ENDBRANCH   2   3
TORSDOF 3
ENDMDL
MODEL      110
REMARK 921   NORMALIZED FREE ENERGY PREDICTED BY IDOCK:   -4.93 KCAL/MOL
REMARK 922        TOTAL FREE ENERGY PREDICTED BY IDOCK:   -6.42 KCAL/MOL
REMARK 923 INTER-LIGAND FREE ENERGY PREDICTED BY IDOCK:   -5.73 KCAL/MOL
REMARK 924 INTRA-LIGAND FREE ENERGY PREDICTED BY IDOCK:   -0.69 KCAL/MOL
REMARK 927      BINDING AFFINITY PREDICTED BY RF-SCORE:    0.00 PKD
ROOT
HETATM    1  C   UNL     1     -12.237  14.824  64.450  1.00  0.00    -0.428 C  
HETATM    2  O   UNL     1     -12.819  13.729  65.155  1.00  0.00    -0.695 OA 
ENDROOT
BRANCH   2   3
HETATM    3  C   UNL     1     -11.938  12.737  65.491  1.00  0.00    -0.449 A  
HETATM    4  C   UNL     1     -11.330  11.880  64.573  1.00  0.00    -0.382 A  
HETATM    5  C   UNL     1     -10.499  10.847  65.014  1.00  0.00    -0.261 A  
HETATM    6  O   UNL     1     -10.032   9.972  64.071  1.00  0.00    -0.460 OA 
HETATM    7  C   UNL     1     -10.214  10.685  66.375  1.00  0.00    -0.291 A  
HETATM    8  C   UNL     1     -11.645  12.608  66.847  1.00  0.00    -0.438 A  
HETATM    9  C   UNL     1     -10.793  11.588  67.286  1.00  0.00    -0.301 A  
HETATM   10  H   UNL     1      -9.467   9.270  64.371  1.00  0.00     0.000 HD 
BRANCH   7  11
HETATM   11  C   UNL     1      -9.403   9.578  66.956  1.00  0.00    -0.148 C  
HETATM   12  O   UNL     1      -8.394   9.204  66.352  1.00  0.00    -0.119 OA 
BRANCH  11  13
HETATM   13  C   UNL     1      -9.680   8.940  68.269  1.00  0.00    -0.174 A  
HETATM   14  C   UNL     1      -9.033   9.483  69.391  1.00  0.00    -0.174 A  
HETATM   15  C   UNL     1      -9.268   8.964  70.666  1.00  0.00    -0.256 A  
HETATM   16  C   UNL     1     -10.152   7.900  70.829  1.00  0.00    -0.201 A  
HETATM   17  C   UNL     1     -10.769   7.326  69.714  1.00  0.00    -0.253 A  
HETATM   18  C   UNL     1     -10.515   7.829  68.436  1.00  0.00    -0.166 A  
HETATM   19  O   UNL     1     -11.078   7.214  67.352  1.00  0.00    -0.536 OA 
HETATM   20  H   UNL     1     -11.645   6.460  67.464  1.00  0.00     0.000 HD 
ENDBRANCH  11  13
ENDBRANCH   7  11
ENDBRANCH   2   3
TORSDOF 3
ENDMDL
MODEL      111
REMARK 921   NORMALIZED FREE ENERGY PREDICTED BY IDOCK:   -4.87 KCAL/MOL
REMARK 922        TOTAL FREE ENERGY PREDICTED BY IDOCK:   -6.35 KCAL/MOL
REMARK 923 INTER-LIGAND FREE ENERGY PREDICTED BY IDOCK:   -5.76 KCAL/MOL
REMARK 924 INTRA-LIGAND FREE ENERGY PREDICTED BY IDOCK:   -0.58 KCAL/MOL
REMARK 927      BINDING AFFINITY PREDICTED BY RF-SCORE:    0.00 PKD
ROOT
HETATM    1  C   UNL     1     -10.556  18.836  67.162  1.00  0.00    -0.428 C  
HETATM    2  O   UNL     1      -9.983  18.104  68.243  1.00  0.00    -0.328 OA 
ENDROOT
BRANCH   2   3
HETATM    3  C   UNL     1     -10.256  16.763  68.230  1.00  0.00    -0.295 A  
HETATM    4  C   UNL     1     -11.270  16.175  67.473  1.00  0.00    -0.094 A  
HETATM    5  C   UNL     1     -11.524  14.805  67.577  1.00  0.00    -0.354 A  
HETATM    6  O   UNL     1     -12.607  14.315  66.900  1.00  0.00    -0.565 OA 
HETATM    7  C   UNL     1     -10.736  13.987  68.397  1.00  0.00    -0.261 A  
HETATM    8  C   UNL     1      -9.445  15.961  69.029  1.00  0.00    -0.247 A  
HETATM    9  C   UNL     1      -9.685  14.585  69.115  1.00  0.00    -0.062 A  
HETATM   10  H   UNL     1     -12.780  13.384  66.971  1.00  0.00     0.000 HD 
BRANCH   7  11
HETATM   11  C   UNL     1     -10.966  12.534  68.635  1.00  0.00    -0.255 C  
HETATM   12  O   UNL     1     -10.467  11.721  67.853  1.00  0.00    -0.188 OA 
BRANCH  11  13
HETATM   13  C   UNL     1     -11.695  11.986  69.808  1.00  0.00    -0.390 A  
HETATM   14  C   UNL     1     -12.407  12.901  70.601  1.00  0.00    -0.385 A  
HETATM   15  C   UNL     1     -13.148  12.461  71.700  1.00  0.00    -0.408 A  
HETATM   16  C   UNL     1     -13.183  11.105  72.013  1.00  0.00    -0.428 A  
HETATM   17  C   UNL     1     -12.446  10.192  71.255  1.00  0.00    -0.510 A  
HETATM   18  C   UNL     1     -11.685  10.634  70.171  1.00  0.00    -0.332 A  
HETATM   19  O   UNL     1     -10.920   9.735  69.480  1.00  0.00    -0.232 OA 
HETATM   20  H   UNL     1     -10.912   8.817  69.726  1.00  0.00     0.000 HD 
ENDBRANCH  11  13
ENDBRANCH   7  11
ENDBRANCH   2   3
TORSDOF 3
ENDMDL
MODEL      112
REMARK 921   NORMALIZED FREE ENERGY PREDICTED BY IDOCK:   -4.87 KCAL/MOL
REMARK 922        TOTAL FREE ENERGY PREDICTED BY IDOCK:   -6.34 KCAL/MOL
REMARK 923 INTER-LIGAND FREE ENERGY PREDICTED BY IDOCK:   -5.62 KCAL/MOL
REMARK 924 INTRA-LIGAND FREE ENERGY PREDICTED BY IDOCK:   -0.72 KCAL/MOL
REMARK 927      BINDING AFFINITY PREDICTED BY RF-SCORE:    0.00 PKD
ROOT
HETATM    1  C   UNL     1      -7.668   8.408  71.166  1.00  0.00    -0.100 C  
HETATM    2  O   UNL     1      -8.649   8.158  70.162  1.00  0.00    -0.125 OA 
ENDROOT
BRANCH   2   3
HETATM    3  C   UNL     1      -9.206   9.283  69.617  1.00  0.00    -0.175 A  
HETATM    4  C   UNL     1     -10.577   9.538  69.569  1.00  0.00    -0.238 A  
HETATM    5  C   UNL     1     -11.060  10.682  68.928  1.00  0.00    -0.261 A  
HETATM    6  O   UNL     1     -12.418  10.809  68.812  1.00  0.00    -0.793 OA 
HETATM    7  C   UNL     1     -10.182  11.620  68.372  1.00  0.00    -0.211 A  
HETATM    8  C   UNL     1      -8.316  10.219  69.095  1.00  0.00    -0.154 A  
HETATM    9  C   UNL     1      -8.800  11.376  68.474  1.00  0.00    -0.151 A  
HETATM   10  H   UNL     1     -12.746  11.586  68.376  1.00  0.00     0.000 HD 
BRANCH   7  11
HETATM   11  C   UNL     1     -10.592  12.831  67.606  1.00  0.00    -0.219 C  
HETATM   12  O   UNL     1     -10.536  13.930  68.164  1.00  0.00    -0.233 OA 
BRANCH  11  13
HETATM   13  C   UNL     1     -10.992  12.818  66.175  1.00  0.00    -0.310 A  
HETATM   14  C   UNL     1     -10.216  12.037  65.304  1.00  0.00    -0.304 A  
HETATM   15  C   UNL     1     -10.548  11.942  63.951  1.00  0.00    -0.444 A  
HETATM   16  C   UNL     1     -11.657  12.627  63.460  1.00  0.00    -0.584 A  
HETATM   17  C   UNL     1     -12.411  13.439  64.310  1.00  0.00    -0.396 A  
HETATM   18  C   UNL     1     -12.065  13.554  65.659  1.00  0.00    -0.430 A  
HETATM   19  O   UNL     1     -12.776  14.403  66.461  1.00  0.00    -0.493 OA 
HETATM   20  H   UNL     1     -13.504  14.902  66.111  1.00  0.00     0.000 HD 
ENDBRANCH  11  13
ENDBRANCH   7  11
ENDBRANCH   2   3
TORSDOF 3
ENDMDL
MODEL      113
REMARK 921   NORMALIZED FREE ENERGY PREDICTED BY IDOCK:   -4.86 KCAL/MOL
REMARK 922        TOTAL FREE ENERGY PREDICTED BY IDOCK:   -6.33 KCAL/MOL
REMARK 923 INTER-LIGAND FREE ENERGY PREDICTED BY IDOCK:   -5.52 KCAL/MOL
REMARK 924 INTRA-LIGAND FREE ENERGY PREDICTED BY IDOCK:   -0.82 KCAL/MOL
REMARK 927      BINDING AFFINITY PREDICTED BY RF-SCORE:    0.00 PKD
ROOT
HETATM    1  C   UNL     1     -10.694   5.857  69.950  1.00  0.00    -0.336 C  
HETATM    2  O   UNL     1     -10.997   7.192  70.349  1.00  0.00    -0.249 OA 
ENDROOT
BRANCH   2   3
HETATM    3  C   UNL     1     -10.760   8.140  69.391  1.00  0.00    -0.156 A  
HETATM    4  C   UNL     1     -10.616   7.865  68.031  1.00  0.00    -0.194 A  
HETATM    5  C   UNL     1     -10.302   8.888  67.133  1.00  0.00    -0.281 A  
HETATM    6  O   UNL     1     -10.057   8.530  65.835  1.00  0.00    -0.445 OA 
HETATM    7  C   UNL     1     -10.182  10.214  67.567  1.00  0.00    -0.257 A  
HETATM    8  C   UNL     1     -10.671   9.457  69.837  1.00  0.00    -0.258 A  
HETATM    9  C   UNL     1     -10.381  10.485  68.933  1.00  0.00    -0.226 A  
HETATM   10  H   UNL     1      -9.845   9.226  65.224  1.00  0.00     0.000 HD 
BRANCH   7  11
HETATM   11  C   UNL     1      -9.782  11.365  66.709  1.00  0.00    -0.198 C  
HETATM   12  O   UNL     1      -8.580  11.605  66.565  1.00  0.00    -0.179 OA 
BRANCH  11  13
HETATM   13  C   UNL     1     -10.736  12.205  65.940  1.00  0.00    -0.302 A  
HETATM   14  C   UNL     1     -11.485  13.145  66.665  1.00  0.00    -0.389 A  
HETATM   15  C   UNL     1     -12.377  13.999  66.012  1.00  0.00    -0.504 A  
HETATM   16  C   UNL     1     -12.526  13.917  64.630  1.00  0.00    -0.361 A  
HETATM   17  C   UNL     1     -11.817  12.957  63.904  1.00  0.00    -0.541 A  
HETATM   18  C   UNL     1     -10.943  12.087  64.560  1.00  0.00    -0.318 A  
HETATM   19  O   UNL     1     -10.306  11.113  63.842  1.00  0.00    -0.324 OA 
HETATM   20  H   UNL     1     -10.446  11.033  62.906  1.00  0.00     0.000 HD 
ENDBRANCH  11  13
ENDBRANCH   7  11
ENDBRANCH   2   3
TORSDOF 3
ENDMDL
MODEL      114
REMARK 921   NORMALIZED FREE ENERGY PREDICTED BY IDOCK:   -4.83 KCAL/MOL
REMARK 922        TOTAL FREE ENERGY PREDICTED BY IDOCK:   -6.30 KCAL/MOL
REMARK 923 INTER-LIGAND FREE ENERGY PREDICTED BY IDOCK:   -5.48 KCAL/MOL
REMARK 924 INTRA-LIGAND FREE ENERGY PREDICTED BY IDOCK:   -0.82 KCAL/MOL
REMARK 927      BINDING AFFINITY PREDICTED BY RF-SCORE:    0.00 PKD
ROOT
HETATM    1  C   UNL     1     -14.380  14.077  72.172  1.00  0.00    -0.487 C  
HETATM    2  O   UNL     1     -12.994  14.337  72.381  1.00  0.00    -0.360 OA 
ENDROOT
BRANCH   2   3
HETATM    3  C   UNL     1     -12.265  14.495  71.234  1.00  0.00    -0.355 A  
HETATM    4  C   UNL     1     -11.464  15.603  70.957  1.00  0.00    -0.439 A  
HETATM    5  C   UNL     1     -10.812  15.713  69.726  1.00  0.00    -0.308 A  
HETATM    6  O   UNL     1     -10.141  16.879  69.474  1.00  0.00    -0.200 OA 
HETATM    7  C   UNL     1     -10.902  14.693  68.771  1.00  0.00    -0.261 A  
HETATM    8  C   UNL     1     -12.344  13.458  70.307  1.00  0.00    -0.354 A  
HETATM    9  C   UNL     1     -11.671  13.557  69.084  1.00  0.00    -0.374 A  
HETATM   10  H   UNL     1      -9.698  16.953  68.637  1.00  0.00     0.000 HD 
BRANCH   7  11
HETATM   11  C   UNL     1     -10.308  14.741  67.405  1.00  0.00    -0.242 C  
HETATM   12  O   UNL     1     -10.007  15.839  66.930  1.00  0.00    -0.234 OA 
BRANCH  11  13
HETATM   13  C   UNL     1      -9.973  13.540  66.597  1.00  0.00    -0.282 A  
HETATM   14  C   UNL     1      -9.035  12.648  67.140  1.00  0.00    -0.205 A  
HETATM   15  C   UNL     1      -8.694  11.476  66.461  1.00  0.00    -0.183 A  
HETATM   16  C   UNL     1      -9.288  11.189  65.234  1.00  0.00    -0.243 A  
HETATM   17  C   UNL     1     -10.191  12.091  64.666  1.00  0.00    -0.313 A  
HETATM   18  C   UNL     1     -10.515  13.274  65.334  1.00  0.00    -0.297 A  
HETATM   19  O   UNL     1     -11.352  14.173  64.733  1.00  0.00    -0.342 OA 
HETATM   20  H   UNL     1     -11.719  13.993  63.876  1.00  0.00     0.000 HD 
ENDBRANCH  11  13
ENDBRANCH   7  11
ENDBRANCH   2   3
TORSDOF 3
ENDMDL
MODEL      115
REMARK 921   NORMALIZED FREE ENERGY PREDICTED BY IDOCK:   -4.80 KCAL/MOL
REMARK 922        TOTAL FREE ENERGY PREDICTED BY IDOCK:   -6.27 KCAL/MOL
REMARK 923 INTER-LIGAND FREE ENERGY PREDICTED BY IDOCK:   -5.37 KCAL/MOL
REMARK 924 INTRA-LIGAND FREE ENERGY PREDICTED BY IDOCK:   -0.89 KCAL/MOL
REMARK 927      BINDING AFFINITY PREDICTED BY RF-SCORE:    0.00 PKD
ROOT
HETATM    1  C   UNL     1      -8.610   7.105  67.110  1.00  0.00    -0.121 C  
HETATM    2  O   UNL     1      -9.803   7.597  66.504  1.00  0.00    -0.216 OA 
ENDROOT
BRANCH   2   3
HETATM    3  C   UNL     1     -10.151   8.866  66.880  1.00  0.00    -0.273 A  
HETATM    4  C   UNL     1     -11.003   9.165  67.944  1.00  0.00    -0.035 A  
HETATM    5  C   UNL     1     -11.361  10.489  68.211  1.00  0.00    -0.264 A  
HETATM    6  O   UNL     1     -12.292  10.701  69.191  1.00  0.00    -0.725 OA 
HETATM    7  C   UNL     1     -10.832  11.543  67.457  1.00  0.00    -0.285 A  
HETATM    8  C   UNL     1      -9.593   9.903  66.137  1.00  0.00    -0.275 A  
HETATM    9  C   UNL     1      -9.933  11.231  66.420  1.00  0.00    -0.252 A  
HETATM   10  H   UNL     1     -12.535  11.601  69.373  1.00  0.00     0.000 HD 
BRANCH   7  11
HETATM   11  C   UNL     1     -11.201  12.979  67.611  1.00  0.00    -0.280 C  
HETATM   12  O   UNL     1     -11.404  13.419  68.745  1.00  0.00    -0.255 OA 
BRANCH  11  13
HETATM   13  C   UNL     1     -11.265  13.949  66.487  1.00  0.00    -0.327 A  
HETATM   14  C   UNL     1     -12.233  13.716  65.497  1.00  0.00    -0.476 A  
HETATM   15  C   UNL     1     -12.382  14.602  64.428  1.00  0.00    -0.420 A  
HETATM   16  C   UNL     1     -11.565  15.726  64.341  1.00  0.00    -0.240 A  
HETATM   17  C   UNL     1     -10.570  15.944  65.298  1.00  0.00    -0.441 A  
HETATM   18  C   UNL     1     -10.405  15.046  66.354  1.00  0.00    -0.287 A  
HETATM   19  O   UNL     1      -9.386  15.242  67.245  1.00  0.00    -0.199 OA 
HETATM   20  H   UNL     1      -8.802  15.986  67.155  1.00  0.00     0.000 HD 
ENDBRANCH  11  13
ENDBRANCH   7  11
ENDBRANCH   2   3
TORSDOF 3
ENDMDL
MODEL      116
REMARK 921   NORMALIZED FREE ENERGY PREDICTED BY IDOCK:   -4.80 KCAL/MOL
REMARK 922        TOTAL FREE ENERGY PREDICTED BY IDOCK:   -6.26 KCAL/MOL
REMARK 923 INTER-LIGAND FREE ENERGY PREDICTED BY IDOCK:   -5.76 KCAL/MOL
REMARK 924 INTRA-LIGAND FREE ENERGY PREDICTED BY IDOCK:   -0.50 KCAL/MOL
REMARK 927      BINDING AFFINITY PREDICTED BY RF-SCORE:    0.00 PKD
ROOT
HETATM    1  C   UNL     1      -7.396  16.690  69.188  1.00  0.00    -0.217 C  
HETATM    2  O   UNL     1      -8.764  16.897  68.842  1.00  0.00    -0.259 OA 
ENDROOT
BRANCH   2   3
HETATM    3  C   UNL     1      -9.518  15.756  68.797  1.00  0.00    -0.219 A  
HETATM    4  C   UNL     1     -10.655  15.534  69.574  1.00  0.00    -0.258 A  
HETATM    5  C   UNL     1     -11.322  14.308  69.515  1.00  0.00    -0.269 A  
HETATM    6  O   UNL     1     -12.356  14.114  70.390  1.00  0.00    -0.319 OA 
HETATM    7  C   UNL     1     -10.900  13.301  68.638  1.00  0.00    -0.285 A  
HETATM    8  C   UNL     1      -9.100  14.777  67.899  1.00  0.00    -0.183 A  
HETATM    9  C   UNL     1      -9.783  13.558  67.822  1.00  0.00    -0.226 A  
HETATM   10  H   UNL     1     -12.810  13.280  70.350  1.00  0.00     0.000 HD 
BRANCH   7  11
HETATM   11  C   UNL     1     -11.493  11.937  68.549  1.00  0.00    -0.295 C  
HETATM   12  O   UNL     1     -12.006  11.584  67.483  1.00  0.00    -0.629 OA 
BRANCH  11  13
HETATM   13  C   UNL     1     -11.439  10.930  69.639  1.00  0.00    -0.377 A  
HETATM   14  C   UNL     1     -12.618  10.718  70.371  1.00  0.00    -0.395 A  
HETATM   15  C   UNL     1     -12.660   9.762  71.388  1.00  0.00    -0.482 A  
HETATM   16  C   UNL     1     -11.524   9.012  71.681  1.00  0.00    -0.431 A  
HETATM   17  C   UNL     1     -10.334   9.244  70.987  1.00  0.00    -0.388 A  
HETATM   18  C   UNL     1     -10.284  10.217  69.986  1.00  0.00    -0.220 A  
HETATM   19  O   UNL     1      -9.095  10.474  69.362  1.00  0.00    -0.310 OA 
HETATM   20  H   UNL     1      -8.312   9.990  69.597  1.00  0.00     0.000 HD 
ENDBRANCH  11  13
ENDBRANCH   7  11
ENDBRANCH   2   3
TORSDOF 3
ENDMDL
MODEL      117
REMARK 921   NORMALIZED FREE ENERGY PREDICTED BY IDOCK:   -4.79 KCAL/MOL
REMARK 922        TOTAL FREE ENERGY PREDICTED BY IDOCK:   -6.26 KCAL/MOL
REMARK 923 INTER-LIGAND FREE ENERGY PREDICTED BY IDOCK:   -5.60 KCAL/MOL
REMARK 924 INTRA-LIGAND FREE ENERGY PREDICTED BY IDOCK:   -0.66 KCAL/MOL
REMARK 927      BINDING AFFINITY PREDICTED BY RF-SCORE:    0.00 PKD
ROOT
HETATM    1  C   UNL     1     -12.778  11.443  70.984  1.00  0.00    -0.349 C  
HETATM    2  O   UNL     1     -11.678  11.352  70.080  1.00  0.00    -0.314 OA 
ENDROOT
BRANCH   2   3
HETATM    3  C   UNL     1     -11.381  12.517  69.428  1.00  0.00    -0.210 A  
HETATM    4  C   UNL     1     -12.025  13.734  69.658  1.00  0.00    -0.399 A  
HETATM    5  C   UNL     1     -11.704  14.858  68.892  1.00  0.00    -0.315 A  
HETATM    6  O   UNL     1     -12.456  15.985  69.088  1.00  0.00    -0.410 OA 
HETATM    7  C   UNL     1     -10.697  14.803  67.921  1.00  0.00    -0.259 A  
HETATM    8  C   UNL     1     -10.357  12.451  68.485  1.00  0.00    -0.232 A  
HETATM    9  C   UNL     1     -10.020  13.584  67.736  1.00  0.00    -0.232 A  
HETATM   10  H   UNL     1     -12.238  16.749  68.567  1.00  0.00     0.000 HD 
BRANCH   7  11
HETATM   11  C   UNL     1     -10.328  15.918  67.004  1.00  0.00    -0.297 C  
HETATM   12  O   UNL     1     -10.692  15.860  65.827  1.00  0.00    -0.331 OA 
BRANCH  11  13
HETATM   13  C   UNL     1      -9.612  17.149  67.431  1.00  0.00    -0.247 A  
HETATM   14  C   UNL     1      -8.863  17.072  68.616  1.00  0.00    -0.267 A  
HETATM   15  C   UNL     1      -8.132  18.173  69.066  1.00  0.00    -0.072 A  
HETATM   16  C   UNL     1      -8.145  19.358  68.336  1.00  0.00    -0.378 A  
HETATM   17  C   UNL     1      -8.921  19.458  67.178  1.00  0.00    -0.347 A  
HETATM   18  C   UNL     1      -9.672  18.365  66.740  1.00  0.00    -0.326 A  
HETATM   19  O   UNL     1     -10.474  18.502  65.641  1.00  0.00    -0.615 OA 
HETATM   20  H   UNL     1     -10.514  19.327  65.172  1.00  0.00     0.000 HD 
ENDBRANCH  11  13
ENDBRANCH   7  11
ENDBRANCH   2   3
TORSDOF 3
ENDMDL
MODEL      118
REMARK 921   NORMALIZED FREE ENERGY PREDICTED BY IDOCK:   -4.79 KCAL/MOL
REMARK 922        TOTAL FREE ENERGY PREDICTED BY IDOCK:   -6.25 KCAL/MOL
REMARK 923 INTER-LIGAND FREE ENERGY PREDICTED BY IDOCK:   -5.44 KCAL/MOL
REMARK 924 INTRA-LIGAND FREE ENERGY PREDICTED BY IDOCK:   -0.81 KCAL/MOL
REMARK 927      BINDING AFFINITY PREDICTED BY RF-SCORE:    0.00 PKD
ROOT
HETATM    1  C   UNL     1     -11.921  13.451  67.882  1.00  0.00    -0.323 C  
HETATM    2  O   UNL     1     -12.029  12.071  67.540  1.00  0.00    -0.572 OA 
ENDROOT
BRANCH   2   3
HETATM    3  C   UNL     1     -11.556  11.210  68.492  1.00  0.00    -0.314 A  
HETATM    4  C   UNL     1     -12.209  10.929  69.693  1.00  0.00    -0.354 A  
HETATM    5  C   UNL     1     -11.616  10.091  70.640  1.00  0.00    -0.340 A  
HETATM    6  O   UNL     1     -12.253   9.955  71.843  1.00  0.00    -0.372 OA 
HETATM    7  C   UNL     1     -10.386   9.473  70.384  1.00  0.00    -0.334 A  
HETATM    8  C   UNL     1     -10.345  10.582  68.208  1.00  0.00    -0.193 A  
HETATM    9  C   UNL     1      -9.763   9.724  69.147  1.00  0.00    -0.188 A  
HETATM   10  H   UNL     1     -11.850   9.385  72.487  1.00  0.00     0.000 HD 
BRANCH   7  11
HETATM   11  C   UNL     1      -9.634   8.623  71.350  1.00  0.00    -0.243 C  
HETATM   12  O   UNL     1      -8.800   9.159  72.084  1.00  0.00    -0.314 OA 
BRANCH  11  13
HETATM   13  C   UNL     1      -9.879   7.172  71.551  1.00  0.00    -0.176 A  
HETATM   14  C   UNL     1      -9.056   6.282  70.840  1.00  0.00    -0.153 A  
HETATM   15  C   UNL     1      -9.197   4.903  71.001  1.00  0.00    -0.192 A  
HETATM   16  C   UNL     1     -10.161   4.402  71.873  1.00  0.00    -0.245 A  
HETATM   17  C   UNL     1     -11.012   5.277  72.553  1.00  0.00    -0.298 A  
HETATM   18  C   UNL     1     -10.887   6.657  72.374  1.00  0.00    -0.235 A  
HETATM   19  O   UNL     1     -11.770   7.494  72.998  1.00  0.00    -0.594 OA 
HETATM   20  H   UNL     1     -12.454   7.145  73.557  1.00  0.00     0.000 HD 
ENDBRANCH  11  13
ENDBRANCH   7  11
ENDBRANCH   2   3
TORSDOF 3
ENDMDL
MODEL      119
REMARK 921   NORMALIZED FREE ENERGY PREDICTED BY IDOCK:   -4.79 KCAL/MOL
REMARK 922        TOTAL FREE ENERGY PREDICTED BY IDOCK:   -6.25 KCAL/MOL
REMARK 923 INTER-LIGAND FREE ENERGY PREDICTED BY IDOCK:   -5.32 KCAL/MOL
REMARK 924 INTRA-LIGAND FREE ENERGY PREDICTED BY IDOCK:   -0.93 KCAL/MOL
REMARK 927      BINDING AFFINITY PREDICTED BY RF-SCORE:    0.00 PKD
ROOT
HETATM    1  C   UNL     1      -8.639   7.143  69.954  1.00  0.00    -0.141 C  
HETATM    2  O   UNL     1      -9.960   7.656  70.113  1.00  0.00    -0.184 OA 
ENDROOT
BRANCH   2   3
HETATM    3  C   UNL     1     -10.293   8.650  69.234  1.00  0.00    -0.221 A  
HETATM    4  C   UNL     1     -10.181   8.543  67.847  1.00  0.00    -0.273 A  
HETATM    5  C   UNL     1     -10.476   9.637  67.029  1.00  0.00    -0.232 A  
HETATM    6  O   UNL     1     -10.231   9.502  65.689  1.00  0.00    -0.307 OA 
HETATM    7  C   UNL     1     -10.940  10.840  67.575  1.00  0.00    -0.372 A  
HETATM    8  C   UNL     1     -10.779   9.830  69.793  1.00  0.00    -0.283 A  
HETATM    9  C   UNL     1     -11.097  10.917  68.971  1.00  0.00    -0.302 A  
HETATM   10  H   UNL     1     -10.431  10.246  65.133  1.00  0.00     0.000 HD 
BRANCH   7  11
HETATM   11  C   UNL     1     -11.213  12.085  66.803  1.00  0.00    -0.322 C  
HETATM   12  O   UNL     1     -12.098  12.065  65.943  1.00  0.00    -0.546 OA 
BRANCH  11  13
HETATM   13  C   UNL     1     -10.542  13.387  67.053  1.00  0.00    -0.264 A  
HETATM   14  C   UNL     1      -9.166  13.457  66.783  1.00  0.00    -0.242 A  
HETATM   15  C   UNL     1      -8.469  14.654  66.957  1.00  0.00    -0.237 A  
HETATM   16  C   UNL     1      -9.142  15.789  67.402  1.00  0.00    -0.206 A  
HETATM   17  C   UNL     1     -10.502  15.719  67.714  1.00  0.00    -0.283 A  
HETATM   18  C   UNL     1     -11.195  14.515  67.563  1.00  0.00    -0.321 A  
HETATM   19  O   UNL     1     -12.510  14.450  67.934  1.00  0.00    -0.586 OA 
HETATM   20  H   UNL     1     -12.953  15.216  68.280  1.00  0.00     0.000 HD 
ENDBRANCH  11  13
ENDBRANCH   7  11
ENDBRANCH   2   3
TORSDOF 3
ENDMDL
MODEL      120
REMARK 921   NORMALIZED FREE ENERGY PREDICTED BY IDOCK:   -4.77 KCAL/MOL
REMARK 922        TOTAL FREE ENERGY PREDICTED BY IDOCK:   -6.23 KCAL/MOL
REMARK 923 INTER-LIGAND FREE ENERGY PREDICTED BY IDOCK:   -5.44 KCAL/MOL
REMARK 924 INTRA-LIGAND FREE ENERGY PREDICTED BY IDOCK:   -0.80 KCAL/MOL
REMARK 927      BINDING AFFINITY PREDICTED BY RF-SCORE:    0.00 PKD
ROOT
HETATM    1  C   UNL     1     -10.743  17.393  65.739  1.00  0.00    -0.120 C  
HETATM    2  O   UNL     1     -10.807  16.424  64.694  1.00  0.00    -0.717 OA 
ENDROOT
BRANCH   2   3
HETATM    3  C   UNL     1     -10.589  15.136  65.099  1.00  0.00    -0.424 A  
HETATM    4  C   UNL     1     -11.210  14.019  64.538  1.00  0.00    -0.358 A  
HETATM    5  C   UNL     1     -10.982  12.745  65.064  1.00  0.00    -0.289 A  
HETATM    6  O   UNL     1     -11.714  11.712  64.545  1.00  0.00    -0.234 OA 
HETATM    7  C   UNL     1     -10.087  12.555  66.124  1.00  0.00    -0.265 A  
HETATM    8  C   UNL     1      -9.675  14.962  66.135  1.00  0.00    -0.333 A  
HETATM    9  C   UNL     1      -9.428  13.683  66.646  1.00  0.00    -0.285 A  
HETATM   10  H   UNL     1     -11.559  10.846  64.903  1.00  0.00     0.000 HD 
BRANCH   7  11
HETATM   11  C   UNL     1      -9.827  11.255  66.805  1.00  0.00    -0.199 C  
HETATM   12  O   UNL     1      -9.066  10.447  66.266  1.00  0.00    -0.153 OA 
BRANCH  11  13
HETATM   13  C   UNL     1     -10.363  10.891  68.142  1.00  0.00    -0.202 A  
HETATM   14  C   UNL     1     -11.652  11.349  68.459  1.00  0.00    -0.384 A  
HETATM   15  C   UNL     1     -12.242  11.019  69.681  1.00  0.00    -0.370 A  
HETATM   16  C   UNL     1     -11.548  10.230  70.594  1.00  0.00    -0.435 A  
HETATM   17  C   UNL     1     -10.249   9.804  70.306  1.00  0.00    -0.346 A  
HETATM   18  C   UNL     1      -9.648  10.154  69.094  1.00  0.00    -0.212 A  
HETATM   19  O   UNL     1      -8.354   9.781  68.858  1.00  0.00    -0.110 OA 
HETATM   20  H   UNL     1      -7.869   9.281  69.503  1.00  0.00     0.000 HD 
ENDBRANCH  11  13
ENDBRANCH   7  11
ENDBRANCH   2   3
TORSDOF 3
ENDMDL
MODEL      121
REMARK 921   NORMALIZED FREE ENERGY PREDICTED BY IDOCK:   -4.74 KCAL/MOL
REMARK 922        TOTAL FREE ENERGY PREDICTED BY IDOCK:   -6.19 KCAL/MOL
REMARK 923 INTER-LIGAND FREE ENERGY PREDICTED BY IDOCK:   -5.47 KCAL/MOL
REMARK 924 INTRA-LIGAND FREE ENERGY PREDICTED BY IDOCK:   -0.72 KCAL/MOL
REMARK 927      BINDING AFFINITY PREDICTED BY RF-SCORE:    0.00 PKD
ROOT
HETATM    1  C   UNL     1      -8.122   8.170  74.245  1.00  0.00    -0.251 C  
HETATM    2  O   UNL     1      -9.401   7.646  73.893  1.00  0.00    -0.270 OA 
ENDROOT
BRANCH   2   3
HETATM    3  C   UNL     1      -9.785   7.900  72.604  1.00  0.00    -0.240 A  
HETATM    4  C   UNL     1     -10.972   7.441  72.032  1.00  0.00    -0.273 A  
HETATM    5  C   UNL     1     -11.248   7.688  70.684  1.00  0.00    -0.266 A  
HETATM    6  O   UNL     1     -12.370   7.109  70.158  1.00  0.00    -0.565 OA 
HETATM    7  C   UNL     1     -10.370   8.444  69.898  1.00  0.00    -0.210 A  
HETATM    8  C   UNL     1      -8.913   8.677  71.844  1.00  0.00    -0.301 A  
HETATM    9  C   UNL     1      -9.202   8.944  70.501  1.00  0.00    -0.239 A  
HETATM   10  H   UNL     1     -12.557   7.277  69.242  1.00  0.00     0.000 HD 
BRANCH   7  11
HETATM   11  C   UNL     1     -10.532   8.703  68.439  1.00  0.00    -0.176 C  
HETATM   12  O   UNL     1     -10.723   7.745  67.686  1.00  0.00    -0.225 OA 
BRANCH  11  13
HETATM   13  C   UNL     1     -10.561  10.059  67.830  1.00  0.00    -0.298 A  
HETATM   14  C   UNL     1      -9.527  10.378  66.935  1.00  0.00    -0.196 A  
HETATM   15  C   UNL     1      -9.502  11.617  66.292  1.00  0.00    -0.233 A  
HETATM   16  C   UNL     1     -10.509  12.546  66.540  1.00  0.00    -0.258 A  
HETATM   17  C   UNL     1     -11.520  12.254  67.460  1.00  0.00    -0.414 A  
HETATM   18  C   UNL     1     -11.532  11.024  68.122  1.00  0.00    -0.302 A  
HETATM   19  O   UNL     1     -12.492  10.782  69.065  1.00  0.00    -0.757 OA 
HETATM   20  H   UNL     1     -13.151  11.437  69.263  1.00  0.00     0.000 HD 
ENDBRANCH  11  13
ENDBRANCH   7  11
ENDBRANCH   2   3
TORSDOF 3
ENDMDL
MODEL      122
REMARK 921   NORMALIZED FREE ENERGY PREDICTED BY IDOCK:   -4.74 KCAL/MOL
REMARK 922        TOTAL FREE ENERGY PREDICTED BY IDOCK:   -6.19 KCAL/MOL
REMARK 923 INTER-LIGAND FREE ENERGY PREDICTED BY IDOCK:   -5.37 KCAL/MOL
REMARK 924 INTRA-LIGAND FREE ENERGY PREDICTED BY IDOCK:   -0.82 KCAL/MOL
REMARK 927      BINDING AFFINITY PREDICTED BY RF-SCORE:    0.00 PKD
ROOT
HETATM    1  C   UNL     1     -10.610   8.876  66.911  1.00  0.00    -0.184 C  
HETATM    2  O   UNL     1     -10.787   9.808  67.976  1.00  0.00    -0.250 OA 
ENDROOT
BRANCH   2   3
HETATM    3  C   UNL     1     -10.666  11.120  67.609  1.00  0.00    -0.230 A  
HETATM    4  C   UNL     1     -11.623  12.101  67.871  1.00  0.00    -0.413 A  
HETATM    5  C   UNL     1     -11.448  13.403  67.394  1.00  0.00    -0.333 A  
HETATM    6  O   UNL     1     -12.479  14.284  67.582  1.00  0.00    -0.570 OA 
HETATM    7  C   UNL     1     -10.290  13.764  66.696  1.00  0.00    -0.279 A  
HETATM    8  C   UNL     1      -9.494  11.467  66.940  1.00  0.00    -0.194 A  
HETATM    9  C   UNL     1      -9.309  12.777  66.484  1.00  0.00    -0.221 A  
HETATM   10  H   UNL     1     -12.360  15.168  67.258  1.00  0.00     0.000 HD 
BRANCH   7  11
HETATM   11  C   UNL     1     -10.037  15.099  66.084  1.00  0.00    -0.295 C  
HETATM   12  O   UNL     1     -10.473  15.323  64.952  1.00  0.00    -0.392 OA 
BRANCH  11  13
HETATM   13  C   UNL     1      -9.357  16.222  66.781  1.00  0.00    -0.258 A  
HETATM   14  C   UNL     1      -8.000  16.428  66.486  1.00  0.00    -0.342 A  
HETATM   15  C   UNL     1      -7.299  17.484  67.071  1.00  0.00    -0.222 A  
HETATM   16  C   UNL     1      -7.950  18.342  67.955  1.00  0.00    -0.273 A  
HETATM   17  C   UNL     1      -9.289  18.120  68.287  1.00  0.00    -0.312 A  
HETATM   18  C   UNL     1      -9.984  17.049  67.721  1.00  0.00    -0.280 A  
HETATM   19  O   UNL     1     -11.274  16.811  68.106  1.00  0.00    -0.325 OA 
HETATM   20  H   UNL     1     -11.699  17.372  68.744  1.00  0.00     0.000 HD 
ENDBRANCH  11  13
ENDBRANCH   7  11
ENDBRANCH   2   3
TORSDOF 3
ENDMDL
MODEL      123
REMARK 921   NORMALIZED FREE ENERGY PREDICTED BY IDOCK:   -4.73 KCAL/MOL
REMARK 922        TOTAL FREE ENERGY PREDICTED BY IDOCK:   -6.18 KCAL/MOL
REMARK 923 INTER-LIGAND FREE ENERGY PREDICTED BY IDOCK:   -5.24 KCAL/MOL
REMARK 924 INTRA-LIGAND FREE ENERGY PREDICTED BY IDOCK:   -0.94 KCAL/MOL
REMARK 927      BINDING AFFINITY PREDICTED BY RF-SCORE:    0.00 PKD
ROOT
HETATM    1  C   UNL     1     -14.391   7.393  71.877  1.00  0.00    -0.373 C  
HETATM    2  O   UNL     1     -13.678   8.554  72.299  1.00  0.00    -0.360 OA 
ENDROOT
BRANCH   2   3
HETATM    3  C   UNL     1     -12.678   8.946  71.451  1.00  0.00    -0.301 A  
HETATM    4  C   UNL     1     -11.697   8.093  70.945  1.00  0.00    -0.259 A  
HETATM    5  C   UNL     1     -10.670   8.597  70.142  1.00  0.00    -0.234 A  
HETATM    6  O   UNL     1      -9.675   7.730  69.780  1.00  0.00    -0.174 OA 
HETATM    7  C   UNL     1     -10.635   9.950  69.783  1.00  0.00    -0.296 A  
HETATM    8  C   UNL     1     -12.675  10.290  71.082  1.00  0.00    -0.502 A  
HETATM    9  C   UNL     1     -11.660  10.788  70.258  1.00  0.00    -0.427 A  
HETATM   10  H   UNL     1      -8.977   8.072  69.234  1.00  0.00     0.000 HD 
BRANCH   7  11
HETATM   11  C   UNL     1      -9.551  10.601  68.995  1.00  0.00    -0.195 C  
HETATM   12  O   UNL     1      -8.378  10.395  69.320  1.00  0.00    -0.148 OA 
BRANCH  11  13
HETATM   13  C   UNL     1      -9.781  11.426  67.781  1.00  0.00    -0.184 A  
HETATM   14  C   UNL     1     -10.347  10.781  66.670  1.00  0.00    -0.294 A  
HETATM   15  C   UNL     1     -10.629  11.494  65.503  1.00  0.00    -0.334 A  
HETATM   16  C   UNL     1     -10.348  12.856  65.438  1.00  0.00    -0.310 A  
HETATM   17  C   UNL     1      -9.747  13.499  66.524  1.00  0.00    -0.287 A  
HETATM   18  C   UNL     1      -9.442  12.781  67.683  1.00  0.00    -0.190 A  
HETATM   19  O   UNL     1      -8.797  13.413  68.710  1.00  0.00    -0.373 OA 
HETATM   20  H   UNL     1      -8.567  14.332  68.643  1.00  0.00     0.000 HD 
ENDBRANCH  11  13
ENDBRANCH   7  11
ENDBRANCH   2   3
TORSDOF 3
ENDMDL
MODEL      124
REMARK 921   NORMALIZED FREE ENERGY PREDICTED BY IDOCK:   -4.73 KCAL/MOL
REMARK 922        TOTAL FREE ENERGY PREDICTED BY IDOCK:   -6.18 KCAL/MOL
REMARK 923 INTER-LIGAND FREE ENERGY PREDICTED BY IDOCK:   -5.49 KCAL/MOL
REMARK 924 INTRA-LIGAND FREE ENERGY PREDICTED BY IDOCK:   -0.69 KCAL/MOL
REMARK 927      BINDING AFFINITY PREDICTED BY RF-SCORE:    0.00 PKD
ROOT
HETATM    1  C   UNL     1      -8.661   4.698  65.060  1.00  0.00    -0.138 C  
HETATM    2  O   UNL     1     -10.004   4.716  65.538  1.00  0.00    -0.189 OA 
ENDROOT
BRANCH   2   3
HETATM    3  C   UNL     1     -10.132   5.033  66.864  1.00  0.00    -0.228 A  
HETATM    4  C   UNL     1      -9.567   4.298  67.906  1.00  0.00    -0.207 A  
HETATM    5  C   UNL     1      -9.810   4.655  69.235  1.00  0.00    -0.190 A  
HETATM    6  O   UNL     1      -9.326   3.822  70.207  1.00  0.00    -0.134 OA 
HETATM    7  C   UNL     1     -10.576   5.785  69.547  1.00  0.00    -0.390 A  
HETATM    8  C   UNL     1     -10.873   6.176  67.155  1.00  0.00    -0.442 A  
HETATM    9  C   UNL     1     -11.097   6.547  68.485  1.00  0.00    -0.347 A  
HETATM   10  H   UNL     1      -9.492   4.065  71.110  1.00  0.00     0.000 HD 
BRANCH   7  11
HETATM   11  C   UNL     1     -10.955   6.211  70.924  1.00  0.00    -0.297 C  
HETATM   12  O   UNL     1     -10.484   5.596  71.884  1.00  0.00    -0.211 OA 
BRANCH  11  13
HETATM   13  C   UNL     1     -11.808   7.390  71.228  1.00  0.00    -0.330 A  
HETATM   14  C   UNL     1     -13.169   7.146  71.472  1.00  0.00    -0.419 A  
HETATM   15  C   UNL     1     -14.029   8.195  71.801  1.00  0.00    -0.479 A  
HETATM   16  C   UNL     1     -13.536   9.495  71.888  1.00  0.00    -0.502 A  
HETATM   17  C   UNL     1     -12.192   9.753  71.607  1.00  0.00    -0.488 A  
HETATM   18  C   UNL     1     -11.336   8.707  71.254  1.00  0.00    -0.281 A  
HETATM   19  O   UNL     1     -10.039   8.989  70.920  1.00  0.00    -0.218 OA 
HETATM   20  H   UNL     1      -9.719   9.882  70.937  1.00  0.00     0.000 HD 
ENDBRANCH  11  13
ENDBRANCH   7  11
ENDBRANCH   2   3
TORSDOF 3
ENDMDL
MODEL      125
REMARK 921   NORMALIZED FREE ENERGY PREDICTED BY IDOCK:   -4.71 KCAL/MOL
REMARK 922        TOTAL FREE ENERGY PREDICTED BY IDOCK:   -6.15 KCAL/MOL
REMARK 923 INTER-LIGAND FREE ENERGY PREDICTED BY IDOCK:   -5.30 KCAL/MOL
REMARK 924 INTRA-LIGAND FREE ENERGY PREDICTED BY IDOCK:   -0.86 KCAL/MOL
REMARK 927      BINDING AFFINITY PREDICTED BY RF-SCORE:    0.00 PKD
ROOT
HETATM    1  C   UNL     1     -12.634  14.724  64.794  1.00  0.00    -0.095 C  
HETATM    2  O   UNL     1     -12.587  13.472  64.113  1.00  0.00    -0.647 OA 
ENDROOT
BRANCH   2   3
HETATM    3  C   UNL     1     -11.836  12.513  64.737  1.00  0.00    -0.383 A  
HETATM    4  C   UNL     1     -11.730  12.376  66.122  1.00  0.00    -0.460 A  
HETATM    5  C   UNL     1     -10.881  11.411  66.672  1.00  0.00    -0.289 A  
HETATM    6  O   UNL     1     -10.733  11.410  68.033  1.00  0.00    -0.182 OA 
HETATM    7  C   UNL     1     -10.166  10.530  65.852  1.00  0.00    -0.311 A  
HETATM    8  C   UNL     1     -11.154  11.627  63.906  1.00  0.00    -0.477 A  
HETATM    9  C   UNL     1     -10.323  10.646  64.459  1.00  0.00    -0.352 A  
HETATM   10  H   UNL     1     -10.156  10.755  68.407  1.00  0.00     0.000 HD 
BRANCH   7  11
HETATM   11  C   UNL     1      -9.183   9.518  66.332  1.00  0.00    -0.166 C  
HETATM   12  O   UNL     1      -8.084   9.907  66.735  1.00  0.00    -0.115 OA 
BRANCH  11  13
HETATM   13  C   UNL     1      -9.466   8.063  66.435  1.00  0.00    -0.268 A  
HETATM   14  C   UNL     1     -10.640   7.688  67.109  1.00  0.00    -0.410 A  
HETATM   15  C   UNL     1     -10.997   6.343  67.218  1.00  0.00    -0.474 A  
HETATM   16  C   UNL     1     -10.184   5.363  66.654  1.00  0.00    -0.285 A  
HETATM   17  C   UNL     1      -8.993   5.722  66.018  1.00  0.00    -0.157 A  
HETATM   18  C   UNL     1      -8.623   7.067  65.930  1.00  0.00    -0.145 A  
HETATM   19  O   UNL     1      -7.424   7.393  65.360  1.00  0.00    -0.081 OA 
HETATM   20  H   UNL     1      -6.852   6.718  65.017  1.00  0.00     0.000 HD 
ENDBRANCH  11  13
ENDBRANCH   7  11
ENDBRANCH   2   3
TORSDOF 3
ENDMDL
MODEL      126
REMARK 921   NORMALIZED FREE ENERGY PREDICTED BY IDOCK:   -4.70 KCAL/MOL
REMARK 922        TOTAL FREE ENERGY PREDICTED BY IDOCK:   -6.15 KCAL/MOL
REMARK 923 INTER-LIGAND FREE ENERGY PREDICTED BY IDOCK:   -5.28 KCAL/MOL
REMARK 924 INTRA-LIGAND FREE ENERGY PREDICTED BY IDOCK:   -0.87 KCAL/MOL
REMARK 927      BINDING AFFINITY PREDICTED BY RF-SCORE:    0.00 PKD
ROOT
HETATM    1  C   UNL     1     -10.931  13.541  65.199  1.00  0.00    -0.320 C  
HETATM    2  O   UNL     1      -9.952  13.025  66.099  1.00  0.00    -0.269 OA 
ENDROOT
BRANCH   2   3
HETATM    3  C   UNL     1     -10.465  12.323  67.155  1.00  0.00    -0.219 A  
HETATM    4  C   UNL     1     -10.873  12.900  68.359  1.00  0.00    -0.276 A  
HETATM    5  C   UNL     1     -11.317  12.095  69.412  1.00  0.00    -0.245 A  
HETATM    6  O   UNL     1     -11.588  12.714  70.602  1.00  0.00    -0.415 OA 
HETATM    7  C   UNL     1     -11.415  10.707  69.264  1.00  0.00    -0.351 A  
HETATM    8  C   UNL     1     -10.581  10.946  66.981  1.00  0.00    -0.307 A  
HETATM    9  C   UNL     1     -11.049  10.144  68.028  1.00  0.00    -0.302 A  
HETATM   10  H   UNL     1     -11.890  12.168  71.317  1.00  0.00     0.000 HD 
BRANCH   7  11
HETATM   11  C   UNL     1     -11.805   9.754  70.342  1.00  0.00    -0.193 C  
HETATM   12  O   UNL     1     -12.944   9.827  70.811  1.00  0.00    -0.262 OA 
BRANCH  11  13
HETATM   13  C   UNL     1     -10.936   8.658  70.842  1.00  0.00    -0.301 A  
HETATM   14  C   UNL     1      -9.862   9.022  71.670  1.00  0.00    -0.366 A  
HETATM   15  C   UNL     1      -9.021   8.048  72.211  1.00  0.00    -0.230 A  
HETATM   16  C   UNL     1      -9.247   6.703  71.928  1.00  0.00    -0.147 A  
HETATM   17  C   UNL     1     -10.288   6.333  71.073  1.00  0.00    -0.258 A  
HETATM   18  C   UNL     1     -11.115   7.309  70.512  1.00  0.00    -0.267 A  
HETATM   19  O   UNL     1     -12.088   6.932  69.627  1.00  0.00    -0.551 OA 
HETATM   20  H   UNL     1     -12.209   6.018  69.402  1.00  0.00     0.000 HD 
ENDBRANCH  11  13
ENDBRANCH   7  11
ENDBRANCH   2   3
TORSDOF 3
ENDMDL
MODEL      127
REMARK 921   NORMALIZED FREE ENERGY PREDICTED BY IDOCK:   -4.70 KCAL/MOL
REMARK 922        TOTAL FREE ENERGY PREDICTED BY IDOCK:   -6.14 KCAL/MOL
REMARK 923 INTER-LIGAND FREE ENERGY PREDICTED BY IDOCK:   -5.34 KCAL/MOL
REMARK 924 INTRA-LIGAND FREE ENERGY PREDICTED BY IDOCK:   -0.80 KCAL/MOL
REMARK 927      BINDING AFFINITY PREDICTED BY RF-SCORE:    0.00 PKD
ROOT
HETATM    1  C   UNL     1     -14.076  15.752  72.769  1.00  0.00    -0.352 C  
HETATM    2  O   UNL     1     -13.643  14.396  72.680  1.00  0.00    -0.471 OA 
ENDROOT
BRANCH   2   3
HETATM    3  C   UNL     1     -13.040  14.068  71.496  1.00  0.00    -0.363 A  
HETATM    4  C   UNL     1     -12.975  12.774  70.978  1.00  0.00    -0.166 A  
HETATM    5  C   UNL     1     -12.274  12.522  69.795  1.00  0.00    -0.132 A  
HETATM    6  O   UNL     1     -12.148  11.215  69.408  1.00  0.00    -0.333 OA 
HETATM    7  C   UNL     1     -11.673  13.564  69.079  1.00  0.00    -0.370 A  
HETATM    8  C   UNL     1     -12.472  15.122  70.782  1.00  0.00    -0.429 A  
HETATM    9  C   UNL     1     -11.791  14.871  69.585  1.00  0.00    -0.356 A  
HETATM   10  H   UNL     1     -11.672  11.044  68.604  1.00  0.00     0.000 HD 
BRANCH   7  11
HETATM   11  C   UNL     1     -10.845  13.395  67.851  1.00  0.00    -0.247 C  
HETATM   12  O   UNL     1     -11.118  12.476  67.075  1.00  0.00    -0.257 OA 
BRANCH  11  13
HETATM   13  C   UNL     1      -9.751  14.317  67.450  1.00  0.00    -0.235 A  
HETATM   14  C   UNL     1     -10.027  15.221  66.411  1.00  0.00    -0.291 A  
HETATM   15  C   UNL     1      -9.065  16.145  66.000  1.00  0.00    -0.354 A  
HETATM   16  C   UNL     1      -7.820  16.172  66.622  1.00  0.00    -0.288 A  
HETATM   17  C   UNL     1      -7.520  15.250  67.628  1.00  0.00    -0.197 A  
HETATM   18  C   UNL     1      -8.474  14.309  68.024  1.00  0.00    -0.164 A  
HETATM   19  O   UNL     1      -8.140  13.374  68.965  1.00  0.00    -0.338 OA 
HETATM   20  H   UNL     1      -7.274  13.368  69.354  1.00  0.00     0.000 HD 
ENDBRANCH  11  13
ENDBRANCH   7  11
ENDBRANCH   2   3
TORSDOF 3
ENDMDL
MODEL      128
REMARK 921   NORMALIZED FREE ENERGY PREDICTED BY IDOCK:   -4.68 KCAL/MOL
REMARK 922        TOTAL FREE ENERGY PREDICTED BY IDOCK:   -6.13 KCAL/MOL
REMARK 923 INTER-LIGAND FREE ENERGY PREDICTED BY IDOCK:   -5.41 KCAL/MOL
REMARK 924 INTRA-LIGAND FREE ENERGY PREDICTED BY IDOCK:   -0.72 KCAL/MOL
REMARK 927      BINDING AFFINITY PREDICTED BY RF-SCORE:    0.00 PKD
ROOT
HETATM    1  C   UNL     1      -9.820  10.076  66.306  1.00  0.00    -0.236 C  
HETATM    2  O   UNL     1      -9.049  11.258  66.100  1.00  0.00    -0.194 OA 
ENDROOT
BRANCH   2   3
HETATM    3  C   UNL     1      -9.577  12.387  66.667  1.00  0.00    -0.229 A  
HETATM    4  C   UNL     1     -10.923  12.747  66.596  1.00  0.00    -0.300 A  
HETATM    5  C   UNL     1     -11.361  13.956  67.143  1.00  0.00    -0.327 A  
HETATM    6  O   UNL     1     -12.668  14.303  66.933  1.00  0.00    -0.495 OA 
HETATM    7  C   UNL     1     -10.473  14.802  67.819  1.00  0.00    -0.254 A  
HETATM    8  C   UNL     1      -8.685  13.202  67.360  1.00  0.00    -0.206 A  
HETATM    9  C   UNL     1      -9.129  14.401  67.929  1.00  0.00    -0.187 A  
HETATM   10  H   UNL     1     -12.964  15.125  67.305  1.00  0.00     0.000 HD 
BRANCH   7  11
HETATM   11  C   UNL     1     -10.819  16.141  68.374  1.00  0.00    -0.318 C  
HETATM   12  O   UNL     1     -11.223  16.213  69.538  1.00  0.00    -0.317 OA 
BRANCH  11  13
HETATM   13  C   UNL     1     -10.631  17.421  67.643  1.00  0.00    -0.350 A  
HETATM   14  C   UNL     1     -10.653  17.363  66.240  1.00  0.00    -0.194 A  
HETATM   15  C   UNL     1     -10.521  18.527  65.480  1.00  0.00     0.046 A  
HETATM   16  C   UNL     1     -10.366  19.756  66.116  1.00  0.00    -0.627 A  
HETATM   17  C   UNL     1     -10.302  19.819  67.510  1.00  0.00    -0.578 A  
HETATM   18  C   UNL     1     -10.410  18.652  68.271  1.00  0.00    -0.344 A  
HETATM   19  O   UNL     1     -10.281  18.727  69.631  1.00  0.00    -0.298 OA 
HETATM   20  H   UNL     1     -10.130  19.562  70.057  1.00  0.00     0.000 HD 
ENDBRANCH  11  13
ENDBRANCH   7  11
ENDBRANCH   2   3
TORSDOF 3
ENDMDL
MODEL      129
REMARK 921   NORMALIZED FREE ENERGY PREDICTED BY IDOCK:   -4.67 KCAL/MOL
REMARK 922        TOTAL FREE ENERGY PREDICTED BY IDOCK:   -6.11 KCAL/MOL
REMARK 923 INTER-LIGAND FREE ENERGY PREDICTED BY IDOCK:   -5.71 KCAL/MOL
REMARK 924 INTRA-LIGAND FREE ENERGY PREDICTED BY IDOCK:   -0.40 KCAL/MOL
REMARK 927      BINDING AFFINITY PREDICTED BY RF-SCORE:    0.00 PKD
ROOT
HETATM    1  C   UNL     1      -8.300   9.839  63.846  1.00  0.00    -0.173 C  
HETATM    2  O   UNL     1      -9.140  10.987  63.755  1.00  0.00    -0.190 OA 
ENDROOT
BRANCH   2   3
HETATM    3  C   UNL     1      -9.882  11.240  64.876  1.00  0.00    -0.264 A  
HETATM    4  C   UNL     1     -11.043  12.014  64.894  1.00  0.00    -0.368 A  
HETATM    5  C   UNL     1     -11.696  12.279  66.100  1.00  0.00    -0.376 A  
HETATM    6  O   UNL     1     -12.757  13.143  66.062  1.00  0.00    -0.385 OA 
HETATM    7  C   UNL     1     -11.236  11.731  67.303  1.00  0.00    -0.364 A  
HETATM    8  C   UNL     1      -9.425  10.663  66.059  1.00  0.00    -0.233 A  
HETATM    9  C   UNL     1     -10.095  10.909  67.263  1.00  0.00    -0.225 A  
HETATM   10  H   UNL     1     -13.201  13.322  66.882  1.00  0.00     0.000 HD 
BRANCH   7  11
HETATM   11  C   UNL     1     -11.813  12.007  68.649  1.00  0.00    -0.311 C  
HETATM   12  O   UNL     1     -12.343  11.080  69.267  1.00  0.00    -0.412 OA 
BRANCH  11  13
HETATM   13  C   UNL     1     -11.723  13.318  69.343  1.00  0.00    -0.383 A  
HETATM   14  C   UNL     1     -11.010  14.337  68.691  1.00  0.00    -0.268 A  
HETATM   15  C   UNL     1     -10.910  15.609  69.258  1.00  0.00    -0.250 A  
HETATM   16  C   UNL     1     -11.522  15.871  70.482  1.00  0.00    -0.412 A  
HETATM   17  C   UNL     1     -12.199  14.853  71.158  1.00  0.00    -0.380 A  
HETATM   18  C   UNL     1     -12.278  13.574  70.602  1.00  0.00    -0.358 A  
HETATM   19  O   UNL     1     -12.890  12.575  71.309  1.00  0.00    -0.352 OA 
HETATM   20  H   UNL     1     -13.266  12.748  72.163  1.00  0.00     0.000 HD 
ENDBRANCH  11  13
ENDBRANCH   7  11
ENDBRANCH   2   3
TORSDOF 3
ENDMDL
MODEL      130
REMARK 921   NORMALIZED FREE ENERGY PREDICTED BY IDOCK:   -4.67 KCAL/MOL
REMARK 922        TOTAL FREE ENERGY PREDICTED BY IDOCK:   -6.11 KCAL/MOL
REMARK 923 INTER-LIGAND FREE ENERGY PREDICTED BY IDOCK:   -5.41 KCAL/MOL
REMARK 924 INTRA-LIGAND FREE ENERGY PREDICTED BY IDOCK:   -0.70 KCAL/MOL
REMARK 927      BINDING AFFINITY PREDICTED BY RF-SCORE:    0.00 PKD
ROOT
HETATM    1  C   UNL     1     -13.069  13.833  71.636  1.00  0.00    -0.375 C  
HETATM    2  O   UNL     1     -12.333  13.478  70.468  1.00  0.00    -0.339 OA 
ENDROOT
BRANCH   2   3
HETATM    3  C   UNL     1     -11.849  14.541  69.755  1.00  0.00    -0.315 A  
HETATM    4  C   UNL     1     -11.796  14.594  68.362  1.00  0.00    -0.330 A  
HETATM    5  C   UNL     1     -11.218  15.692  67.719  1.00  0.00    -0.297 A  
HETATM    6  O   UNL     1     -11.091  15.626  66.358  1.00  0.00    -0.254 OA 
HETATM    7  C   UNL     1     -10.732  16.781  68.452  1.00  0.00    -0.362 A  
HETATM    8  C   UNL     1     -11.396  15.627  70.500  1.00  0.00    -0.386 A  
HETATM    9  C   UNL     1     -10.839  16.737  69.855  1.00  0.00    -0.106 A  
HETATM   10  H   UNL     1     -10.698  16.372  65.921  1.00  0.00     0.000 HD 
BRANCH   7  11
HETATM   11  C   UNL     1     -10.035  17.964  67.873  1.00  0.00    -0.329 C  
HETATM   12  O   UNL     1     -10.590  19.064  67.930  1.00  0.00    -0.399 OA 
BRANCH  11  13
HETATM   13  C   UNL     1      -8.666  17.926  67.296  1.00  0.00    -0.240 A  
HETATM   14  C   UNL     1      -7.809  16.913  67.755  1.00  0.00    -0.188 A  
HETATM   15  C   UNL     1      -6.519  16.786  67.236  1.00  0.00    -0.208 A  
HETATM   16  C   UNL     1      -6.076  17.670  66.255  1.00  0.00    -0.261 A  
HETATM   17  C   UNL     1      -6.907  18.707  65.822  1.00  0.00    -0.307 A  
HETATM   18  C   UNL     1      -8.189  18.850  66.359  1.00  0.00    -0.294 A  
HETATM   19  O   UNL     1      -8.963  19.908  65.969  1.00  0.00    -0.419 OA 
HETATM   20  H   UNL     1      -8.639  20.534  65.333  1.00  0.00     0.000 HD 
ENDBRANCH  11  13
ENDBRANCH   7  11
ENDBRANCH   2   3
TORSDOF 3
ENDMDL
MODEL      131
REMARK 921   NORMALIZED FREE ENERGY PREDICTED BY IDOCK:   -4.62 KCAL/MOL
REMARK 922        TOTAL FREE ENERGY PREDICTED BY IDOCK:   -6.05 KCAL/MOL
REMARK 923 INTER-LIGAND FREE ENERGY PREDICTED BY IDOCK:   -5.13 KCAL/MOL
REMARK 924 INTRA-LIGAND FREE ENERGY PREDICTED BY IDOCK:   -0.93 KCAL/MOL
REMARK 927      BINDING AFFINITY PREDICTED BY RF-SCORE:    0.00 PKD
ROOT
HETATM    1  C   UNL     1      -8.352   4.707  65.486  1.00  0.00    -0.118 C  
HETATM    2  O   UNL     1      -9.565   5.438  65.652  1.00  0.00    -0.114 OA 
ENDROOT
BRANCH   2   3
HETATM    3  C   UNL     1      -9.653   6.136  66.825  1.00  0.00    -0.148 A  
HETATM    4  C   UNL     1      -8.619   6.906  67.361  1.00  0.00    -0.121 A  
HETATM    5  C   UNL     1      -8.773   7.526  68.604  1.00  0.00    -0.128 A  
HETATM    6  O   UNL     1      -7.680   8.165  69.125  1.00  0.00    -0.094 OA 
HETATM    7  C   UNL     1      -9.980   7.437  69.308  1.00  0.00    -0.173 A  
HETATM    8  C   UNL     1     -10.870   6.059  67.499  1.00  0.00    -0.393 A  
HETATM    9  C   UNL     1     -11.031   6.701  68.732  1.00  0.00    -0.322 A  
HETATM   10  H   UNL     1      -7.785   8.586  69.970  1.00  0.00     0.000 HD 
BRANCH   7  11
HETATM   11  C   UNL     1     -10.224   7.997  70.668  1.00  0.00    -0.196 C  
HETATM   12  O   UNL     1      -9.530   7.596  71.606  1.00  0.00    -0.145 OA 
BRANCH  11  13
HETATM   13  C   UNL     1     -11.201   9.077  70.962  1.00  0.00    -0.361 A  
HETATM   14  C   UNL     1     -11.016  10.302  70.302  1.00  0.00    -0.375 A  
HETATM   15  C   UNL     1     -11.912  11.355  70.496  1.00  0.00    -0.451 A  
HETATM   16  C   UNL     1     -12.999  11.191  71.351  1.00  0.00    -0.506 A  
HETATM   17  C   UNL     1     -13.169   9.990  72.045  1.00  0.00    -0.545 A  
HETATM   18  C   UNL     1     -12.259   8.944  71.870  1.00  0.00    -0.374 A  
HETATM   19  O   UNL     1     -12.406   7.801  72.605  1.00  0.00    -0.562 OA 
HETATM   20  H   UNL     1     -13.123   7.711  73.221  1.00  0.00     0.000 HD 
ENDBRANCH  11  13
ENDBRANCH   7  11
ENDBRANCH   2   3
TORSDOF 3
ENDMDL
MODEL      132
REMARK 921   NORMALIZED FREE ENERGY PREDICTED BY IDOCK:   -4.62 KCAL/MOL
REMARK 922        TOTAL FREE ENERGY PREDICTED BY IDOCK:   -6.05 KCAL/MOL
REMARK 923 INTER-LIGAND FREE ENERGY PREDICTED BY IDOCK:   -5.23 KCAL/MOL
REMARK 924 INTRA-LIGAND FREE ENERGY PREDICTED BY IDOCK:   -0.82 KCAL/MOL
REMARK 927      BINDING AFFINITY PREDICTED BY RF-SCORE:    0.00 PKD
ROOT
HETATM    1  C   UNL     1      -5.889  10.570  65.531  1.00  0.00    -0.131 C  
HETATM    2  O   UNL     1      -6.254  10.105  66.829  1.00  0.00    -0.065 OA 
ENDROOT
BRANCH   2   3
HETATM    3  C   UNL     1      -7.537  10.402  67.199  1.00  0.00    -0.096 A  
HETATM    4  C   UNL     1      -8.601   9.502  67.139  1.00  0.00    -0.133 A  
HETATM    5  C   UNL     1      -9.895   9.915  67.470  1.00  0.00    -0.169 A  
HETATM    6  O   UNL     1     -10.909   9.018  67.274  1.00  0.00    -0.388 OA 
HETATM    7  C   UNL     1     -10.141  11.218  67.920  1.00  0.00    -0.195 A  
HETATM    8  C   UNL     1      -7.758  11.694  67.671  1.00  0.00    -0.133 A  
HETATM    9  C   UNL     1      -9.050  12.100  68.025  1.00  0.00    -0.190 A  
HETATM   10  H   UNL     1     -11.788   9.299  67.499  1.00  0.00     0.000 HD 
BRANCH   7  11
HETATM   11  C   UNL     1     -11.486  11.780  68.228  1.00  0.00    -0.307 C  
HETATM   12  O   UNL     1     -12.240  12.056  67.291  1.00  0.00    -0.496 OA 
BRANCH  11  13
HETATM   13  C   UNL     1     -12.021  11.959  69.602  1.00  0.00    -0.365 A  
HETATM   14  C   UNL     1     -12.067  13.270  70.103  1.00  0.00    -0.403 A  
HETATM   15  C   UNL     1     -12.590  13.528  71.372  1.00  0.00    -0.398 A  
HETATM   16  C   UNL     1     -13.071  12.477  72.149  1.00  0.00    -0.428 A  
HETATM   17  C   UNL     1     -12.992  11.164  71.676  1.00  0.00    -0.548 A  
HETATM   18  C   UNL     1     -12.446  10.903  70.417  1.00  0.00    -0.327 A  
HETATM   19  O   UNL     1     -12.320   9.607  69.999  1.00  0.00    -0.453 OA 
HETATM   20  H   UNL     1     -12.608   8.891  70.552  1.00  0.00     0.000 HD 
ENDBRANCH  11  13
ENDBRANCH   7  11
ENDBRANCH   2   3
TORSDOF 3
ENDMDL
MODEL      133
REMARK 921   NORMALIZED FREE ENERGY PREDICTED BY IDOCK:   -4.61 KCAL/MOL
REMARK 922        TOTAL FREE ENERGY PREDICTED BY IDOCK:   -6.04 KCAL/MOL
REMARK 923 INTER-LIGAND FREE ENERGY PREDICTED BY IDOCK:   -5.21 KCAL/MOL
REMARK 924 INTRA-LIGAND FREE ENERGY PREDICTED BY IDOCK:   -0.82 KCAL/MOL
REMARK 927      BINDING AFFINITY PREDICTED BY RF-SCORE:    0.00 PKD
ROOT
HETATM    1  C   UNL     1      -8.066   4.429  66.412  1.00  0.00    -0.102 C  
HETATM    2  O   UNL     1      -9.381   4.980  66.383  1.00  0.00    -0.132 OA 
ENDROOT
BRANCH   2   3
HETATM    3  C   UNL     1      -9.424   6.345  66.294  1.00  0.00    -0.095 A  
HETATM    4  C   UNL     1      -8.444   7.123  65.677  1.00  0.00    -0.141 A  
HETATM    5  C   UNL     1      -8.535   8.518  65.698  1.00  0.00    -0.155 A  
HETATM    6  O   UNL     1      -7.481   9.222  65.180  1.00  0.00    -0.101 OA 
HETATM    7  C   UNL     1      -9.632   9.159  66.285  1.00  0.00    -0.321 A  
HETATM    8  C   UNL     1     -10.537   6.964  66.859  1.00  0.00    -0.372 A  
HETATM    9  C   UNL     1     -10.638   8.360  66.858  1.00  0.00    -0.285 A  
HETATM   10  H   UNL     1      -7.543  10.170  65.194  1.00  0.00     0.000 HD 
BRANCH   7  11
HETATM   11  C   UNL     1      -9.790  10.634  66.425  1.00  0.00    -0.211 C  
HETATM   12  O   UNL     1      -9.123  11.222  67.280  1.00  0.00    -0.153 OA 
BRANCH  11  13
HETATM   13  C   UNL     1     -10.645  11.469  65.542  1.00  0.00    -0.334 A  
HETATM   14  C   UNL     1     -10.319  11.494  64.176  1.00  0.00    -0.386 A  
HETATM   15  C   UNL     1     -11.095  12.224  63.274  1.00  0.00    -0.389 A  
HETATM   16  C   UNL     1     -12.202  12.936  63.731  1.00  0.00    -0.555 A  
HETATM   17  C   UNL     1     -12.511  12.952  65.093  1.00  0.00    -0.561 A  
HETATM   18  C   UNL     1     -11.720  12.240  66.000  1.00  0.00    -0.388 A  
HETATM   19  O   UNL     1     -12.001  12.319  67.336  1.00  0.00    -0.530 OA 
HETATM   20  H   UNL     1     -12.730  12.843  67.647  1.00  0.00     0.000 HD 
ENDBRANCH  11  13
ENDBRANCH   7  11
ENDBRANCH   2   3
TORSDOF 3
ENDMDL
MODEL      134
REMARK 921   NORMALIZED FREE ENERGY PREDICTED BY IDOCK:   -4.60 KCAL/MOL
REMARK 922        TOTAL FREE ENERGY PREDICTED BY IDOCK:   -6.03 KCAL/MOL
REMARK 923 INTER-LIGAND FREE ENERGY PREDICTED BY IDOCK:   -5.30 KCAL/MOL
REMARK 924 INTRA-LIGAND FREE ENERGY PREDICTED BY IDOCK:   -0.73 KCAL/MOL
REMARK 927      BINDING AFFINITY PREDICTED BY RF-SCORE:    0.00 PKD
ROOT
HETATM    1  C   UNL     1     -12.432  12.013  63.447  1.00  0.00    -0.509 C  
HETATM    2  O   UNL     1     -13.207  12.683  64.440  1.00  0.00    -0.713 OA 
ENDROOT
BRANCH   2   3
HETATM    3  C   UNL     1     -12.483  13.480  65.284  1.00  0.00    -0.482 A  
HETATM    4  C   UNL     1     -12.832  13.742  66.610  1.00  0.00     0.286 A  
HETATM    5  C   UNL     1     -12.071  14.629  67.377  1.00  0.00    -0.183 A  
HETATM    6  O   UNL     1     -12.535  14.932  68.628  1.00  0.00    -0.582 OA 
HETATM    7  C   UNL     1     -10.918  15.227  66.854  1.00  0.00    -0.315 A  
HETATM    8  C   UNL     1     -11.325  14.044  64.755  1.00  0.00    -0.366 A  
HETATM    9  C   UNL     1     -10.550  14.913  65.533  1.00  0.00    -0.373 A  
HETATM   10  H   UNL     1     -12.018  15.535  69.149  1.00  0.00     0.000 HD 
BRANCH   7  11
HETATM   11  C   UNL     1     -10.080  16.237  67.559  1.00  0.00    -0.258 C  
HETATM   12  O   UNL     1     -10.605  17.294  67.917  1.00  0.00    -0.365 OA 
BRANCH  11  13
HETATM   13  C   UNL     1      -8.659  16.026  67.937  1.00  0.00    -0.165 A  
HETATM   14  C   UNL     1      -8.409  15.517  69.221  1.00  0.00    -0.257 A  
HETATM   15  C   UNL     1      -7.103  15.255  69.640  1.00  0.00    -0.187 A  
HETATM   16  C   UNL     1      -6.037  15.500  68.778  1.00  0.00    -0.099 A  
HETATM   17  C   UNL     1      -6.272  16.046  67.513  1.00  0.00    -0.194 A  
HETATM   18  C   UNL     1      -7.576  16.331  67.103  1.00  0.00    -0.195 A  
HETATM   19  O   UNL     1      -7.780  16.923  65.887  1.00  0.00    -0.343 OA 
HETATM   20  H   UNL     1      -7.046  17.130  65.321  1.00  0.00     0.000 HD 
ENDBRANCH  11  13
ENDBRANCH   7  11
ENDBRANCH   2   3
TORSDOF 3
ENDMDL
MODEL      135
REMARK 921   NORMALIZED FREE ENERGY PREDICTED BY IDOCK:   -4.58 KCAL/MOL
REMARK 922        TOTAL FREE ENERGY PREDICTED BY IDOCK:   -6.01 KCAL/MOL
REMARK 923 INTER-LIGAND FREE ENERGY PREDICTED BY IDOCK:   -5.86 KCAL/MOL
REMARK 924 INTRA-LIGAND FREE ENERGY PREDICTED BY IDOCK:   -0.15 KCAL/MOL
REMARK 927      BINDING AFFINITY PREDICTED BY RF-SCORE:    0.00 PKD
ROOT
HETATM    1  C   UNL     1     -12.209  15.004  70.165  1.00  0.00    -0.343 C  
HETATM    2  O   UNL     1     -12.026  15.493  68.838  1.00  0.00    -0.351 OA 
ENDROOT
BRANCH   2   3
HETATM    3  C   UNL     1     -11.696  14.533  67.920  1.00  0.00    -0.351 A  
HETATM    4  C   UNL     1     -12.477  14.204  66.811  1.00  0.00    -0.200 A  
HETATM    5  C   UNL     1     -12.096  13.159  65.965  1.00  0.00    -0.436 A  
HETATM    6  O   UNL     1     -12.967  12.810  64.969  1.00  0.00    -0.811 OA 
HETATM    7  C   UNL     1     -10.901  12.461  66.177  1.00  0.00    -0.308 A  
HETATM    8  C   UNL     1     -10.490  13.868  68.131  1.00  0.00    -0.246 A  
HETATM    9  C   UNL     1     -10.097  12.838  67.269  1.00  0.00    -0.226 A  
HETATM   10  H   UNL     1     -12.708  12.100  64.394  1.00  0.00     0.000 HD 
BRANCH   7  11
HETATM   11  C   UNL     1     -10.439  11.288  65.382  1.00  0.00    -0.268 C  
HETATM   12  O   UNL     1     -10.309  11.416  64.162  1.00  0.00    -0.285 OA 
BRANCH  11  13
HETATM   13  C   UNL     1     -10.042   9.983  65.972  1.00  0.00    -0.318 A  
HETATM   14  C   UNL     1      -9.063   9.246  65.288  1.00  0.00    -0.271 A  
HETATM   15  C   UNL     1      -8.608   8.027  65.796  1.00  0.00    -0.174 A  
HETATM   16  C   UNL     1      -9.130   7.537  66.990  1.00  0.00    -0.156 A  
HETATM   17  C   UNL     1     -10.134   8.243  67.657  1.00  0.00    -0.268 A  
HETATM   18  C   UNL     1     -10.607   9.450  67.137  1.00  0.00    -0.224 A  
HETATM   19  O   UNL     1     -11.634  10.094  67.769  1.00  0.00    -0.627 OA 
HETATM   20  H   UNL     1     -12.018   9.732  68.560  1.00  0.00     0.000 HD 
ENDBRANCH  11  13
ENDBRANCH   7  11
ENDBRANCH   2   3
TORSDOF 3
ENDMDL
MODEL      136
REMARK 921   NORMALIZED FREE ENERGY PREDICTED BY IDOCK:   -4.57 KCAL/MOL
REMARK 922        TOTAL FREE ENERGY PREDICTED BY IDOCK:   -6.00 KCAL/MOL
REMARK 923 INTER-LIGAND FREE ENERGY PREDICTED BY IDOCK:   -5.99 KCAL/MOL
REMARK 924 INTRA-LIGAND FREE ENERGY PREDICTED BY IDOCK:   -0.01 KCAL/MOL
REMARK 927      BINDING AFFINITY PREDICTED BY RF-SCORE:    0.00 PKD
ROOT
HETATM    1  C   UNL     1     -10.171   6.652  69.915  1.00  0.00    -0.187 C  
HETATM    2  O   UNL     1     -11.184   7.128  70.800  1.00  0.00    -0.259 OA 
ENDROOT
BRANCH   2   3
HETATM    3  C   UNL     1     -11.433   8.470  70.710  1.00  0.00    -0.253 A  
HETATM    4  C   UNL     1     -10.620   9.377  70.030  1.00  0.00    -0.267 A  
HETATM    5  C   UNL     1     -10.914  10.743  70.052  1.00  0.00    -0.211 A  
HETATM    6  O   UNL     1     -10.010  11.588  69.467  1.00  0.00    -0.385 OA 
HETATM    7  C   UNL     1     -12.054  11.223  70.707  1.00  0.00    -0.450 A  
HETATM    8  C   UNL     1     -12.587   8.926  71.343  1.00  0.00    -0.351 A  
HETATM    9  C   UNL     1     -12.894  10.291  71.345  1.00  0.00    -0.544 A  
HETATM   10  H   UNL     1     -10.210  12.517  69.482  1.00  0.00     0.000 HD 
BRANCH   7  11
HETATM   11  C   UNL     1     -12.420  12.660  70.853  1.00  0.00    -0.278 C  
HETATM   12  O   UNL     1     -13.070  13.008  71.842  1.00  0.00    -0.400 OA 
BRANCH  11  13
HETATM   13  C   UNL     1     -11.982  13.732  69.921  1.00  0.00    -0.412 A  
HETATM   14  C   UNL     1     -12.203  13.515  68.551  1.00  0.00    -0.160 A  
HETATM   15  C   UNL     1     -11.855  14.489  67.613  1.00  0.00    -0.395 A  
HETATM   16  C   UNL     1     -11.281  15.685  68.037  1.00  0.00    -0.339 A  
HETATM   17  C   UNL     1     -11.019  15.893  69.394  1.00  0.00    -0.309 A  
HETATM   18  C   UNL     1     -11.345  14.909  70.330  1.00  0.00    -0.243 A  
HETATM   19  O   UNL     1     -11.022  15.105  71.645  1.00  0.00    -0.542 OA 
HETATM   20  H   UNL     1     -10.590  15.903  71.923  1.00  0.00     0.000 HD 
ENDBRANCH  11  13
ENDBRANCH   7  11
ENDBRANCH   2   3
TORSDOF 3
ENDMDL
MODEL      137
REMARK 921   NORMALIZED FREE ENERGY PREDICTED BY IDOCK:   -4.56 KCAL/MOL
REMARK 922        TOTAL FREE ENERGY PREDICTED BY IDOCK:   -5.99 KCAL/MOL
REMARK 923 INTER-LIGAND FREE ENERGY PREDICTED BY IDOCK:   -5.23 KCAL/MOL
REMARK 924 INTRA-LIGAND FREE ENERGY PREDICTED BY IDOCK:   -0.76 KCAL/MOL
REMARK 927      BINDING AFFINITY PREDICTED BY RF-SCORE:    0.00 PKD
ROOT
HETATM    1  C   UNL     1     -11.182   8.029  72.592  1.00  0.00    -0.397 C  
HETATM    2  O   UNL     1     -12.126   9.018  72.186  1.00  0.00    -0.363 OA 
ENDROOT
BRANCH   2   3
HETATM    3  C   UNL     1     -11.721   9.794  71.135  1.00  0.00    -0.385 A  
HETATM    4  C   UNL     1     -10.480   9.681  70.507  1.00  0.00    -0.367 A  
HETATM    5  C   UNL     1     -10.122  10.566  69.486  1.00  0.00    -0.178 A  
HETATM    6  O   UNL     1      -8.847  10.476  68.997  1.00  0.00    -0.159 OA 
HETATM    7  C   UNL     1     -11.016  11.545  69.037  1.00  0.00    -0.285 A  
HETATM    8  C   UNL     1     -12.634  10.744  70.682  1.00  0.00    -0.446 A  
HETATM    9  C   UNL     1     -12.283  11.614  69.644  1.00  0.00    -0.271 A  
HETATM   10  H   UNL     1      -8.604  11.077  68.303  1.00  0.00     0.000 HD 
BRANCH   7  11
HETATM   11  C   UNL     1     -10.710  12.581  68.010  1.00  0.00    -0.221 C  
HETATM   12  O   UNL     1     -10.741  12.260  66.819  1.00  0.00    -0.230 OA 
BRANCH  11  13
HETATM   13  C   UNL     1     -10.446  14.010  68.319  1.00  0.00    -0.245 A  
HETATM   14  C   UNL     1     -11.503  14.912  68.117  1.00  0.00    -0.348 A  
HETATM   15  C   UNL     1     -11.348  16.266  68.419  1.00  0.00    -0.312 A  
HETATM   16  C   UNL     1     -10.135  16.729  68.924  1.00  0.00    -0.285 A  
HETATM   17  C   UNL     1      -9.064  15.847  69.089  1.00  0.00    -0.255 A  
HETATM   18  C   UNL     1      -9.211  14.496  68.764  1.00  0.00    -0.162 A  
HETATM   19  O   UNL     1      -8.133  13.662  68.872  1.00  0.00    -0.321 OA 
HETATM   20  H   UNL     1      -7.295  13.992  69.174  1.00  0.00     0.000 HD 
ENDBRANCH  11  13
ENDBRANCH   7  11
ENDBRANCH   2   3
TORSDOF 3
ENDMDL
MODEL      138
REMARK 921   NORMALIZED FREE ENERGY PREDICTED BY IDOCK:   -4.53 KCAL/MOL
REMARK 922        TOTAL FREE ENERGY PREDICTED BY IDOCK:   -5.95 KCAL/MOL
REMARK 923 INTER-LIGAND FREE ENERGY PREDICTED BY IDOCK:   -5.07 KCAL/MOL
REMARK 924 INTRA-LIGAND FREE ENERGY PREDICTED BY IDOCK:   -0.88 KCAL/MOL
REMARK 927      BINDING AFFINITY PREDICTED BY RF-SCORE:    0.00 PKD
ROOT
HETATM    1  C   UNL     1      -5.550   9.679  69.126  1.00  0.00    -0.035 C  
HETATM    2  O   UNL     1      -5.822  10.925  68.488  1.00  0.00    -0.044 OA 
ENDROOT
BRANCH   2   3
HETATM    3  C   UNL     1      -7.150  11.251  68.421  1.00  0.00    -0.081 A  
HETATM    4  C   UNL     1      -7.636  12.481  67.976  1.00  0.00    -0.127 A  
HETATM    5  C   UNL     1      -9.007  12.752  68.010  1.00  0.00    -0.196 A  
HETATM    6  O   UNL     1      -9.404  14.017  67.674  1.00  0.00    -0.192 OA 
HETATM    7  C   UNL     1      -9.921  11.781  68.435  1.00  0.00    -0.202 A  
HETATM    8  C   UNL     1      -8.047  10.263  68.821  1.00  0.00    -0.120 A  
HETATM    9  C   UNL     1      -9.421  10.527  68.831  1.00  0.00    -0.199 A  
HETATM   10  H   UNL     1     -10.335  14.201  67.697  1.00  0.00     0.000 HD 
BRANCH   7  11
HETATM   11  C   UNL     1     -11.390  11.990  68.578  1.00  0.00    -0.272 C  
HETATM   12  O   UNL     1     -12.136  11.576  67.686  1.00  0.00    -0.623 OA 
BRANCH  11  13
HETATM   13  C   UNL     1     -12.035  12.597  69.771  1.00  0.00    -0.365 A  
HETATM   14  C   UNL     1     -12.467  11.719  70.779  1.00  0.00    -0.405 A  
HETATM   15  C   UNL     1     -13.048  12.211  71.948  1.00  0.00    -0.475 A  
HETATM   16  C   UNL     1     -13.203  13.585  72.119  1.00  0.00    -0.551 A  
HETATM   17  C   UNL     1     -12.815  14.465  71.105  1.00  0.00    -0.417 A  
HETATM   18  C   UNL     1     -12.255  13.971  69.925  1.00  0.00    -0.340 A  
HETATM   19  O   UNL     1     -11.940  14.842  68.919  1.00  0.00    -0.427 OA 
HETATM   20  H   UNL     1     -12.090  15.774  69.023  1.00  0.00     0.000 HD 
ENDBRANCH  11  13
ENDBRANCH   7  11
ENDBRANCH   2   3
TORSDOF 3
ENDMDL
MODEL      139
REMARK 921   NORMALIZED FREE ENERGY PREDICTED BY IDOCK:   -4.52 KCAL/MOL
REMARK 922        TOTAL FREE ENERGY PREDICTED BY IDOCK:   -5.93 KCAL/MOL
REMARK 923 INTER-LIGAND FREE ENERGY PREDICTED BY IDOCK:   -5.15 KCAL/MOL
REMARK 924 INTRA-LIGAND FREE ENERGY PREDICTED BY IDOCK:   -0.78 KCAL/MOL
REMARK 927      BINDING AFFINITY PREDICTED BY RF-SCORE:    0.00 PKD
ROOT
HETATM    1  C   UNL     1      -7.183  18.304  68.799  1.00  0.00    -0.279 C  
HETATM    2  O   UNL     1      -7.099  16.916  69.116  1.00  0.00    -0.228 OA 
ENDROOT
BRANCH   2   3
HETATM    3  C   UNL     1      -8.263  16.220  68.935  1.00  0.00    -0.231 A  
HETATM    4  C   UNL     1      -9.523  16.810  68.826  1.00  0.00    -0.259 A  
HETATM    5  C   UNL     1     -10.667  16.015  68.715  1.00  0.00    -0.282 A  
HETATM    6  O   UNL     1     -11.878  16.653  68.733  1.00  0.00    -0.017 OA 
HETATM    7  C   UNL     1     -10.571  14.620  68.656  1.00  0.00    -0.252 A  
HETATM    8  C   UNL     1      -8.145  14.834  68.850  1.00  0.00    -0.160 A  
HETATM    9  C   UNL     1      -9.290  14.040  68.715  1.00  0.00    -0.059 A  
HETATM   10  H   UNL     1     -12.655  16.113  68.657  1.00  0.00     0.000 HD 
BRANCH   7  11
HETATM   11  C   UNL     1     -11.727  13.680  68.611  1.00  0.00    -0.354 C  
HETATM   12  O   UNL     1     -12.275  13.468  67.526  1.00  0.00    -0.325 OA 
BRANCH  11  13
HETATM   13  C   UNL     1     -12.222  12.910  69.781  1.00  0.00    -0.227 A  
HETATM   14  C   UNL     1     -12.071  11.515  69.736  1.00  0.00    -0.374 A  
HETATM   15  C   UNL     1     -12.477  10.722  70.811  1.00  0.00    -0.481 A  
HETATM   16  C   UNL     1     -13.037  11.318  71.939  1.00  0.00    -0.510 A  
HETATM   17  C   UNL     1     -13.229  12.701  71.977  1.00  0.00    -0.531 A  
HETATM   18  C   UNL     1     -12.846  13.492  70.891  1.00  0.00    -0.226 A  
HETATM   19  O   UNL     1     -13.100  14.836  70.921  1.00  0.00    -0.353 OA 
HETATM   20  H   UNL     1     -13.524  15.231  71.673  1.00  0.00     0.000 HD 
ENDBRANCH  11  13
ENDBRANCH   7  11
ENDBRANCH   2   3
TORSDOF 3
ENDMDL
MODEL      140
REMARK 921   NORMALIZED FREE ENERGY PREDICTED BY IDOCK:   -4.51 KCAL/MOL
REMARK 922        TOTAL FREE ENERGY PREDICTED BY IDOCK:   -5.92 KCAL/MOL
REMARK 923 INTER-LIGAND FREE ENERGY PREDICTED BY IDOCK:   -5.40 KCAL/MOL
REMARK 924 INTRA-LIGAND FREE ENERGY PREDICTED BY IDOCK:   -0.53 KCAL/MOL
REMARK 927      BINDING AFFINITY PREDICTED BY RF-SCORE:    0.00 PKD
ROOT
HETATM    1  C   UNL     1      -8.893   4.230  67.448  1.00  0.00    -0.110 C  
HETATM    2  O   UNL     1     -10.115   4.961  67.367  1.00  0.00    -0.179 OA 
ENDROOT
BRANCH   2   3
HETATM    3  C   UNL     1      -9.961   6.307  67.176  1.00  0.00    -0.151 A  
HETATM    4  C   UNL     1     -10.605   7.287  67.933  1.00  0.00    -0.266 A  
HETATM    5  C   UNL     1     -10.443   8.639  67.620  1.00  0.00    -0.244 A  
HETATM    6  O   UNL     1     -11.196   9.540  68.324  1.00  0.00    -0.502 OA 
HETATM    7  C   UNL     1      -9.594   9.041  66.582  1.00  0.00    -0.274 A  
HETATM    8  C   UNL     1      -9.090   6.689  66.158  1.00  0.00    -0.143 A  
HETATM    9  C   UNL     1      -8.911   8.045  65.861  1.00  0.00    -0.189 A  
HETATM   10  H   UNL     1     -11.086  10.459  68.112  1.00  0.00     0.000 HD 
BRANCH   7  11
HETATM   11  C   UNL     1      -9.407  10.446  66.121  1.00  0.00    -0.172 C  
HETATM   12  O   UNL     1      -8.306  10.979  66.279  1.00  0.00    -0.160 OA 
BRANCH  11  13
HETATM   13  C   UNL     1     -10.442  11.233  65.402  1.00  0.00    -0.326 A  
HETATM   14  C   UNL     1     -11.241  12.092  66.175  1.00  0.00    -0.394 A  
HETATM   15  C   UNL     1     -12.212  12.893  65.571  1.00  0.00    -0.527 A  
HETATM   16  C   UNL     1     -12.391  12.842  64.190  1.00  0.00    -0.485 A  
HETATM   17  C   UNL     1     -11.630  11.961  63.418  1.00  0.00    -0.477 A  
HETATM   18  C   UNL     1     -10.676  11.141  64.025  1.00  0.00    -0.339 A  
HETATM   19  O   UNL     1      -9.986  10.240  63.261  1.00  0.00    -0.458 OA 
HETATM   20  H   UNL     1     -10.144  10.177  62.327  1.00  0.00     0.000 HD 
ENDBRANCH  11  13
ENDBRANCH   7  11
ENDBRANCH   2   3
TORSDOF 3
ENDMDL
MODEL      141
REMARK 921   NORMALIZED FREE ENERGY PREDICTED BY IDOCK:   -4.51 KCAL/MOL
REMARK 922        TOTAL FREE ENERGY PREDICTED BY IDOCK:   -5.92 KCAL/MOL
REMARK 923 INTER-LIGAND FREE ENERGY PREDICTED BY IDOCK:   -4.99 KCAL/MOL
REMARK 924 INTRA-LIGAND FREE ENERGY PREDICTED BY IDOCK:   -0.93 KCAL/MOL
REMARK 927      BINDING AFFINITY PREDICTED BY RF-SCORE:    0.00 PKD
ROOT
HETATM    1  C   UNL     1      -6.266   8.115  73.869  1.00  0.00    -0.107 C  
HETATM    2  O   UNL     1      -7.516   8.801  73.873  1.00  0.00    -0.402 OA 
ENDROOT
BRANCH   2   3
HETATM    3  C   UNL     1      -8.471   8.249  73.063  1.00  0.00    -0.195 A  
HETATM    4  C   UNL     1      -9.624   7.615  73.526  1.00  0.00    -0.348 A  
HETATM    5  C   UNL     1     -10.509   7.014  72.626  1.00  0.00    -0.226 A  
HETATM    6  O   UNL     1     -11.556   6.308  73.154  1.00  0.00    -0.469 OA 
HETATM    7  C   UNL     1     -10.288   7.083  71.246  1.00  0.00    -0.217 A  
HETATM    8  C   UNL     1      -8.249   8.351  71.691  1.00  0.00    -0.195 A  
HETATM    9  C   UNL     1      -9.148   7.770  70.790  1.00  0.00    -0.149 A  
HETATM   10  H   UNL     1     -12.157   5.900  72.543  1.00  0.00     0.000 HD 
BRANCH   7  11
HETATM   11  C   UNL     1     -11.126   6.418  70.208  1.00  0.00    -0.354 C  
HETATM   12  O   UNL     1     -12.344   6.614  70.218  1.00  0.00    -0.227 OA 
BRANCH  11  13
HETATM   13  C   UNL     1     -10.583   5.591  69.100  1.00  0.00    -0.300 A  
HETATM   14  C   UNL     1      -9.707   4.551  69.451  1.00  0.00    -0.272 A  
HETATM   15  C   UNL     1      -9.181   3.705  68.473  1.00  0.00    -0.220 A  
HETATM   16  C   UNL     1      -9.527   3.892  67.137  1.00  0.00    -0.231 A  
HETATM   17  C   UNL     1     -10.365   4.949  66.772  1.00  0.00    -0.264 A  
HETATM   18  C   UNL     1     -10.872   5.811  67.748  1.00  0.00    -0.167 A  
HETATM   19  O   UNL     1     -11.638   6.877  67.365  1.00  0.00    -0.652 OA 
HETATM   20  H   UNL     1     -11.834   7.027  66.448  1.00  0.00     0.000 HD 
ENDBRANCH  11  13
ENDBRANCH   7  11
ENDBRANCH   2   3
TORSDOF 3
ENDMDL
MODEL      142
REMARK 921   NORMALIZED FREE ENERGY PREDICTED BY IDOCK:   -4.50 KCAL/MOL
REMARK 922        TOTAL FREE ENERGY PREDICTED BY IDOCK:   -5.91 KCAL/MOL
REMARK 923 INTER-LIGAND FREE ENERGY PREDICTED BY IDOCK:   -5.21 KCAL/MOL
REMARK 924 INTRA-LIGAND FREE ENERGY PREDICTED BY IDOCK:   -0.70 KCAL/MOL
REMARK 927      BINDING AFFINITY PREDICTED BY RF-SCORE:    0.00 PKD
ROOT
HETATM    1  C   UNL     1     -12.244  15.368  64.578  1.00  0.00    -0.124 C  
HETATM    2  O   UNL     1     -12.738  14.097  64.160  1.00  0.00    -0.656 OA 
ENDROOT
BRANCH   2   3
HETATM    3  C   UNL     1     -11.923  13.042  64.466  1.00  0.00    -0.394 A  
HETATM    4  C   UNL     1     -11.259  12.261  63.519  1.00  0.00    -0.535 A  
HETATM    5  C   UNL     1     -10.503  11.156  63.919  1.00  0.00    -0.381 A  
HETATM    6  O   UNL     1      -9.978  10.365  62.934  1.00  0.00    -0.544 OA 
HETATM    7  C   UNL     1     -10.351  10.843  65.275  1.00  0.00    -0.334 A  
HETATM    8  C   UNL     1     -11.760  12.762  65.821  1.00  0.00    -0.449 A  
HETATM    9  C   UNL     1     -10.983  11.669  66.222  1.00  0.00    -0.338 A  
HETATM   10  H   UNL     1      -9.464   9.614  63.206  1.00  0.00     0.000 HD 
BRANCH   7  11
HETATM   11  C   UNL     1      -9.630   9.650  65.805  1.00  0.00    -0.263 C  
HETATM   12  O   UNL     1     -10.267   8.813  66.449  1.00  0.00    -0.289 OA 
BRANCH  11  13
HETATM   13  C   UNL     1      -8.198   9.355  65.540  1.00  0.00    -0.127 A  
HETATM   14  C   UNL     1      -7.303  10.435  65.599  1.00  0.00    -0.148 A  
HETATM   15  C   UNL     1      -5.935  10.235  65.399  1.00  0.00    -0.115 A  
HETATM   16  C   UNL     1      -5.453   8.955  65.139  1.00  0.00    -0.038 A  
HETATM   17  C   UNL     1      -6.340   7.880  65.037  1.00  0.00    -0.041 A  
HETATM   18  C   UNL     1      -7.711   8.084  65.213  1.00  0.00    -0.099 A  
HETATM   19  O   UNL     1      -8.570   7.032  65.046  1.00  0.00    -0.336 OA 
HETATM   20  H   UNL     1      -8.240   6.170  64.824  1.00  0.00     0.000 HD 
ENDBRANCH  11  13
ENDBRANCH   7  11
ENDBRANCH   2   3
TORSDOF 3
ENDMDL
MODEL      143
REMARK 921   NORMALIZED FREE ENERGY PREDICTED BY IDOCK:   -4.49 KCAL/MOL
REMARK 922        TOTAL FREE ENERGY PREDICTED BY IDOCK:   -5.90 KCAL/MOL
REMARK 923 INTER-LIGAND FREE ENERGY PREDICTED BY IDOCK:   -5.43 KCAL/MOL
REMARK 924 INTRA-LIGAND FREE ENERGY PREDICTED BY IDOCK:   -0.47 KCAL/MOL
REMARK 927      BINDING AFFINITY PREDICTED BY RF-SCORE:    0.00 PKD
ROOT
HETATM    1  C   UNL     1      -7.065  19.151  65.739  1.00  0.00    -0.266 C  
HETATM    2  O   UNL     1      -7.800  18.911  66.938  1.00  0.00    -0.235 OA 
ENDROOT
BRANCH   2   3
HETATM    3  C   UNL     1      -8.485  17.727  66.957  1.00  0.00    -0.231 A  
HETATM    4  C   UNL     1      -7.887  16.470  66.859  1.00  0.00    -0.263 A  
HETATM    5  C   UNL     1      -8.673  15.316  66.814  1.00  0.00    -0.270 A  
HETATM    6  O   UNL     1      -8.031  14.128  66.597  1.00  0.00    -0.291 OA 
HETATM    7  C   UNL     1     -10.067  15.391  66.923  1.00  0.00    -0.258 A  
HETATM    8  C   UNL     1      -9.869  17.819  67.095  1.00  0.00    -0.311 A  
HETATM    9  C   UNL     1     -10.654  16.660  67.074  1.00  0.00    -0.247 A  
HETATM   10  H   UNL     1      -8.565  13.343  66.566  1.00  0.00     0.000 HD 
BRANCH   7  11
HETATM   11  C   UNL     1     -11.000  14.233  66.815  1.00  0.00    -0.304 C  
HETATM   12  O   UNL     1     -12.014  14.223  67.517  1.00  0.00    -0.389 OA 
BRANCH  11  13
HETATM   13  C   UNL     1     -10.834  13.114  65.851  1.00  0.00    -0.288 A  
HETATM   14  C   UNL     1     -10.650  13.457  64.502  1.00  0.00    -0.441 A  
HETATM   15  C   UNL     1     -10.450  12.467  63.539  1.00  0.00    -0.430 A  
HETATM   16  C   UNL     1     -10.432  11.126  63.917  1.00  0.00    -0.445 A  
HETATM   17  C   UNL     1     -10.655  10.773  65.250  1.00  0.00    -0.230 A  
HETATM   18  C   UNL     1     -10.880  11.762  66.210  1.00  0.00    -0.281 A  
HETATM   19  O   UNL     1     -11.160  11.393  67.497  1.00  0.00    -0.244 OA 
HETATM   20  H   UNL     1     -11.191  10.476  67.741  1.00  0.00     0.000 HD 
ENDBRANCH  11  13
ENDBRANCH   7  11
ENDBRANCH   2   3
TORSDOF 3
ENDMDL
MODEL      144
REMARK 921   NORMALIZED FREE ENERGY PREDICTED BY IDOCK:   -4.48 KCAL/MOL
REMARK 922        TOTAL FREE ENERGY PREDICTED BY IDOCK:   -5.89 KCAL/MOL
REMARK 923 INTER-LIGAND FREE ENERGY PREDICTED BY IDOCK:   -5.35 KCAL/MOL
REMARK 924 INTRA-LIGAND FREE ENERGY PREDICTED BY IDOCK:   -0.54 KCAL/MOL
REMARK 927      BINDING AFFINITY PREDICTED BY RF-SCORE:    0.00 PKD
ROOT
HETATM    1  C   UNL     1      -6.849  11.064  66.497  1.00  0.00    -0.132 C  
HETATM    2  O   UNL     1      -8.103  11.036  67.175  1.00  0.00    -0.125 OA 
ENDROOT
BRANCH   2   3
HETATM    3  C   UNL     1      -8.624  12.269  67.458  1.00  0.00    -0.174 A  
HETATM    4  C   UNL     1      -8.066  13.168  68.369  1.00  0.00    -0.130 A  
HETATM    5  C   UNL     1      -8.708  14.377  68.649  1.00  0.00    -0.164 A  
HETATM    6  O   UNL     1      -8.172  15.156  69.638  1.00  0.00    -0.358 OA 
HETATM    7  C   UNL     1      -9.887  14.736  67.985  1.00  0.00    -0.218 A  
HETATM    8  C   UNL     1      -9.781  12.622  66.768  1.00  0.00    -0.240 A  
HETATM    9  C   UNL     1     -10.410  13.844  67.032  1.00  0.00    -0.267 A  
HETATM   10  H   UNL     1      -8.608  15.978  69.828  1.00  0.00     0.000 HD 
BRANCH   7  11
HETATM   11  C   UNL     1     -10.687  15.964  68.260  1.00  0.00    -0.291 C  
HETATM   12  O   UNL     1     -11.703  15.864  68.952  1.00  0.00    -0.390 OA 
BRANCH  11  13
HETATM   13  C   UNL     1     -10.298  17.329  67.822  1.00  0.00    -0.356 A  
HETATM   14  C   UNL     1      -9.923  18.238  68.824  1.00  0.00    -0.391 A  
HETATM   15  C   UNL     1      -9.509  19.529  68.493  1.00  0.00    -0.455 A  
HETATM   16  C   UNL     1      -9.467  19.922  67.157  1.00  0.00    -0.497 A  
HETATM   17  C   UNL     1      -9.877  19.038  66.155  1.00  0.00    -0.370 A  
HETATM   18  C   UNL     1     -10.315  17.754  66.488  1.00  0.00    -0.345 A  
HETATM   19  O   UNL     1     -10.773  16.927  65.500  1.00  0.00    -0.445 OA 
HETATM   20  H   UNL     1     -10.785  17.216  64.595  1.00  0.00     0.000 HD 
ENDBRANCH  11  13
ENDBRANCH   7  11
ENDBRANCH   2   3
TORSDOF 3
ENDMDL
MODEL      145
REMARK 921   NORMALIZED FREE ENERGY PREDICTED BY IDOCK:   -4.48 KCAL/MOL
REMARK 922        TOTAL FREE ENERGY PREDICTED BY IDOCK:   -5.89 KCAL/MOL
REMARK 923 INTER-LIGAND FREE ENERGY PREDICTED BY IDOCK:   -5.12 KCAL/MOL
REMARK 924 INTRA-LIGAND FREE ENERGY PREDICTED BY IDOCK:   -0.77 KCAL/MOL
REMARK 927      BINDING AFFINITY PREDICTED BY RF-SCORE:    0.00 PKD
ROOT
HETATM    1  C   UNL     1      -8.522   6.923  67.048  1.00  0.00    -0.121 C  
HETATM    2  O   UNL     1      -9.664   7.400  66.339  1.00  0.00    -0.173 OA 
ENDROOT
BRANCH   2   3
HETATM    3  C   UNL     1      -9.972   8.713  66.573  1.00  0.00    -0.282 A  
HETATM    4  C   UNL     1     -10.874   9.147  67.545  1.00  0.00    -0.151 A  
HETATM    5  C   UNL     1     -11.182  10.505  67.666  1.00  0.00    -0.265 A  
HETATM    6  O   UNL     1     -12.162  10.849  68.557  1.00  0.00    -0.799 OA 
HETATM    7  C   UNL     1     -10.554  11.460  66.856  1.00  0.00    -0.292 A  
HETATM    8  C   UNL     1      -9.317   9.651  65.778  1.00  0.00    -0.286 A  
HETATM    9  C   UNL     1      -9.608  11.013  65.916  1.00  0.00    -0.255 A  
HETATM   10  H   UNL     1     -12.371  11.772  68.639  1.00  0.00     0.000 HD 
BRANCH   7  11
HETATM   11  C   UNL     1     -10.861  12.918  66.853  1.00  0.00    -0.257 C  
HETATM   12  O   UNL     1     -11.712  13.341  66.067  1.00  0.00    -0.336 OA 
BRANCH  11  13
HETATM   13  C   UNL     1     -10.265  13.899  67.797  1.00  0.00    -0.237 A  
HETATM   14  C   UNL     1      -8.883  14.126  67.693  1.00  0.00    -0.194 A  
HETATM   15  C   UNL     1      -8.253  15.059  68.519  1.00  0.00    -0.151 A  
HETATM   16  C   UNL     1      -9.000  15.771  69.454  1.00  0.00    -0.247 A  
HETATM   17  C   UNL     1     -10.368  15.523  69.594  1.00  0.00    -0.286 A  
HETATM   18  C   UNL     1     -10.994  14.572  68.785  1.00  0.00    -0.250 A  
HETATM   19  O   UNL     1     -12.320  14.298  68.980  1.00  0.00    -0.539 OA 
HETATM   20  H   UNL     1     -12.814  14.754  69.650  1.00  0.00     0.000 HD 
ENDBRANCH  11  13
ENDBRANCH   7  11
ENDBRANCH   2   3
TORSDOF 3
ENDMDL
MODEL      146
REMARK 921   NORMALIZED FREE ENERGY PREDICTED BY IDOCK:   -4.47 KCAL/MOL
REMARK 922        TOTAL FREE ENERGY PREDICTED BY IDOCK:   -5.88 KCAL/MOL
REMARK 923 INTER-LIGAND FREE ENERGY PREDICTED BY IDOCK:   -4.96 KCAL/MOL
REMARK 924 INTRA-LIGAND FREE ENERGY PREDICTED BY IDOCK:   -0.92 KCAL/MOL
REMARK 927      BINDING AFFINITY PREDICTED BY RF-SCORE:    0.00 PKD
ROOT
HETATM    1  C   UNL     1     -11.334  14.951  66.741  1.00  0.00    -0.328 C  
HETATM    2  O   UNL     1     -10.632  13.903  66.076  1.00  0.00    -0.284 OA 
ENDROOT
BRANCH   2   3
HETATM    3  C   UNL     1     -10.371  12.808  66.855  1.00  0.00    -0.238 A  
HETATM    4  C   UNL     1      -9.263  12.687  67.694  1.00  0.00    -0.191 A  
HETATM    5  C   UNL     1      -9.038  11.502  68.400  1.00  0.00    -0.185 A  
HETATM    6  O   UNL     1      -7.872  11.406  69.109  1.00  0.00    -0.301 OA 
HETATM    7  C   UNL     1      -9.944  10.437  68.324  1.00  0.00    -0.168 A  
HETATM    8  C   UNL     1     -11.298  11.770  66.789  1.00  0.00    -0.385 A  
HETATM    9  C   UNL     1     -11.084  10.593  67.515  1.00  0.00    -0.367 A  
HETATM   10  H   UNL     1      -7.719  10.600  69.588  1.00  0.00     0.000 HD 
BRANCH   7  11
HETATM   11  C   UNL     1      -9.764   9.109  68.975  1.00  0.00    -0.166 C  
HETATM   12  O   UNL     1      -8.761   8.445  68.697  1.00  0.00    -0.131 OA 
BRANCH  11  13
HETATM   13  C   UNL     1     -10.676   8.555  70.009  1.00  0.00    -0.234 A  
HETATM   14  C   UNL     1     -10.766   9.257  71.222  1.00  0.00    -0.422 A  
HETATM   15  C   UNL     1     -11.628   8.824  72.231  1.00  0.00    -0.391 A  
HETATM   16  C   UNL     1     -12.406   7.685  72.035  1.00  0.00    -0.312 A  
HETATM   17  C   UNL     1     -12.293   6.956  70.849  1.00  0.00    -0.365 A  
HETATM   18  C   UNL     1     -11.413   7.376  69.848  1.00  0.00    -0.003 A  
HETATM   19  O   UNL     1     -11.270   6.614  68.721  1.00  0.00    -0.488 OA 
HETATM   20  H   UNL     1     -11.770   5.814  68.612  1.00  0.00     0.000 HD 
ENDBRANCH  11  13
ENDBRANCH   7  11
ENDBRANCH   2   3
TORSDOF 3
ENDMDL
MODEL      147
REMARK 921   NORMALIZED FREE ENERGY PREDICTED BY IDOCK:   -4.47 KCAL/MOL
REMARK 922        TOTAL FREE ENERGY PREDICTED BY IDOCK:   -5.87 KCAL/MOL
REMARK 923 INTER-LIGAND FREE ENERGY PREDICTED BY IDOCK:   -4.98 KCAL/MOL
REMARK 924 INTRA-LIGAND FREE ENERGY PREDICTED BY IDOCK:   -0.89 KCAL/MOL
REMARK 927      BINDING AFFINITY PREDICTED BY RF-SCORE:    0.00 PKD
ROOT
HETATM    1  C   UNL     1      -7.300  13.462  67.516  1.00  0.00    -0.156 C  
HETATM    2  O   UNL     1      -8.474  12.907  66.927  1.00  0.00    -0.174 OA 
ENDROOT
BRANCH   2   3
HETATM    3  C   UNL     1      -9.159  12.039  67.734  1.00  0.00    -0.187 A  
HETATM    4  C   UNL     1     -10.542  11.859  67.699  1.00  0.00    -0.241 A  
HETATM    5  C   UNL     1     -11.166  11.003  68.611  1.00  0.00    -0.263 A  
HETATM    6  O   UNL     1     -12.534  10.964  68.600  1.00  0.00    -0.772 OA 
HETATM    7  C   UNL     1     -10.415  10.269  69.537  1.00  0.00    -0.268 A  
HETATM    8  C   UNL     1      -8.393  11.296  68.629  1.00  0.00    -0.146 A  
HETATM    9  C   UNL     1      -9.016  10.421  69.526  1.00  0.00    -0.127 A  
HETATM   10  H   UNL     1     -12.957  10.382  69.220  1.00  0.00     0.000 HD 
BRANCH   7  11
HETATM   11  C   UNL     1     -10.983   9.387  70.596  1.00  0.00    -0.290 C  
HETATM   12  O   UNL     1     -11.681   9.896  71.477  1.00  0.00    -0.380 OA 
BRANCH  11  13
HETATM   13  C   UNL     1     -10.832   7.909  70.621  1.00  0.00    -0.238 A  
HETATM   14  C   UNL     1     -10.805   7.250  69.382  1.00  0.00    -0.206 A  
HETATM   15  C   UNL     1     -10.629   5.866  69.318  1.00  0.00    -0.379 A  
HETATM   16  C   UNL     1     -10.479   5.132  70.492  1.00  0.00    -0.278 A  
HETATM   17  C   UNL     1     -10.546   5.773  71.732  1.00  0.00    -0.293 A  
HETATM   18  C   UNL     1     -10.746   7.154  71.797  1.00  0.00    -0.215 A  
HETATM   19  O   UNL     1     -10.872   7.754  73.020  1.00  0.00    -0.373 OA 
HETATM   20  H   UNL     1     -10.815   7.242  73.817  1.00  0.00     0.000 HD 
ENDBRANCH  11  13
ENDBRANCH   7  11
ENDBRANCH   2   3
TORSDOF 3
ENDMDL
MODEL      148
REMARK 921   NORMALIZED FREE ENERGY PREDICTED BY IDOCK:   -4.44 KCAL/MOL
REMARK 922        TOTAL FREE ENERGY PREDICTED BY IDOCK:   -5.84 KCAL/MOL
REMARK 923 INTER-LIGAND FREE ENERGY PREDICTED BY IDOCK:   -4.94 KCAL/MOL
REMARK 924 INTRA-LIGAND FREE ENERGY PREDICTED BY IDOCK:   -0.91 KCAL/MOL
REMARK 927      BINDING AFFINITY PREDICTED BY RF-SCORE:    0.00 PKD
ROOT
HETATM    1  C   UNL     1      -5.349  12.235  70.377  1.00  0.00    -0.131 C  
HETATM    2  O   UNL     1      -5.573  11.468  69.195  1.00  0.00    -0.047 OA 
ENDROOT
BRANCH   2   3
HETATM    3  C   UNL     1      -6.829  11.593  68.666  1.00  0.00    -0.079 A  
HETATM    4  C   UNL     1      -7.613  12.742  68.766  1.00  0.00    -0.025 A  
HETATM    5  C   UNL     1      -8.915  12.755  68.257  1.00  0.00    -0.175 A  
HETATM    6  O   UNL     1      -9.670  13.872  68.495  1.00  0.00    -0.221 OA 
HETATM    7  C   UNL     1      -9.438  11.640  67.591  1.00  0.00    -0.177 A  
HETATM    8  C   UNL     1      -7.322  10.484  67.982  1.00  0.00    -0.089 A  
HETATM    9  C   UNL     1      -8.617  10.506  67.452  1.00  0.00    -0.122 A  
HETATM   10  H   UNL     1     -10.554  13.880  68.149  1.00  0.00     0.000 HD 
BRANCH   7  11
HETATM   11  C   UNL     1     -10.831  11.523  67.077  1.00  0.00    -0.273 C  
HETATM   12  O   UNL     1     -11.667  10.930  67.764  1.00  0.00    -0.569 OA 
BRANCH  11  13
HETATM   13  C   UNL     1     -11.312  12.148  65.817  1.00  0.00    -0.402 A  
HETATM   14  C   UNL     1     -10.961  11.512  64.616  1.00  0.00    -0.353 A  
HETATM   15  C   UNL     1     -11.404  12.014  63.391  1.00  0.00    -0.484 A  
HETATM   16  C   UNL     1     -12.200  13.157  63.358  1.00  0.00    -0.521 A  
HETATM   17  C   UNL     1     -12.520  13.821  64.545  1.00  0.00    -0.329 A  
HETATM   18  C   UNL     1     -12.057  13.332  65.769  1.00  0.00    -0.441 A  
HETATM   19  O   UNL     1     -12.327  14.031  66.913  1.00  0.00    -0.496 OA 
HETATM   20  H   UNL     1     -12.832  14.835  66.881  1.00  0.00     0.000 HD 
ENDBRANCH  11  13
ENDBRANCH   7  11
ENDBRANCH   2   3
TORSDOF 3
ENDMDL
MODEL      149
REMARK 921   NORMALIZED FREE ENERGY PREDICTED BY IDOCK:   -4.39 KCAL/MOL
REMARK 922        TOTAL FREE ENERGY PREDICTED BY IDOCK:   -5.78 KCAL/MOL
REMARK 923 INTER-LIGAND FREE ENERGY PREDICTED BY IDOCK:   -5.18 KCAL/MOL
REMARK 924 INTRA-LIGAND FREE ENERGY PREDICTED BY IDOCK:   -0.60 KCAL/MOL
REMARK 927      BINDING AFFINITY PREDICTED BY RF-SCORE:    0.00 PKD
ROOT
HETATM    1  C   UNL     1      -9.999  17.593  67.410  1.00  0.00    -0.321 C  
HETATM    2  O   UNL     1     -10.901  16.937  68.299  1.00  0.00    -0.362 OA 
ENDROOT
BRANCH   2   3
HETATM    3  C   UNL     1     -10.885  15.571  68.221  1.00  0.00    -0.292 A  
HETATM    4  C   UNL     1      -9.875  14.831  67.605  1.00  0.00    -0.218 A  
HETATM    5  C   UNL     1      -9.978  13.440  67.509  1.00  0.00    -0.230 A  
HETATM    6  O   UNL     1      -9.014  12.789  66.789  1.00  0.00    -0.220 OA 
HETATM    7  C   UNL     1     -11.062  12.759  68.075  1.00  0.00    -0.284 A  
HETATM    8  C   UNL     1     -11.957  14.908  68.814  1.00  0.00    -0.284 A  
HETATM    9  C   UNL     1     -12.047  13.513  68.738  1.00  0.00    -0.305 A  
HETATM   10  H   UNL     1      -9.084  11.844  66.724  1.00  0.00     0.000 HD 
BRANCH   7  11
HETATM   11  C   UNL     1     -11.305  11.292  67.967  1.00  0.00    -0.304 C  
HETATM   12  O   UNL     1     -11.607  10.822  66.867  1.00  0.00    -0.255 OA 
BRANCH  11  13
HETATM   13  C   UNL     1     -11.127  10.332  69.087  1.00  0.00    -0.283 A  
HETATM   14  C   UNL     1     -11.668  10.696  70.330  1.00  0.00    -0.446 A  
HETATM   15  C   UNL     1     -11.576   9.833  71.424  1.00  0.00    -0.452 A  
HETATM   16  C   UNL     1     -10.942   8.601  71.283  1.00  0.00    -0.333 A  
HETATM   17  C   UNL     1     -10.364   8.247  70.061  1.00  0.00    -0.212 A  
HETATM   18  C   UNL     1     -10.434   9.121  68.973  1.00  0.00    -0.221 A  
HETATM   19  O   UNL     1      -9.808   8.785  67.805  1.00  0.00    -0.159 OA 
HETATM   20  H   UNL     1      -9.338   7.963  67.727  1.00  0.00     0.000 HD 
ENDBRANCH  11  13
ENDBRANCH   7  11
ENDBRANCH   2   3
TORSDOF 3
ENDMDL
MODEL      150
REMARK 921   NORMALIZED FREE ENERGY PREDICTED BY IDOCK:   -4.38 KCAL/MOL
REMARK 922        TOTAL FREE ENERGY PREDICTED BY IDOCK:   -5.77 KCAL/MOL
REMARK 923 INTER-LIGAND FREE ENERGY PREDICTED BY IDOCK:   -5.05 KCAL/MOL
REMARK 924 INTRA-LIGAND FREE ENERGY PREDICTED BY IDOCK:   -0.72 KCAL/MOL
REMARK 927      BINDING AFFINITY PREDICTED BY RF-SCORE:    0.00 PKD
ROOT
HETATM    1  C   UNL     1      -9.190   6.378  72.577  1.00  0.00    -0.139 C  
HETATM    2  O   UNL     1      -8.283   7.218  71.866  1.00  0.00    -0.102 OA 
ENDROOT
BRANCH   2   3
HETATM    3  C   UNL     1      -8.874   8.042  70.947  1.00  0.00    -0.139 A  
HETATM    4  C   UNL     1      -8.341   9.262  70.528  1.00  0.00    -0.237 A  
HETATM    5  C   UNL     1      -9.050  10.073  69.637  1.00  0.00    -0.210 A  
HETATM    6  O   UNL     1      -8.527  11.307  69.362  1.00  0.00    -0.374 OA 
HETATM    7  C   UNL     1     -10.277   9.657  69.107  1.00  0.00    -0.212 A  
HETATM    8  C   UNL     1     -10.080   7.599  70.408  1.00  0.00    -0.190 A  
HETATM    9  C   UNL     1     -10.777   8.402  69.498  1.00  0.00    -0.181 A  
HETATM   10  H   UNL     1      -9.009  11.858  68.757  1.00  0.00     0.000 HD 
BRANCH   7  11
HETATM   11  C   UNL     1     -11.145  10.472  68.211  1.00  0.00    -0.284 C  
HETATM   12  O   UNL     1     -12.158  10.994  68.684  1.00  0.00    -0.551 OA 
BRANCH  11  13
HETATM   13  C   UNL     1     -10.831  10.772  66.790  1.00  0.00    -0.256 A  
HETATM   14  C   UNL     1     -10.022   9.849  66.108  1.00  0.00    -0.331 A  
HETATM   15  C   UNL     1      -9.711  10.039  64.760  1.00  0.00    -0.363 A  
HETATM   16  C   UNL     1     -10.206  11.151  64.084  1.00  0.00    -0.405 A  
HETATM   17  C   UNL     1     -10.977  12.097  64.765  1.00  0.00    -0.356 A  
HETATM   18  C   UNL     1     -11.269  11.920  66.120  1.00  0.00    -0.333 A  
HETATM   19  O   UNL     1     -11.971  12.888  66.784  1.00  0.00    -0.391 OA 
HETATM   20  H   UNL     1     -12.268  13.667  66.329  1.00  0.00     0.000 HD 
ENDBRANCH  11  13
ENDBRANCH   7  11
ENDBRANCH   2   3
TORSDOF 3
ENDMDL
MODEL      151
REMARK 921   NORMALIZED FREE ENERGY PREDICTED BY IDOCK:   -4.37 KCAL/MOL
REMARK 922        TOTAL FREE ENERGY PREDICTED BY IDOCK:   -5.75 KCAL/MOL
REMARK 923 INTER-LIGAND FREE ENERGY PREDICTED BY IDOCK:   -5.06 KCAL/MOL
REMARK 924 INTRA-LIGAND FREE ENERGY PREDICTED BY IDOCK:   -0.70 KCAL/MOL
REMARK 927      BINDING AFFINITY PREDICTED BY RF-SCORE:    0.00 PKD
ROOT
HETATM    1  C   UNL     1     -11.344  15.998  64.654  1.00  0.00    -0.306 C  
HETATM    2  O   UNL     1     -12.139  14.832  64.451  1.00  0.00    -0.476 OA 
ENDROOT
BRANCH   2   3
HETATM    3  C   UNL     1     -11.470  13.651  64.626  1.00  0.00    -0.365 A  
HETATM    4  C   UNL     1     -10.428  13.464  65.535  1.00  0.00    -0.297 A  
HETATM    5  C   UNL     1      -9.754  12.242  65.595  1.00  0.00    -0.192 A  
HETATM    6  O   UNL     1      -8.666  12.165  66.421  1.00  0.00    -0.339 OA 
HETATM    7  C   UNL     1     -10.143  11.166  64.788  1.00  0.00    -0.351 A  
HETATM    8  C   UNL     1     -11.889  12.583  63.836  1.00  0.00    -0.544 A  
HETATM    9  C   UNL     1     -11.229  11.352  63.913  1.00  0.00    -0.364 A  
HETATM   10  H   UNL     1      -8.208  11.334  66.462  1.00  0.00     0.000 HD 
BRANCH   7  11
HETATM   11  C   UNL     1      -9.449   9.848  64.720  1.00  0.00    -0.291 C  
HETATM   12  O   UNL     1      -9.002   9.471  63.635  1.00  0.00    -0.231 OA 
BRANCH  11  13
HETATM   13  C   UNL     1      -9.184   8.983  65.899  1.00  0.00    -0.290 A  
HETATM   14  C   UNL     1     -10.270   8.709  66.746  1.00  0.00    -0.361 A  
HETATM   15  C   UNL     1     -10.113   7.874  67.854  1.00  0.00    -0.240 A  
HETATM   16  C   UNL     1      -8.869   7.309  68.124  1.00  0.00    -0.126 A  
HETATM   17  C   UNL     1      -7.772   7.609  67.312  1.00  0.00    -0.113 A  
HETATM   18  C   UNL     1      -7.924   8.463  66.217  1.00  0.00    -0.099 A  
HETATM   19  O   UNL     1      -6.826   8.796  65.472  1.00  0.00    -0.073 OA 
HETATM   20  H   UNL     1      -5.971   8.443  65.688  1.00  0.00     0.000 HD 
ENDBRANCH  11  13
ENDBRANCH   7  11
ENDBRANCH   2   3
TORSDOF 3
ENDMDL
MODEL      152
REMARK 921   NORMALIZED FREE ENERGY PREDICTED BY IDOCK:   -4.35 KCAL/MOL
REMARK 922        TOTAL FREE ENERGY PREDICTED BY IDOCK:   -5.73 KCAL/MOL
REMARK 923 INTER-LIGAND FREE ENERGY PREDICTED BY IDOCK:   -5.05 KCAL/MOL
REMARK 924 INTRA-LIGAND FREE ENERGY PREDICTED BY IDOCK:   -0.68 KCAL/MOL
REMARK 927      BINDING AFFINITY PREDICTED BY RF-SCORE:    0.00 PKD
ROOT
HETATM    1  C   UNL     1     -10.337  18.287  66.843  1.00  0.00    -0.385 C  
HETATM    2  O   UNL     1     -10.500  17.466  67.998  1.00  0.00    -0.351 OA 
ENDROOT
BRANCH   2   3
HETATM    3  C   UNL     1     -10.526  16.122  67.741  1.00  0.00    -0.295 A  
HETATM    4  C   UNL     1     -11.600  15.455  67.150  1.00  0.00    -0.058 A  
HETATM    5  C   UNL     1     -11.568  14.067  66.992  1.00  0.00    -0.371 A  
HETATM    6  O   UNL     1     -12.700  13.464  66.516  1.00  0.00    -0.200 OA 
HETATM    7  C   UNL     1     -10.441  13.326  67.371  1.00  0.00    -0.243 A  
HETATM    8  C   UNL     1      -9.386  15.405  68.098  1.00  0.00    -0.197 A  
HETATM    9  C   UNL     1      -9.346  14.018  67.918  1.00  0.00    -0.206 A  
HETATM   10  H   UNL     1     -12.678  12.520  66.409  1.00  0.00     0.000 HD 
BRANCH   7  11
HETATM   11  C   UNL     1     -10.332  11.841  67.313  1.00  0.00    -0.206 C  
HETATM   12  O   UNL     1     -10.256  11.296  66.209  1.00  0.00    -0.221 OA 
BRANCH  11  13
HETATM   13  C   UNL     1     -10.225  10.965  68.508  1.00  0.00    -0.197 A  
HETATM   14  C   UNL     1      -8.935  10.565  68.893  1.00  0.00    -0.175 A  
HETATM   15  C   UNL     1      -8.746   9.772  70.027  1.00  0.00    -0.237 A  
HETATM   16  C   UNL     1      -9.845   9.373  70.784  1.00  0.00    -0.348 A  
HETATM   17  C   UNL     1     -11.136   9.730  70.386  1.00  0.00    -0.367 A  
HETATM   18  C   UNL     1     -11.327  10.503  69.238  1.00  0.00    -0.262 A  
HETATM   19  O   UNL     1     -12.601  10.789  68.830  1.00  0.00    -0.735 OA 
HETATM   20  H   UNL     1     -13.349  10.476  69.325  1.00  0.00     0.000 HD 
ENDBRANCH  11  13
ENDBRANCH   7  11
ENDBRANCH   2   3
TORSDOF 3
ENDMDL
MODEL      153
REMARK 921   NORMALIZED FREE ENERGY PREDICTED BY IDOCK:   -4.33 KCAL/MOL
REMARK 922        TOTAL FREE ENERGY PREDICTED BY IDOCK:   -5.72 KCAL/MOL
REMARK 923 INTER-LIGAND FREE ENERGY PREDICTED BY IDOCK:   -5.14 KCAL/MOL
REMARK 924 INTRA-LIGAND FREE ENERGY PREDICTED BY IDOCK:   -0.58 KCAL/MOL
REMARK 927      BINDING AFFINITY PREDICTED BY RF-SCORE:    0.00 PKD
ROOT
HETATM    1  C   UNL     1     -10.316  18.712  67.069  1.00  0.00    -0.404 C  
HETATM    2  O   UNL     1      -9.729  18.042  68.184  1.00  0.00    -0.294 OA 
ENDROOT
BRANCH   2   3
HETATM    3  C   UNL     1     -10.172  16.762  68.375  1.00  0.00    -0.296 A  
HETATM    4  C   UNL     1     -10.517  16.226  69.616  1.00  0.00    -0.294 A  
HETATM    5  C   UNL     1     -10.890  14.884  69.727  1.00  0.00    -0.235 A  
HETATM    6  O   UNL     1     -11.099  14.393  70.987  1.00  0.00    -0.470 OA 
HETATM    7  C   UNL     1     -10.980  14.067  68.594  1.00  0.00    -0.281 A  
HETATM    8  C   UNL     1     -10.282  15.971  67.233  1.00  0.00    -0.277 A  
HETATM    9  C   UNL     1     -10.679  14.634  67.342  1.00  0.00    -0.280 A  
HETATM   10  H   UNL     1     -11.353  13.481  71.062  1.00  0.00     0.000 HD 
BRANCH   7  11
HETATM   11  C   UNL     1     -11.296  12.610  68.609  1.00  0.00    -0.291 C  
HETATM   12  O   UNL     1     -12.186  12.207  69.361  1.00  0.00    -0.207 OA 
BRANCH  11  13
HETATM   13  C   UNL     1     -10.663  11.609  67.712  1.00  0.00    -0.244 A  
HETATM   14  C   UNL     1     -11.044  11.633  66.361  1.00  0.00    -0.347 A  
HETATM   15  C   UNL     1     -10.469  10.749  65.445  1.00  0.00    -0.272 A  
HETATM   16  C   UNL     1      -9.508   9.837  65.874  1.00  0.00    -0.285 A  
HETATM   17  C   UNL     1      -9.152   9.777  67.224  1.00  0.00    -0.150 A  
HETATM   18  C   UNL     1      -9.745  10.645  68.144  1.00  0.00    -0.156 A  
HETATM   19  O   UNL     1      -9.431  10.529  69.470  1.00  0.00    -0.355 OA 
HETATM   20  H   UNL     1      -8.809   9.874  69.764  1.00  0.00     0.000 HD 
ENDBRANCH  11  13
ENDBRANCH   7  11
ENDBRANCH   2   3
TORSDOF 3
ENDMDL
MODEL      154
REMARK 921   NORMALIZED FREE ENERGY PREDICTED BY IDOCK:   -4.31 KCAL/MOL
REMARK 922        TOTAL FREE ENERGY PREDICTED BY IDOCK:   -5.69 KCAL/MOL
REMARK 923 INTER-LIGAND FREE ENERGY PREDICTED BY IDOCK:   -5.41 KCAL/MOL
REMARK 924 INTRA-LIGAND FREE ENERGY PREDICTED BY IDOCK:   -0.29 KCAL/MOL
REMARK 927      BINDING AFFINITY PREDICTED BY RF-SCORE:    0.00 PKD
ROOT
HETATM    1  C   UNL     1     -11.213  15.106  66.930  1.00  0.00    -0.292 C  
HETATM    2  O   UNL     1     -12.059  14.016  66.568  1.00  0.00    -0.424 OA 
ENDROOT
BRANCH   2   3
HETATM    3  C   UNL     1     -11.771  12.838  67.202  1.00  0.00    -0.380 A  
HETATM    4  C   UNL     1     -11.905  12.631  68.575  1.00  0.00    -0.342 A  
HETATM    5  C   UNL     1     -11.517  11.416  69.147  1.00  0.00    -0.299 A  
HETATM    6  O   UNL     1     -11.562  11.323  70.512  1.00  0.00    -0.440 OA 
HETATM    7  C   UNL     1     -11.042  10.367  68.352  1.00  0.00    -0.322 A  
HETATM    8  C   UNL     1     -11.326  11.796  66.392  1.00  0.00    -0.361 A  
HETATM    9  C   UNL     1     -10.961  10.571  66.962  1.00  0.00    -0.247 A  
HETATM   10  H   UNL     1     -11.299  10.497  70.900  1.00  0.00     0.000 HD 
BRANCH   7  11
HETATM   11  C   UNL     1     -10.536   9.062  68.865  1.00  0.00    -0.180 C  
HETATM   12  O   UNL     1     -10.390   8.922  70.082  1.00  0.00    -0.193 OA 
BRANCH  11  13
HETATM   13  C   UNL     1     -10.269   7.876  68.011  1.00  0.00    -0.256 A  
HETATM   14  C   UNL     1      -9.459   8.074  66.881  1.00  0.00    -0.244 A  
HETATM   15  C   UNL     1      -9.130   7.003  66.048  1.00  0.00    -0.105 A  
HETATM   16  C   UNL     1      -9.608   5.727  66.338  1.00  0.00    -0.175 A  
HETATM   17  C   UNL     1     -10.448   5.528  67.436  1.00  0.00    -0.284 A  
HETATM   18  C   UNL     1     -10.797   6.603  68.256  1.00  0.00    -0.254 A  
HETATM   19  O   UNL     1     -11.671   6.400  69.289  1.00  0.00    -0.608 OA 
HETATM   20  H   UNL     1     -12.030   5.536  69.455  1.00  0.00     0.000 HD 
ENDBRANCH  11  13
ENDBRANCH   7  11
ENDBRANCH   2   3
TORSDOF 3
ENDMDL
MODEL      155
REMARK 921   NORMALIZED FREE ENERGY PREDICTED BY IDOCK:   -4.30 KCAL/MOL
REMARK 922        TOTAL FREE ENERGY PREDICTED BY IDOCK:   -5.68 KCAL/MOL
REMARK 923 INTER-LIGAND FREE ENERGY PREDICTED BY IDOCK:   -5.01 KCAL/MOL
REMARK 924 INTRA-LIGAND FREE ENERGY PREDICTED BY IDOCK:   -0.67 KCAL/MOL
REMARK 927      BINDING AFFINITY PREDICTED BY RF-SCORE:    0.00 PKD
ROOT
HETATM    1  C   UNL     1      -9.074   2.749  68.325  1.00  0.00    -0.177 C  
HETATM    2  O   UNL     1      -8.551   3.007  69.627  1.00  0.00    -0.058 OA 
ENDROOT
BRANCH   2   3
HETATM    3  C   UNL     1      -8.924   4.210  70.162  1.00  0.00    -0.090 A  
HETATM    4  C   UNL     1      -8.188   5.389  70.034  1.00  0.00    -0.095 A  
HETATM    5  C   UNL     1      -8.609   6.557  70.676  1.00  0.00    -0.139 A  
HETATM    6  O   UNL     1      -7.779   7.643  70.608  1.00  0.00    -0.085 OA 
HETATM    7  C   UNL     1      -9.800   6.585  71.410  1.00  0.00    -0.191 A  
HETATM    8  C   UNL     1     -10.126   4.226  70.865  1.00  0.00    -0.161 A  
HETATM    9  C   UNL     1     -10.559   5.403  71.487  1.00  0.00    -0.285 A  
HETATM   10  H   UNL     1      -8.065   8.437  71.044  1.00  0.00     0.000 HD 
BRANCH   7  11
HETATM   11  C   UNL     1     -10.301   7.752  72.189  1.00  0.00    -0.224 C  
HETATM   12  O   UNL     1      -9.979   7.853  73.376  1.00  0.00    -0.314 OA 
BRANCH  11  13
HETATM   13  C   UNL     1     -11.105   8.860  71.610  1.00  0.00    -0.420 A  
HETATM   14  C   UNL     1     -10.476   9.668  70.649  1.00  0.00    -0.379 A  
HETATM   15  C   UNL     1     -11.174  10.707  70.029  1.00  0.00    -0.382 A  
HETATM   16  C   UNL     1     -12.504  10.945  70.367  1.00  0.00    -0.411 A  
HETATM   17  C   UNL     1     -13.126  10.174  71.352  1.00  0.00    -0.512 A  
HETATM   18  C   UNL     1     -12.421   9.150  71.989  1.00  0.00    -0.382 A  
HETATM   19  O   UNL     1     -13.026   8.447  72.995  1.00  0.00    -0.704 OA 
HETATM   20  H   UNL     1     -13.918   8.644  73.252  1.00  0.00     0.000 HD 
ENDBRANCH  11  13
ENDBRANCH   7  11
ENDBRANCH   2   3
TORSDOF 3
ENDMDL
MODEL      156
REMARK 921   NORMALIZED FREE ENERGY PREDICTED BY IDOCK:   -4.29 KCAL/MOL
REMARK 922        TOTAL FREE ENERGY PREDICTED BY IDOCK:   -5.67 KCAL/MOL
REMARK 923 INTER-LIGAND FREE ENERGY PREDICTED BY IDOCK:   -4.84 KCAL/MOL
REMARK 924 INTRA-LIGAND FREE ENERGY PREDICTED BY IDOCK:   -0.83 KCAL/MOL
REMARK 927      BINDING AFFINITY PREDICTED BY RF-SCORE:    0.00 PKD
ROOT
HETATM    1  C   UNL     1      -8.673   3.474  66.928  1.00  0.00    -0.120 C  
HETATM    2  O   UNL     1      -9.452   3.344  68.116  1.00  0.00    -0.183 OA 
ENDROOT
BRANCH   2   3
HETATM    3  C   UNL     1      -9.624   4.509  68.813  1.00  0.00    -0.159 A  
HETATM    4  C   UNL     1      -9.448   5.783  68.271  1.00  0.00    -0.130 A  
HETATM    5  C   UNL     1      -9.575   6.917  69.078  1.00  0.00    -0.136 A  
HETATM    6  O   UNL     1      -9.272   8.126  68.513  1.00  0.00    -0.137 OA 
HETATM    7  C   UNL     1      -9.934   6.803  70.427  1.00  0.00    -0.193 A  
HETATM    8  C   UNL     1     -10.009   4.378  70.146  1.00  0.00    -0.249 A  
HETATM    9  C   UNL     1     -10.159   5.516  70.947  1.00  0.00    -0.276 A  
HETATM   10  H   UNL     1      -9.358   8.896  69.062  1.00  0.00     0.000 HD 
BRANCH   7  11
HETATM   11  C   UNL     1     -10.025   7.938  71.389  1.00  0.00    -0.172 C  
HETATM   12  O   UNL     1      -9.077   8.144  72.151  1.00  0.00    -0.147 OA 
BRANCH  11  13
HETATM   13  C   UNL     1     -11.156   8.899  71.442  1.00  0.00    -0.376 A  
HETATM   14  C   UNL     1     -12.248   8.556  72.256  1.00  0.00    -0.454 A  
HETATM   15  C   UNL     1     -13.334   9.422  72.389  1.00  0.00    -0.503 A  
HETATM   16  C   UNL     1     -13.338  10.638  71.708  1.00  0.00    -0.437 A  
HETATM   17  C   UNL     1     -12.276  10.970  70.863  1.00  0.00    -0.471 A  
HETATM   18  C   UNL     1     -11.200  10.093  70.711  1.00  0.00    -0.336 A  
HETATM   19  O   UNL     1     -10.201  10.407  69.832  1.00  0.00    -0.361 OA 
HETATM   20  H   UNL     1     -10.231  11.216  69.336  1.00  0.00     0.000 HD 
ENDBRANCH  11  13
ENDBRANCH   7  11
ENDBRANCH   2   3
TORSDOF 3
ENDMDL
MODEL      157
REMARK 921   NORMALIZED FREE ENERGY PREDICTED BY IDOCK:   -4.28 KCAL/MOL
REMARK 922        TOTAL FREE ENERGY PREDICTED BY IDOCK:   -5.66 KCAL/MOL
REMARK 923 INTER-LIGAND FREE ENERGY PREDICTED BY IDOCK:   -5.64 KCAL/MOL
REMARK 924 INTRA-LIGAND FREE ENERGY PREDICTED BY IDOCK:   -0.02 KCAL/MOL
REMARK 927      BINDING AFFINITY PREDICTED BY RF-SCORE:    0.00 PKD
ROOT
HETATM    1  C   UNL     1     -10.537  17.411  65.348  1.00  0.00    -0.034 C  
HETATM    2  O   UNL     1     -10.296  16.196  64.643  1.00  0.00    -0.425 OA 
ENDROOT
BRANCH   2   3
HETATM    3  C   UNL     1     -10.352  15.068  65.417  1.00  0.00    -0.383 A  
HETATM    4  C   UNL     1     -11.316  14.069  65.282  1.00  0.00    -0.321 A  
HETATM    5  C   UNL     1     -11.340  12.986  66.166  1.00  0.00    -0.314 A  
HETATM    6  O   UNL     1     -12.382  12.107  66.052  1.00  0.00    -0.550 OA 
HETATM    7  C   UNL     1     -10.368  12.853  67.165  1.00  0.00    -0.239 A  
HETATM    8  C   UNL     1      -9.362  14.938  66.388  1.00  0.00    -0.327 A  
HETATM    9  C   UNL     1      -9.372  13.842  67.257  1.00  0.00    -0.239 A  
HETATM   10  H   UNL     1     -12.397  11.371  66.652  1.00  0.00     0.000 HD 
BRANCH   7  11
HETATM   11  C   UNL     1     -10.344  11.782  68.200  1.00  0.00    -0.200 C  
HETATM   12  O   UNL     1      -9.463  10.920  68.139  1.00  0.00    -0.155 OA 
BRANCH  11  13
HETATM   13  C   UNL     1     -11.267  11.723  69.363  1.00  0.00    -0.300 A  
HETATM   14  C   UNL     1     -11.657  10.448  69.804  1.00  0.00    -0.339 A  
HETATM   15  C   UNL     1     -12.493  10.305  70.913  1.00  0.00    -0.466 A  
HETATM   16  C   UNL     1     -12.946  11.436  71.589  1.00  0.00    -0.523 A  
HETATM   17  C   UNL     1     -12.598  12.710  71.133  1.00  0.00    -0.354 A  
HETATM   18  C   UNL     1     -11.781  12.854  70.009  1.00  0.00    -0.212 A  
HETATM   19  O   UNL     1     -11.504  14.108  69.541  1.00  0.00    -0.259 OA 
HETATM   20  H   UNL     1     -11.852  14.875  69.979  1.00  0.00     0.000 HD 
ENDBRANCH  11  13
ENDBRANCH   7  11
ENDBRANCH   2   3
TORSDOF 3
ENDMDL
MODEL      158
REMARK 921   NORMALIZED FREE ENERGY PREDICTED BY IDOCK:   -4.27 KCAL/MOL
REMARK 922        TOTAL FREE ENERGY PREDICTED BY IDOCK:   -5.64 KCAL/MOL
REMARK 923 INTER-LIGAND FREE ENERGY PREDICTED BY IDOCK:   -4.83 KCAL/MOL
REMARK 924 INTRA-LIGAND FREE ENERGY PREDICTED BY IDOCK:   -0.81 KCAL/MOL
REMARK 927      BINDING AFFINITY PREDICTED BY RF-SCORE:    0.00 PKD
ROOT
HETATM    1  C   UNL     1     -11.240   6.158  71.253  1.00  0.00    -0.287 C  
HETATM    2  O   UNL     1     -11.030   5.918  69.863  1.00  0.00    -0.344 OA 
ENDROOT
BRANCH   2   3
HETATM    3  C   UNL     1     -10.710   7.032  69.136  1.00  0.00    -0.218 A  
HETATM    4  C   UNL     1     -10.619   7.062  67.744  1.00  0.00    -0.298 A  
HETATM    5  C   UNL     1     -10.215   8.228  67.088  1.00  0.00    -0.295 A  
HETATM    6  O   UNL     1     -10.031   8.155  65.734  1.00  0.00    -0.377 OA 
HETATM    7  C   UNL     1      -9.949   9.401  67.805  1.00  0.00    -0.228 A  
HETATM    8  C   UNL     1     -10.476   8.196  69.864  1.00  0.00    -0.226 A  
HETATM    9  C   UNL     1     -10.095   9.370  69.204  1.00  0.00    -0.200 A  
HETATM   10  H   UNL     1      -9.756   8.947  65.289  1.00  0.00     0.000 HD 
BRANCH   7  11
HETATM   11  C   UNL     1      -9.444  10.673  67.215  1.00  0.00    -0.158 C  
HETATM   12  O   UNL     1      -8.406  10.644  66.548  1.00  0.00    -0.133 OA 
BRANCH  11  13
HETATM   13  C   UNL     1     -10.154  11.975  67.305  1.00  0.00    -0.208 A  
HETATM   14  C   UNL     1     -11.164  12.217  66.359  1.00  0.00    -0.370 A  
HETATM   15  C   UNL     1     -11.903  13.401  66.398  1.00  0.00    -0.441 A  
HETATM   16  C   UNL     1     -11.639  14.350  67.382  1.00  0.00    -0.398 A  
HETATM   17  C   UNL     1     -10.610  14.137  68.302  1.00  0.00    -0.254 A  
HETATM   18  C   UNL     1      -9.853  12.964  68.248  1.00  0.00    -0.228 A  
HETATM   19  O   UNL     1      -8.809  12.802  69.117  1.00  0.00    -0.171 OA 
HETATM   20  H   UNL     1      -8.604  13.473  69.757  1.00  0.00     0.000 HD 
ENDBRANCH  11  13
ENDBRANCH   7  11
ENDBRANCH   2   3
TORSDOF 3
ENDMDL
MODEL      159
REMARK 921   NORMALIZED FREE ENERGY PREDICTED BY IDOCK:   -4.26 KCAL/MOL
REMARK 922        TOTAL FREE ENERGY PREDICTED BY IDOCK:   -5.62 KCAL/MOL
REMARK 923 INTER-LIGAND FREE ENERGY PREDICTED BY IDOCK:   -4.84 KCAL/MOL
REMARK 924 INTRA-LIGAND FREE ENERGY PREDICTED BY IDOCK:   -0.78 KCAL/MOL
REMARK 927      BINDING AFFINITY PREDICTED BY RF-SCORE:    0.00 PKD
ROOT
HETATM    1  C   UNL     1      -7.945   3.381  65.631  1.00  0.00    -0.089 C  
HETATM    2  O   UNL     1      -9.200   3.959  65.278  1.00  0.00    -0.134 OA 
ENDROOT
BRANCH   2   3
HETATM    3  C   UNL     1      -9.393   5.230  65.748  1.00  0.00    -0.139 A  
HETATM    4  C   UNL     1      -8.488   6.278  65.576  1.00  0.00    -0.145 A  
HETATM    5  C   UNL     1      -8.736   7.526  66.155  1.00  0.00    -0.156 A  
HETATM    6  O   UNL     1      -7.753   8.472  66.049  1.00  0.00    -0.090 OA 
HETATM    7  C   UNL     1      -9.916   7.767  66.868  1.00  0.00    -0.331 A  
HETATM    8  C   UNL     1     -10.586   5.459  66.431  1.00  0.00    -0.322 A  
HETATM    9  C   UNL     1     -10.844   6.716  66.989  1.00  0.00    -0.467 A  
HETATM   10  H   UNL     1      -7.921   9.320  66.442  1.00  0.00     0.000 HD 
BRANCH   7  11
HETATM   11  C   UNL     1     -10.244   9.032  67.583  1.00  0.00    -0.242 C  
HETATM   12  O   UNL     1     -10.336  10.074  66.928  1.00  0.00    -0.225 OA 
BRANCH  11  13
HETATM   13  C   UNL     1     -10.552   9.116  69.034  1.00  0.00    -0.219 A  
HETATM   14  C   UNL     1      -9.874   8.225  69.882  1.00  0.00    -0.186 A  
HETATM   15  C   UNL     1     -10.078   8.264  71.262  1.00  0.00    -0.249 A  
HETATM   16  C   UNL     1     -10.963   9.194  71.805  1.00  0.00    -0.429 A  
HETATM   17  C   UNL     1     -11.673  10.056  70.967  1.00  0.00    -0.479 A  
HETATM   18  C   UNL     1     -11.487  10.001  69.583  1.00  0.00    -0.155 A  
HETATM   19  O   UNL     1     -12.238  10.810  68.775  1.00  0.00    -0.783 OA 
HETATM   20  H   UNL     1     -12.872  11.410  69.148  1.00  0.00     0.000 HD 
ENDBRANCH  11  13
ENDBRANCH   7  11
ENDBRANCH   2   3
TORSDOF 3
ENDMDL
MODEL      160
REMARK 921   NORMALIZED FREE ENERGY PREDICTED BY IDOCK:   -4.25 KCAL/MOL
REMARK 922        TOTAL FREE ENERGY PREDICTED BY IDOCK:   -5.62 KCAL/MOL
REMARK 923 INTER-LIGAND FREE ENERGY PREDICTED BY IDOCK:   -5.08 KCAL/MOL
REMARK 924 INTRA-LIGAND FREE ENERGY PREDICTED BY IDOCK:   -0.54 KCAL/MOL
REMARK 927      BINDING AFFINITY PREDICTED BY RF-SCORE:    0.00 PKD
ROOT
HETATM    1  C   UNL     1      -8.676   9.287  62.351  1.00  0.00    -0.235 C  
HETATM    2  O   UNL     1      -9.897   9.984  62.593  1.00  0.00    -0.098 OA 
ENDROOT
BRANCH   2   3
HETATM    3  C   UNL     1      -9.852  10.862  63.641  1.00  0.00    -0.351 A  
HETATM    4  C   UNL     1     -10.432  12.131  63.630  1.00  0.00    -0.495 A  
HETATM    5  C   UNL     1     -10.274  12.989  64.721  1.00  0.00    -0.291 A  
HETATM    6  O   UNL     1     -10.766  14.260  64.596  1.00  0.00    -0.494 OA 
HETATM    7  C   UNL     1      -9.581  12.577  65.866  1.00  0.00    -0.174 A  
HETATM    8  C   UNL     1      -9.182  10.425  64.782  1.00  0.00    -0.273 A  
HETATM    9  C   UNL     1      -9.045  11.276  65.884  1.00  0.00    -0.217 A  
HETATM   10  H   UNL     1     -10.658  14.843  65.338  1.00  0.00     0.000 HD 
BRANCH   7  11
HETATM   11  C   UNL     1      -9.293  13.435  67.050  1.00  0.00    -0.243 C  
HETATM   12  O   UNL     1      -8.138  13.833  67.225  1.00  0.00    -0.175 OA 
BRANCH  11  13
HETATM   13  C   UNL     1     -10.326  13.917  68.003  1.00  0.00    -0.245 A  
HETATM   14  C   UNL     1     -10.586  15.297  68.016  1.00  0.00    -0.261 A  
HETATM   15  C   UNL     1     -11.568  15.826  68.856  1.00  0.00    -0.400 A  
HETATM   16  C   UNL     1     -12.297  14.979  69.688  1.00  0.00    -0.238 A  
HETATM   17  C   UNL     1     -12.018  13.611  69.712  1.00  0.00    -0.404 A  
HETATM   18  C   UNL     1     -11.018  13.084  68.890  1.00  0.00    -0.230 A  
HETATM   19  O   UNL     1     -10.716  11.753  68.974  1.00  0.00    -0.256 OA 
HETATM   20  H   UNL     1     -11.186  11.188  69.576  1.00  0.00     0.000 HD 
ENDBRANCH  11  13
ENDBRANCH   7  11
ENDBRANCH   2   3
TORSDOF 3
ENDMDL
MODEL      161
REMARK 921   NORMALIZED FREE ENERGY PREDICTED BY IDOCK:   -4.25 KCAL/MOL
REMARK 922        TOTAL FREE ENERGY PREDICTED BY IDOCK:   -5.62 KCAL/MOL
REMARK 923 INTER-LIGAND FREE ENERGY PREDICTED BY IDOCK:   -4.82 KCAL/MOL
REMARK 924 INTRA-LIGAND FREE ENERGY PREDICTED BY IDOCK:   -0.80 KCAL/MOL
REMARK 927      BINDING AFFINITY PREDICTED BY RF-SCORE:    0.00 PKD
ROOT
HETATM    1  C   UNL     1     -12.141  15.710  64.205  1.00  0.00    -0.063 C  
HETATM    2  O   UNL     1     -12.759  14.433  64.352  1.00  0.00    -0.665 OA 
ENDROOT
BRANCH   2   3
HETATM    3  C   UNL     1     -11.928  13.450  64.816  1.00  0.00    -0.390 A  
HETATM    4  C   UNL     1     -10.897  12.875  64.071  1.00  0.00    -0.443 A  
HETATM    5  C   UNL     1     -10.144  11.824  64.602  1.00  0.00    -0.272 A  
HETATM    6  O   UNL     1      -9.231  11.228  63.775  1.00  0.00    -0.353 OA 
HETATM    7  C   UNL     1     -10.369  11.365  65.905  1.00  0.00    -0.299 A  
HETATM    8  C   UNL     1     -12.148  13.025  66.124  1.00  0.00    -0.473 A  
HETATM    9  C   UNL     1     -11.377  11.988  66.663  1.00  0.00    -0.399 A  
HETATM   10  H   UNL     1      -8.720  10.514  64.136  1.00  0.00     0.000 HD 
BRANCH   7  11
HETATM   11  C   UNL     1      -9.676  10.208  66.539  1.00  0.00    -0.200 C  
HETATM   12  O   UNL     1     -10.069   9.068  66.278  1.00  0.00    -0.295 OA 
BRANCH  11  13
HETATM   13  C   UNL     1      -8.478  10.328  67.411  1.00  0.00    -0.125 A  
HETATM   14  C   UNL     1      -8.678  10.178  68.792  1.00  0.00    -0.138 A  
HETATM   15  C   UNL     1      -7.599  10.240  69.676  1.00  0.00    -0.167 A  
HETATM   16  C   UNL     1      -6.313  10.452  69.185  1.00  0.00    -0.046 A  
HETATM   17  C   UNL     1      -6.109  10.644  67.816  1.00  0.00    -0.047 A  
HETATM   18  C   UNL     1      -7.192  10.606  66.934  1.00  0.00    -0.110 A  
HETATM   19  O   UNL     1      -6.981  10.859  65.607  1.00  0.00    -0.333 OA 
HETATM   20  H   UNL     1      -6.108  11.048  65.283  1.00  0.00     0.000 HD 
ENDBRANCH  11  13
ENDBRANCH   7  11
ENDBRANCH   2   3
TORSDOF 3
ENDMDL
MODEL      162
REMARK 921   NORMALIZED FREE ENERGY PREDICTED BY IDOCK:   -4.23 KCAL/MOL
REMARK 922        TOTAL FREE ENERGY PREDICTED BY IDOCK:   -5.59 KCAL/MOL
REMARK 923 INTER-LIGAND FREE ENERGY PREDICTED BY IDOCK:   -4.90 KCAL/MOL
REMARK 924 INTRA-LIGAND FREE ENERGY PREDICTED BY IDOCK:   -0.69 KCAL/MOL
REMARK 927      BINDING AFFINITY PREDICTED BY RF-SCORE:    0.00 PKD
ROOT
HETATM    1  C   UNL     1     -10.188  19.630  66.853  1.00  0.00    -0.442 C  
HETATM    2  O   UNL     1     -10.822  18.758  67.787  1.00  0.00    -0.389 OA 
ENDROOT
BRANCH   2   3
HETATM    3  C   UNL     1     -10.361  17.470  67.766  1.00  0.00    -0.367 A  
HETATM    4  C   UNL     1     -10.756  16.480  68.666  1.00  0.00    -0.334 A  
HETATM    5  C   UNL     1     -10.176  15.209  68.615  1.00  0.00    -0.227 A  
HETATM    6  O   UNL     1     -10.521  14.323  69.600  1.00  0.00    -0.439 OA 
HETATM    7  C   UNL     1      -9.234  14.887  67.631  1.00  0.00    -0.187 A  
HETATM    8  C   UNL     1      -9.445  17.160  66.763  1.00  0.00    -0.278 A  
HETATM    9  C   UNL     1      -8.884  15.880  66.698  1.00  0.00    -0.316 A  
HETATM   10  H   UNL     1     -10.127  13.460  69.565  1.00  0.00     0.000 HD 
BRANCH   7  11
HETATM   11  C   UNL     1      -8.505  13.591  67.532  1.00  0.00    -0.192 C  
HETATM   12  O   UNL     1      -7.271  13.606  67.525  1.00  0.00    -0.165 OA 
BRANCH  11  13
HETATM   13  C   UNL     1      -9.165  12.260  67.523  1.00  0.00    -0.181 A  
HETATM   14  C   UNL     1     -10.145  12.041  66.542  1.00  0.00    -0.224 A  
HETATM   15  C   UNL     1     -10.787  10.805  66.442  1.00  0.00    -0.172 A  
HETATM   16  C   UNL     1     -10.453   9.779  67.324  1.00  0.00    -0.324 A  
HETATM   17  C   UNL     1      -9.510  10.000  68.330  1.00  0.00    -0.147 A  
HETATM   18  C   UNL     1      -8.885  11.244  68.445  1.00  0.00    -0.159 A  
HETATM   19  O   UNL     1      -8.012  11.461  69.475  1.00  0.00    -0.355 OA 
HETATM   20  H   UNL     1      -7.822  10.772  70.100  1.00  0.00     0.000 HD 
ENDBRANCH  11  13
ENDBRANCH   7  11
ENDBRANCH   2   3
TORSDOF 3
ENDMDL
MODEL      163
REMARK 921   NORMALIZED FREE ENERGY PREDICTED BY IDOCK:   -4.20 KCAL/MOL
REMARK 922        TOTAL FREE ENERGY PREDICTED BY IDOCK:   -5.56 KCAL/MOL
REMARK 923 INTER-LIGAND FREE ENERGY PREDICTED BY IDOCK:   -4.70 KCAL/MOL
REMARK 924 INTRA-LIGAND FREE ENERGY PREDICTED BY IDOCK:   -0.86 KCAL/MOL
REMARK 927      BINDING AFFINITY PREDICTED BY RF-SCORE:    0.00 PKD
ROOT
HETATM    1  C   UNL     1      -9.082   9.526  63.995  1.00  0.00    -0.135 C  
HETATM    2  O   UNL     1      -9.667   9.475  65.295  1.00  0.00    -0.293 OA 
ENDROOT
BRANCH   2   3
HETATM    3  C   UNL     1      -9.835  10.695  65.891  1.00  0.00    -0.243 A  
HETATM    4  C   UNL     1      -9.997  10.884  67.264  1.00  0.00    -0.216 A  
HETATM    5  C   UNL     1     -10.236  12.162  67.778  1.00  0.00    -0.201 A  
HETATM    6  O   UNL     1     -10.505  12.259  69.116  1.00  0.00    -0.419 OA 
HETATM    7  C   UNL     1     -10.260  13.281  66.938  1.00  0.00    -0.250 A  
HETATM    8  C   UNL     1      -9.829  11.801  65.043  1.00  0.00    -0.257 A  
HETATM    9  C   UNL     1     -10.043  13.083  65.562  1.00  0.00    -0.270 A  
HETATM   10  H   UNL     1     -10.667  13.127  69.465  1.00  0.00     0.000 HD 
BRANCH   7  11
HETATM   11  C   UNL     1     -10.576  14.672  67.370  1.00  0.00    -0.265 C  
HETATM   12  O   UNL     1     -11.754  14.972  67.582  1.00  0.00    -0.342 OA 
BRANCH  11  13
HETATM   13  C   UNL     1      -9.553  15.713  67.647  1.00  0.00    -0.220 A  
HETATM   14  C   UNL     1      -9.352  16.689  66.657  1.00  0.00    -0.272 A  
HETATM   15  C   UNL     1      -8.436  17.723  66.855  1.00  0.00    -0.260 A  
HETATM   16  C   UNL     1      -7.712  17.789  68.043  1.00  0.00    -0.238 A  
HETATM   17  C   UNL     1      -7.874  16.800  69.017  1.00  0.00    -0.201 A  
HETATM   18  C   UNL     1      -8.773  15.752  68.809  1.00  0.00    -0.203 A  
HETATM   19  O   UNL     1      -8.871  14.759  69.745  1.00  0.00    -0.413 OA 
HETATM   20  H   UNL     1      -8.342  14.785  70.534  1.00  0.00     0.000 HD 
ENDBRANCH  11  13
ENDBRANCH   7  11
ENDBRANCH   2   3
TORSDOF 3
ENDMDL
MODEL      164
REMARK 921   NORMALIZED FREE ENERGY PREDICTED BY IDOCK:   -4.18 KCAL/MOL
REMARK 922        TOTAL FREE ENERGY PREDICTED BY IDOCK:   -5.53 KCAL/MOL
REMARK 923 INTER-LIGAND FREE ENERGY PREDICTED BY IDOCK:   -4.96 KCAL/MOL
REMARK 924 INTRA-LIGAND FREE ENERGY PREDICTED BY IDOCK:   -0.58 KCAL/MOL
REMARK 927      BINDING AFFINITY PREDICTED BY RF-SCORE:    0.00 PKD
ROOT
HETATM    1  C   UNL     1      -6.803   8.660  64.542  1.00  0.00    -0.069 C  
HETATM    2  O   UNL     1      -8.222   8.620  64.407  1.00  0.00    -0.157 OA 
ENDROOT
BRANCH   2   3
HETATM    3  C   UNL     1      -8.904   9.328  65.359  1.00  0.00    -0.192 A  
HETATM    4  C   UNL     1      -8.606   9.302  66.722  1.00  0.00    -0.134 A  
HETATM    5  C   UNL     1      -9.403  10.002  67.632  1.00  0.00    -0.144 A  
HETATM    6  O   UNL     1      -9.127   9.837  68.962  1.00  0.00    -0.143 OA 
HETATM    7  C   UNL     1     -10.479  10.783  67.194  1.00  0.00    -0.285 A  
HETATM    8  C   UNL     1      -9.953  10.122  64.902  1.00  0.00    -0.358 A  
HETATM    9  C   UNL     1     -10.736  10.841  65.812  1.00  0.00    -0.141 A  
HETATM   10  H   UNL     1      -9.669  10.312  69.581  1.00  0.00     0.000 HD 
BRANCH   7  11
HETATM   11  C   UNL     1     -11.432  11.507  68.082  1.00  0.00    -0.315 C  
HETATM   12  O   UNL     1     -12.259  10.851  68.720  1.00  0.00    -0.518 OA 
BRANCH  11  13
HETATM   13  C   UNL     1     -11.403  12.974  68.318  1.00  0.00    -0.323 A  
HETATM   14  C   UNL     1     -10.999  13.784  67.245  1.00  0.00    -0.302 A  
HETATM   15  C   UNL     1     -10.981  15.175  67.374  1.00  0.00    -0.314 A  
HETATM   16  C   UNL     1     -11.365  15.764  68.576  1.00  0.00    -0.374 A  
HETATM   17  C   UNL     1     -11.729  14.965  69.662  1.00  0.00    -0.356 A  
HETATM   18  C   UNL     1     -11.725  13.573  69.542  1.00  0.00    -0.322 A  
HETATM   19  O   UNL     1     -12.022  12.807  70.635  1.00  0.00    -0.510 OA 
HETATM   20  H   UNL     1     -12.240  13.213  71.465  1.00  0.00     0.000 HD 
ENDBRANCH  11  13
ENDBRANCH   7  11
ENDBRANCH   2   3
TORSDOF 3
ENDMDL
MODEL      165
REMARK 921   NORMALIZED FREE ENERGY PREDICTED BY IDOCK:   -4.15 KCAL/MOL
REMARK 922        TOTAL FREE ENERGY PREDICTED BY IDOCK:   -5.50 KCAL/MOL
REMARK 923 INTER-LIGAND FREE ENERGY PREDICTED BY IDOCK:   -4.81 KCAL/MOL
REMARK 924 INTRA-LIGAND FREE ENERGY PREDICTED BY IDOCK:   -0.69 KCAL/MOL
REMARK 927      BINDING AFFINITY PREDICTED BY RF-SCORE:    0.00 PKD
ROOT
HETATM    1  C   UNL     1     -11.663  15.209  68.911  1.00  0.00    -0.333 C  
HETATM    2  O   UNL     1     -12.407  14.010  69.118  1.00  0.00    -0.313 OA 
ENDROOT
BRANCH   2   3
HETATM    3  C   UNL     1     -11.833  12.886  68.588  1.00  0.00    -0.312 A  
HETATM    4  C   UNL     1     -11.307  12.806  67.298  1.00  0.00    -0.364 A  
HETATM    5  C   UNL     1     -10.805  11.594  66.815  1.00  0.00    -0.277 A  
HETATM    6  O   UNL     1     -10.416  11.556  65.503  1.00  0.00    -0.259 OA 
HETATM    7  C   UNL     1     -10.767  10.456  67.628  1.00  0.00    -0.335 A  
HETATM    8  C   UNL     1     -11.778  11.771  69.421  1.00  0.00    -0.405 A  
HETATM    9  C   UNL     1     -11.253  10.565  68.944  1.00  0.00    -0.323 A  
HETATM   10  H   UNL     1     -10.075  10.732  65.175  1.00  0.00     0.000 HD 
BRANCH   7  11
HETATM   11  C   UNL     1     -10.322   9.102  67.191  1.00  0.00    -0.267 C  
HETATM   12  O   UNL     1     -10.137   8.901  65.988  1.00  0.00    -0.260 OA 
BRANCH  11  13
HETATM   13  C   UNL     1     -10.003   7.988  68.120  1.00  0.00    -0.217 A  
HETATM   14  C   UNL     1     -10.951   6.958  68.230  1.00  0.00    -0.208 A  
HETATM   15  C   UNL     1     -10.710   5.856  69.053  1.00  0.00    -0.379 A  
HETATM   16  C   UNL     1      -9.520   5.776  69.773  1.00  0.00    -0.183 A  
HETATM   17  C   UNL     1      -8.589   6.816  69.703  1.00  0.00    -0.133 A  
HETATM   18  C   UNL     1      -8.840   7.929  68.898  1.00  0.00    -0.142 A  
HETATM   19  O   UNL     1      -7.946   8.965  68.892  1.00  0.00    -0.101 OA 
HETATM   20  H   UNL     1      -7.158   8.925  69.420  1.00  0.00     0.000 HD 
ENDBRANCH  11  13
ENDBRANCH   7  11
ENDBRANCH   2   3
TORSDOF 3
ENDMDL
MODEL      166
REMARK 921   NORMALIZED FREE ENERGY PREDICTED BY IDOCK:   -4.11 KCAL/MOL
REMARK 922        TOTAL FREE ENERGY PREDICTED BY IDOCK:   -5.45 KCAL/MOL
REMARK 923 INTER-LIGAND FREE ENERGY PREDICTED BY IDOCK:   -4.60 KCAL/MOL
REMARK 924 INTRA-LIGAND FREE ENERGY PREDICTED BY IDOCK:   -0.86 KCAL/MOL
REMARK 927      BINDING AFFINITY PREDICTED BY RF-SCORE:    0.00 PKD
ROOT
HETATM    1  C   UNL     1     -11.964  14.569  64.647  1.00  0.00    -0.468 C  
HETATM    2  O   UNL     1     -10.706  13.912  64.784  1.00  0.00    -0.382 OA 
ENDROOT
BRANCH   2   3
HETATM    3  C   UNL     1     -10.752  12.735  65.481  1.00  0.00    -0.278 A  
HETATM    4  C   UNL     1     -11.634  12.476  66.530  1.00  0.00    -0.447 A  
HETATM    5  C   UNL     1     -11.561  11.271  67.233  1.00  0.00    -0.086 A  
HETATM    6  O   UNL     1     -12.374  11.131  68.325  1.00  0.00    -0.677 OA 
HETATM    7  C   UNL     1     -10.644  10.279  66.866  1.00  0.00    -0.282 A  
HETATM    8  C   UNL     1      -9.852  11.749  65.083  1.00  0.00    -0.263 A  
HETATM    9  C   UNL     1      -9.796  10.532  65.772  1.00  0.00    -0.295 A  
HETATM   10  H   UNL     1     -12.324  10.312  68.803  1.00  0.00     0.000 HD 
BRANCH   7  11
HETATM   11  C   UNL     1     -10.435   8.993  67.589  1.00  0.00    -0.260 C  
HETATM   12  O   UNL     1     -11.056   7.995  67.213  1.00  0.00    -0.049 OA 
BRANCH  11  13
HETATM   13  C   UNL     1      -9.459   8.806  68.694  1.00  0.00    -0.143 A  
HETATM   14  C   UNL     1      -8.195   8.300  68.350  1.00  0.00    -0.132 A  
HETATM   15  C   UNL     1      -7.210   8.130  69.324  1.00  0.00    -0.072 A  
HETATM   16  C   UNL     1      -7.480   8.464  70.649  1.00  0.00    -0.065 A  
HETATM   17  C   UNL     1      -8.748   8.929  71.009  1.00  0.00    -0.276 A  
HETATM   18  C   UNL     1      -9.742   9.076  70.039  1.00  0.00    -0.185 A  
HETATM   19  O   UNL     1     -10.995   9.471  70.420  1.00  0.00    -0.239 OA 
HETATM   20  H   UNL     1     -11.187   9.654  71.332  1.00  0.00     0.000 HD 
ENDBRANCH  11  13
ENDBRANCH   7  11
ENDBRANCH   2   3
TORSDOF 3
ENDMDL
MODEL      167
REMARK 921   NORMALIZED FREE ENERGY PREDICTED BY IDOCK:   -4.08 KCAL/MOL
REMARK 922        TOTAL FREE ENERGY PREDICTED BY IDOCK:   -5.42 KCAL/MOL
REMARK 923 INTER-LIGAND FREE ENERGY PREDICTED BY IDOCK:   -4.91 KCAL/MOL
REMARK 924 INTRA-LIGAND FREE ENERGY PREDICTED BY IDOCK:   -0.52 KCAL/MOL
REMARK 927      BINDING AFFINITY PREDICTED BY RF-SCORE:    0.00 PKD
ROOT
HETATM    1  C   UNL     1      -9.745   7.659  70.036  1.00  0.00    -0.172 C  
HETATM    2  O   UNL     1      -9.738   7.862  68.624  1.00  0.00    -0.153 OA 
ENDROOT
BRANCH   2   3
HETATM    3  C   UNL     1     -10.142   9.107  68.226  1.00  0.00    -0.191 A  
HETATM    4  C   UNL     1      -9.907   9.643  66.960  1.00  0.00    -0.249 A  
HETATM    5  C   UNL     1     -10.294  10.954  66.665  1.00  0.00    -0.239 A  
HETATM    6  O   UNL     1      -9.926  11.456  65.446  1.00  0.00    -0.223 OA 
HETATM    7  C   UNL     1     -10.971  11.733  67.610  1.00  0.00    -0.286 A  
HETATM    8  C   UNL     1     -10.839   9.859  69.170  1.00  0.00    -0.248 A  
HETATM    9  C   UNL     1     -11.247  11.162  68.865  1.00  0.00    -0.317 A  
HETATM   10  H   UNL     1     -10.189  12.346  65.246  1.00  0.00     0.000 HD 
BRANCH   7  11
HETATM   11  C   UNL     1     -11.362  13.160  67.424  1.00  0.00    -0.306 C  
HETATM   12  O   UNL     1     -11.739  13.529  66.309  1.00  0.00    -0.335 OA 
BRANCH  11  13
HETATM   13  C   UNL     1     -11.406  14.162  68.520  1.00  0.00    -0.312 A  
HETATM   14  C   UNL     1     -12.344  13.947  69.543  1.00  0.00    -0.275 A  
HETATM   15  C   UNL     1     -12.424  14.823  70.628  1.00  0.00    -0.407 A  
HETATM   16  C   UNL     1     -11.569  15.920  70.697  1.00  0.00    -0.426 A  
HETATM   17  C   UNL     1     -10.661  16.165  69.664  1.00  0.00    -0.311 A  
HETATM   18  C   UNL     1     -10.597  15.303  68.567  1.00  0.00    -0.237 A  
HETATM   19  O   UNL     1      -9.747  15.596  67.536  1.00  0.00    -0.220 OA 
HETATM   20  H   UNL     1      -9.197  16.369  67.567  1.00  0.00     0.000 HD 
ENDBRANCH  11  13
ENDBRANCH   7  11
ENDBRANCH   2   3
TORSDOF 3
ENDMDL
MODEL      168
REMARK 921   NORMALIZED FREE ENERGY PREDICTED BY IDOCK:   -4.08 KCAL/MOL
REMARK 922        TOTAL FREE ENERGY PREDICTED BY IDOCK:   -5.41 KCAL/MOL
REMARK 923 INTER-LIGAND FREE ENERGY PREDICTED BY IDOCK:   -4.67 KCAL/MOL
REMARK 924 INTRA-LIGAND FREE ENERGY PREDICTED BY IDOCK:   -0.74 KCAL/MOL
REMARK 927      BINDING AFFINITY PREDICTED BY RF-SCORE:    0.00 PKD
ROOT
HETATM    1  C   UNL     1      -5.995  14.396  70.572  1.00  0.00    -0.180 C  
HETATM    2  O   UNL     1      -6.102  14.541  69.158  1.00  0.00    -0.091 OA 
ENDROOT
BRANCH   2   3
HETATM    3  C   UNL     1      -7.383  14.674  68.695  1.00  0.00    -0.125 A  
HETATM    4  C   UNL     1      -8.405  15.325  69.386  1.00  0.00    -0.232 A  
HETATM    5  C   UNL     1      -9.703  15.350  68.868  1.00  0.00    -0.220 A  
HETATM    6  O   UNL     1     -10.680  15.899  69.652  1.00  0.00    -0.252 OA 
HETATM    7  C   UNL     1      -9.992  14.773  67.626  1.00  0.00    -0.226 A  
HETATM    8  C   UNL     1      -7.646  14.119  67.444  1.00  0.00    -0.179 A  
HETATM    9  C   UNL     1      -8.941  14.165  66.915  1.00  0.00    -0.247 A  
HETATM   10  H   UNL     1     -11.562  15.916  69.301  1.00  0.00     0.000 HD 
BRANCH   7  11
HETATM   11  C   UNL     1     -11.350  14.680  67.018  1.00  0.00    -0.355 C  
HETATM   12  O   UNL     1     -12.271  15.324  67.528  1.00  0.00     0.117 OA 
BRANCH  11  13
HETATM   13  C   UNL     1     -11.660  13.922  65.778  1.00  0.00    -0.343 A  
HETATM   14  C   UNL     1     -11.804  12.531  65.901  1.00  0.00    -0.489 A  
HETATM   15  C   UNL     1     -12.132  11.750  64.791  1.00  0.00    -0.045 A  
HETATM   16  C   UNL     1     -12.317  12.355  63.550  1.00  0.00    -0.648 A  
HETATM   17  C   UNL     1     -12.135  13.733  63.409  1.00  0.00    -0.122 A  
HETATM   18  C   UNL     1     -11.784  14.511  64.514  1.00  0.00    -0.410 A  
HETATM   19  O   UNL     1     -11.548  15.847  64.343  1.00  0.00    -0.621 OA 
HETATM   20  H   UNL     1     -11.632  16.247  63.486  1.00  0.00     0.000 HD 
ENDBRANCH  11  13
ENDBRANCH   7  11
ENDBRANCH   2   3
TORSDOF 3
ENDMDL
MODEL      169
REMARK 921   NORMALIZED FREE ENERGY PREDICTED BY IDOCK:   -4.05 KCAL/MOL
REMARK 922        TOTAL FREE ENERGY PREDICTED BY IDOCK:   -5.39 KCAL/MOL
REMARK 923 INTER-LIGAND FREE ENERGY PREDICTED BY IDOCK:   -4.87 KCAL/MOL
REMARK 924 INTRA-LIGAND FREE ENERGY PREDICTED BY IDOCK:   -0.52 KCAL/MOL
REMARK 927      BINDING AFFINITY PREDICTED BY RF-SCORE:    0.00 PKD
ROOT
HETATM    1  C   UNL     1     -12.439  15.143  70.836  1.00  0.00    -0.365 C  
HETATM    2  O   UNL     1     -12.760  14.398  69.663  1.00  0.00    -0.173 OA 
ENDROOT
BRANCH   2   3
HETATM    3  C   UNL     1     -12.069  13.225  69.528  1.00  0.00    -0.258 A  
HETATM    4  C   UNL     1     -12.146  12.159  70.425  1.00  0.00    -0.395 A  
HETATM    5  C   UNL     1     -11.347  11.026  70.246  1.00  0.00    -0.203 A  
HETATM    6  O   UNL     1     -11.384  10.072  71.226  1.00  0.00    -0.357 OA 
HETATM    7  C   UNL     1     -10.499  10.912  69.138  1.00  0.00    -0.248 A  
HETATM    8  C   UNL     1     -11.251  13.117  68.405  1.00  0.00    -0.305 A  
HETATM    9  C   UNL     1     -10.470  11.972  68.213  1.00  0.00    -0.218 A  
HETATM   10  H   UNL     1     -10.841   9.302  71.105  1.00  0.00     0.000 HD 
BRANCH   7  11
HETATM   11  C   UNL     1      -9.556   9.785  68.891  1.00  0.00    -0.167 C  
HETATM   12  O   UNL     1      -8.348   9.980  69.046  1.00  0.00    -0.115 OA 
BRANCH  11  13
HETATM   13  C   UNL     1      -9.980   8.403  68.546  1.00  0.00    -0.203 A  
HETATM   14  C   UNL     1     -10.019   7.468  69.593  1.00  0.00    -0.184 A  
HETATM   15  C   UNL     1     -10.441   6.158  69.360  1.00  0.00    -0.316 A  
HETATM   16  C   UNL     1     -10.827   5.773  68.078  1.00  0.00    -0.251 A  
HETATM   17  C   UNL     1     -10.753   6.684  67.021  1.00  0.00    -0.437 A  
HETATM   18  C   UNL     1     -10.307   7.988  67.250  1.00  0.00    -0.301 A  
HETATM   19  O   UNL     1     -10.180   8.846  66.192  1.00  0.00    -0.376 OA 
HETATM   20  H   UNL     1     -10.402   8.565  65.313  1.00  0.00     0.000 HD 
ENDBRANCH  11  13
ENDBRANCH   7  11
ENDBRANCH   2   3
TORSDOF 3
ENDMDL
MODEL      170
REMARK 921   NORMALIZED FREE ENERGY PREDICTED BY IDOCK:   -4.05 KCAL/MOL
REMARK 922        TOTAL FREE ENERGY PREDICTED BY IDOCK:   -5.38 KCAL/MOL
REMARK 923 INTER-LIGAND FREE ENERGY PREDICTED BY IDOCK:   -4.48 KCAL/MOL
REMARK 924 INTRA-LIGAND FREE ENERGY PREDICTED BY IDOCK:   -0.89 KCAL/MOL
REMARK 927      BINDING AFFINITY PREDICTED BY RF-SCORE:    0.00 PKD
ROOT
HETATM    1  C   UNL     1      -8.747  10.178  63.759  1.00  0.00    -0.212 C  
HETATM    2  O   UNL     1      -9.996  10.464  64.386  1.00  0.00    -0.335 OA 
ENDROOT
BRANCH   2   3
HETATM    3  C   UNL     1     -10.032  10.200  65.728  1.00  0.00    -0.271 A  
HETATM    4  C   UNL     1     -11.046  10.629  66.586  1.00  0.00    -0.053 A  
HETATM    5  C   UNL     1     -10.964  10.373  67.958  1.00  0.00    -0.291 A  
HETATM    6  O   UNL     1     -11.928  10.925  68.756  1.00  0.00    -0.563 OA 
HETATM    7  C   UNL     1      -9.898   9.638  68.490  1.00  0.00    -0.170 A  
HETATM    8  C   UNL     1      -8.979   9.443  66.235  1.00  0.00    -0.189 A  
HETATM    9  C   UNL     1      -8.910   9.168  67.606  1.00  0.00    -0.123 A  
HETATM   10  H   UNL     1     -11.872  10.751  69.688  1.00  0.00     0.000 HD 
BRANCH   7  11
HETATM   11  C   UNL     1      -9.677   9.373  69.940  1.00  0.00    -0.212 C  
HETATM   12  O   UNL     1      -8.780   9.987  70.523  1.00  0.00    -0.033 OA 
BRANCH  11  13
HETATM   13  C   UNL     1     -10.524   8.471  70.762  1.00  0.00    -0.239 A  
HETATM   14  C   UNL     1     -10.287   7.092  70.645  1.00  0.00    -0.223 A  
HETATM   15  C   UNL     1     -11.015   6.179  71.411  1.00  0.00    -0.334 A  
HETATM   16  C   UNL     1     -11.986   6.638  72.298  1.00  0.00    -0.259 A  
HETATM   17  C   UNL     1     -12.258   8.006  72.392  1.00  0.00    -0.337 A  
HETATM   18  C   UNL     1     -11.547   8.917  71.608  1.00  0.00    -0.338 A  
HETATM   19  O   UNL     1     -11.871  10.245  71.666  1.00  0.00    -0.300 OA 
HETATM   20  H   UNL     1     -12.565  10.548  72.240  1.00  0.00     0.000 HD 
ENDBRANCH  11  13
ENDBRANCH   7  11
ENDBRANCH   2   3
TORSDOF 3
ENDMDL
MODEL      171
REMARK 921   NORMALIZED FREE ENERGY PREDICTED BY IDOCK:   -4.03 KCAL/MOL
REMARK 922        TOTAL FREE ENERGY PREDICTED BY IDOCK:   -5.36 KCAL/MOL
REMARK 923 INTER-LIGAND FREE ENERGY PREDICTED BY IDOCK:   -4.51 KCAL/MOL
REMARK 924 INTRA-LIGAND FREE ENERGY PREDICTED BY IDOCK:   -0.85 KCAL/MOL
REMARK 927      BINDING AFFINITY PREDICTED BY RF-SCORE:    0.00 PKD
ROOT
HETATM    1  C   UNL     1      -6.900   6.450  67.013  1.00  0.00    -0.066 C  
HETATM    2  O   UNL     1      -7.984   6.913  67.815  1.00  0.00    -0.111 OA 
ENDROOT
BRANCH   2   3
HETATM    3  C   UNL     1      -8.560   8.075  67.378  1.00  0.00    -0.125 A  
HETATM    4  C   UNL     1      -7.854   9.137  66.812  1.00  0.00    -0.101 A  
HETATM    5  C   UNL     1      -8.516  10.316  66.459  1.00  0.00    -0.125 A  
HETATM    6  O   UNL     1      -7.747  11.360  66.022  1.00  0.00    -0.365 OA 
HETATM    7  C   UNL     1      -9.903  10.436  66.613  1.00  0.00    -0.251 A  
HETATM    8  C   UNL     1      -9.943   8.165  67.512  1.00  0.00    -0.251 A  
HETATM    9  C   UNL     1     -10.609   9.337  67.137  1.00  0.00    -0.286 A  
HETATM   10  H   UNL     1      -8.198  12.162  65.783  1.00  0.00     0.000 HD 
BRANCH   7  11
HETATM   11  C   UNL     1     -10.694  11.669  66.338  1.00  0.00    -0.272 C  
HETATM   12  O   UNL     1     -11.356  11.727  65.299  1.00  0.00    -0.298 OA 
BRANCH  11  13
HETATM   13  C   UNL     1     -10.807  12.815  67.277  1.00  0.00    -0.277 A  
HETATM   14  C   UNL     1     -11.840  12.761  68.226  1.00  0.00    -0.357 A  
HETATM   15  C   UNL     1     -11.992  13.780  69.168  1.00  0.00    -0.403 A  
HETATM   16  C   UNL     1     -11.113  14.860  69.168  1.00  0.00    -0.279 A  
HETATM   17  C   UNL     1     -10.107  14.943  68.202  1.00  0.00    -0.222 A  
HETATM   18  C   UNL     1      -9.970  13.936  67.244  1.00  0.00    -0.242 A  
HETATM   19  O   UNL     1      -9.020  14.066  66.268  1.00  0.00    -0.478 OA 
HETATM   20  H   UNL     1      -8.452  14.827  66.245  1.00  0.00     0.000 HD 
ENDBRANCH  11  13
ENDBRANCH   7  11
ENDBRANCH   2   3
TORSDOF 3
ENDMDL
MODEL      172
REMARK 921   NORMALIZED FREE ENERGY PREDICTED BY IDOCK:   -4.03 KCAL/MOL
REMARK 922        TOTAL FREE ENERGY PREDICTED BY IDOCK:   -5.36 KCAL/MOL
REMARK 923 INTER-LIGAND FREE ENERGY PREDICTED BY IDOCK:   -5.07 KCAL/MOL
REMARK 924 INTRA-LIGAND FREE ENERGY PREDICTED BY IDOCK:   -0.29 KCAL/MOL
REMARK 927      BINDING AFFINITY PREDICTED BY RF-SCORE:    0.00 PKD
ROOT
HETATM    1  C   UNL     1      -5.173  15.416  71.250  1.00  0.00    -0.091 C  
HETATM    2  O   UNL     1      -5.218  14.423  70.227  1.00  0.00    -0.094 OA 
ENDROOT
BRANCH   2   3
HETATM    3  C   UNL     1      -6.224  14.592  69.315  1.00  0.00    -0.111 A  
HETATM    4  C   UNL     1      -6.672  13.598  68.445  1.00  0.00    -0.100 A  
HETATM    5  C   UNL     1      -7.657  13.882  67.495  1.00  0.00    -0.176 A  
HETATM    6  O   UNL     1      -7.964  12.896  66.596  1.00  0.00    -0.396 OA 
HETATM    7  C   UNL     1      -8.252  15.147  67.433  1.00  0.00    -0.215 A  
HETATM    8  C   UNL     1      -6.824  15.849  69.286  1.00  0.00    -0.189 A  
HETATM    9  C   UNL     1      -7.828  16.126  68.350  1.00  0.00    -0.160 A  
HETATM   10  H   UNL     1      -8.633  13.090  65.951  1.00  0.00     0.000 HD 
BRANCH   7  11
HETATM   11  C   UNL     1      -9.255  15.575  66.416  1.00  0.00    -0.305 C  
HETATM   12  O   UNL     1      -9.080  16.645  65.828  1.00  0.00    -0.503 OA 
BRANCH  11  13
HETATM   13  C   UNL     1     -10.422  14.756  65.999  1.00  0.00    -0.312 A  
HETATM   14  C   UNL     1     -10.343  14.126  64.746  1.00  0.00    -0.387 A  
HETATM   15  C   UNL     1     -11.382  13.309  64.296  1.00  0.00    -0.428 A  
HETATM   16  C   UNL     1     -12.507  13.116  65.095  1.00  0.00    -0.539 A  
HETATM   17  C   UNL     1     -12.613  13.771  66.324  1.00  0.00    -0.372 A  
HETATM   18  C   UNL     1     -11.585  14.608  66.764  1.00  0.00    -0.360 A  
HETATM   19  O   UNL     1     -11.736  15.290  67.940  1.00  0.00    -0.329 OA 
HETATM   20  H   UNL     1     -12.524  15.190  68.459  1.00  0.00     0.000 HD 
ENDBRANCH  11  13
ENDBRANCH   7  11
ENDBRANCH   2   3
TORSDOF 3
ENDMDL
MODEL      173
REMARK 921   NORMALIZED FREE ENERGY PREDICTED BY IDOCK:   -4.03 KCAL/MOL
REMARK 922        TOTAL FREE ENERGY PREDICTED BY IDOCK:   -5.35 KCAL/MOL
REMARK 923 INTER-LIGAND FREE ENERGY PREDICTED BY IDOCK:   -4.93 KCAL/MOL
REMARK 924 INTRA-LIGAND FREE ENERGY PREDICTED BY IDOCK:   -0.42 KCAL/MOL
REMARK 927      BINDING AFFINITY PREDICTED BY RF-SCORE:    0.00 PKD
ROOT
HETATM    1  C   UNL     1     -10.234   9.156  67.636  1.00  0.00    -0.236 C  
HETATM    2  O   UNL     1      -9.454  10.097  66.902  1.00  0.00    -0.162 OA 
ENDROOT
BRANCH   2   3
HETATM    3  C   UNL     1      -9.839  11.400  67.060  1.00  0.00    -0.191 A  
HETATM    4  C   UNL     1      -9.827  12.353  66.040  1.00  0.00    -0.268 A  
HETATM    5  C   UNL     1     -10.169  13.681  66.310  1.00  0.00    -0.296 A  
HETATM    6  O   UNL     1     -10.020  14.586  65.295  1.00  0.00    -0.444 OA 
HETATM    7  C   UNL     1     -10.581  14.071  67.590  1.00  0.00    -0.249 A  
HETATM    8  C   UNL     1     -10.274  11.764  68.332  1.00  0.00    -0.208 A  
HETATM    9  C   UNL     1     -10.639  13.089  68.596  1.00  0.00    -0.257 A  
HETATM   10  H   UNL     1     -10.252  15.488  65.479  1.00  0.00     0.000 HD 
BRANCH   7  11
HETATM   11  C   UNL     1     -10.896  15.468  68.002  1.00  0.00    -0.300 C  
HETATM   12  O   UNL     1     -11.981  15.694  68.546  1.00  0.00    -0.313 OA 
BRANCH  11  13
HETATM   13  C   UNL     1      -9.952  16.609  67.875  1.00  0.00    -0.254 A  
HETATM   14  C   UNL     1     -10.293  17.620  66.963  1.00  0.00    -0.330 A  
HETATM   15  C   UNL     1      -9.478  18.744  66.812  1.00  0.00    -0.335 A  
HETATM   16  C   UNL     1      -8.316  18.864  67.571  1.00  0.00    -0.294 A  
HETATM   17  C   UNL     1      -7.947  17.843  68.451  1.00  0.00    -0.300 A  
HETATM   18  C   UNL     1      -8.750  16.708  68.585  1.00  0.00    -0.250 A  
HETATM   19  O   UNL     1      -8.339  15.692  69.403  1.00  0.00    -0.243 OA 
HETATM   20  H   UNL     1      -7.523  15.759  69.885  1.00  0.00     0.000 HD 
ENDBRANCH  11  13
ENDBRANCH   7  11
ENDBRANCH   2   3
TORSDOF 3
ENDMDL
MODEL      174
REMARK 921   NORMALIZED FREE ENERGY PREDICTED BY IDOCK:   -4.02 KCAL/MOL
REMARK 922        TOTAL FREE ENERGY PREDICTED BY IDOCK:   -5.35 KCAL/MOL
REMARK 923 INTER-LIGAND FREE ENERGY PREDICTED BY IDOCK:   -5.54 KCAL/MOL
REMARK 924 INTRA-LIGAND FREE ENERGY PREDICTED BY IDOCK:    0.19 KCAL/MOL
REMARK 927      BINDING AFFINITY PREDICTED BY RF-SCORE:    0.00 PKD
ROOT
HETATM    1  C   UNL     1     -10.579  19.499  66.765  1.00  0.00    -0.488 C  
HETATM    2  O   UNL     1     -10.909  18.674  67.881  1.00  0.00    -0.348 OA 
ENDROOT
BRANCH   2   3
HETATM    3  C   UNL     1     -10.509  17.371  67.764  1.00  0.00    -0.376 A  
HETATM    4  C   UNL     1      -9.238  16.973  67.345  1.00  0.00    -0.234 A  
HETATM    5  C   UNL     1      -8.940  15.617  67.184  1.00  0.00    -0.214 A  
HETATM    6  O   UNL     1      -7.718  15.302  66.657  1.00  0.00    -0.268 OA 
HETATM    7  C   UNL     1      -9.887  14.632  67.491  1.00  0.00    -0.218 A  
HETATM    8  C   UNL     1     -11.453  16.404  68.100  1.00  0.00    -0.108 A  
HETATM    9  C   UNL     1     -11.146  15.046  67.962  1.00  0.00    -0.304 A  
HETATM   10  H   UNL     1      -7.516  14.381  66.548  1.00  0.00     0.000 HD 
BRANCH   7  11
HETATM   11  C   UNL     1      -9.698  13.168  67.288  1.00  0.00    -0.230 C  
HETATM   12  O   UNL     1      -9.415  12.467  68.263  1.00  0.00    -0.210 OA 
BRANCH  11  13
HETATM   13  C   UNL     1      -9.908  12.471  65.992  1.00  0.00    -0.266 A  
HETATM   14  C   UNL     1      -9.762  11.075  65.988  1.00  0.00    -0.265 A  
HETATM   15  C   UNL     1      -9.980  10.342  64.820  1.00  0.00    -0.392 A  
HETATM   16  C   UNL     1     -10.343  10.999  63.647  1.00  0.00    -0.415 A  
HETATM   17  C   UNL     1     -10.450  12.392  63.631  1.00  0.00    -0.460 A  
HETATM   18  C   UNL     1     -10.210  13.128  64.793  1.00  0.00    -0.301 A  
HETATM   19  O   UNL     1     -10.257  14.494  64.741  1.00  0.00    -0.443 OA 
HETATM   20  H   UNL     1     -10.461  14.940  63.928  1.00  0.00     0.000 HD 
ENDBRANCH  11  13
ENDBRANCH   7  11
ENDBRANCH   2   3
TORSDOF 3
ENDMDL
MODEL      175
REMARK 921   NORMALIZED FREE ENERGY PREDICTED BY IDOCK:   -4.01 KCAL/MOL
REMARK 922        TOTAL FREE ENERGY PREDICTED BY IDOCK:   -5.34 KCAL/MOL
REMARK 923 INTER-LIGAND FREE ENERGY PREDICTED BY IDOCK:   -4.69 KCAL/MOL
REMARK 924 INTRA-LIGAND FREE ENERGY PREDICTED BY IDOCK:   -0.65 KCAL/MOL
REMARK 927      BINDING AFFINITY PREDICTED BY RF-SCORE:    0.00 PKD
ROOT
HETATM    1  C   UNL     1      -9.182  11.577  67.705  1.00  0.00    -0.171 C  
HETATM    2  O   UNL     1      -8.617  10.515  66.939  1.00  0.00    -0.124 OA 
ENDROOT
BRANCH   2   3
HETATM    3  C   UNL     1      -9.013   9.263  67.324  1.00  0.00    -0.123 A  
HETATM    4  C   UNL     1     -10.104   8.582  66.783  1.00  0.00    -0.369 A  
HETATM    5  C   UNL     1     -10.479   7.335  67.289  1.00  0.00    -0.310 A  
HETATM    6  O   UNL     1     -11.628   6.778  66.795  1.00  0.00    -0.655 OA 
HETATM    7  C   UNL     1      -9.740   6.720  68.306  1.00  0.00    -0.126 A  
HETATM    8  C   UNL     1      -8.249   8.654  68.318  1.00  0.00    -0.122 A  
HETATM    9  C   UNL     1      -8.612   7.394  68.807  1.00  0.00    -0.129 A  
HETATM   10  H   UNL     1     -11.883   5.930  67.139  1.00  0.00     0.000 HD 
BRANCH   7  11
HETATM   11  C   UNL     1     -10.094   5.430  68.965  1.00  0.00    -0.213 C  
HETATM   12  O   UNL     1     -10.011   4.389  68.309  1.00  0.00    -0.101 OA 
BRANCH  11  13
HETATM   13  C   UNL     1     -10.468   5.299  70.397  1.00  0.00    -0.322 A  
HETATM   14  C   UNL     1      -9.715   4.404  71.173  1.00  0.00    -0.256 A  
HETATM   15  C   UNL     1      -9.978   4.251  72.536  1.00  0.00    -0.218 A  
HETATM   16  C   UNL     1     -10.996   4.991  73.132  1.00  0.00    -0.375 A  
HETATM   17  C   UNL     1     -11.779   5.853  72.360  1.00  0.00    -0.307 A  
HETATM   18  C   UNL     1     -11.531   5.989  70.992  1.00  0.00    -0.166 A  
HETATM   19  O   UNL     1     -12.348   6.789  70.241  1.00  0.00    -0.604 OA 
HETATM   20  H   UNL     1     -13.070   7.257  70.644  1.00  0.00     0.000 HD 
ENDBRANCH  11  13
ENDBRANCH   7  11
ENDBRANCH   2   3
TORSDOF 3
ENDMDL
MODEL      176
REMARK 921   NORMALIZED FREE ENERGY PREDICTED BY IDOCK:   -4.01 KCAL/MOL
REMARK 922        TOTAL FREE ENERGY PREDICTED BY IDOCK:   -5.33 KCAL/MOL
REMARK 923 INTER-LIGAND FREE ENERGY PREDICTED BY IDOCK:   -4.70 KCAL/MOL
REMARK 924 INTRA-LIGAND FREE ENERGY PREDICTED BY IDOCK:   -0.64 KCAL/MOL
REMARK 927      BINDING AFFINITY PREDICTED BY RF-SCORE:    0.00 PKD
ROOT
HETATM    1  C   UNL     1     -10.800  19.947  66.660  1.00  0.00    -0.225 C  
HETATM    2  O   UNL     1      -9.384  19.821  66.781  1.00  0.00    -0.333 OA 
ENDROOT
BRANCH   2   3
HETATM    3  C   UNL     1      -8.935  18.533  66.887  1.00  0.00    -0.280 A  
HETATM    4  C   UNL     1      -7.635  18.127  66.584  1.00  0.00    -0.259 A  
HETATM    5  C   UNL     1      -7.284  16.776  66.652  1.00  0.00    -0.254 A  
HETATM    6  O   UNL     1      -6.030  16.432  66.226  1.00  0.00    -0.024 OA 
HETATM    7  C   UNL     1      -8.207  15.813  67.077  1.00  0.00    -0.262 A  
HETATM    8  C   UNL     1      -9.859  17.594  67.339  1.00  0.00    -0.305 A  
HETATM    9  C   UNL     1      -9.499  16.244  67.430  1.00  0.00    -0.227 A  
HETATM   10  H   UNL     1      -5.791  15.513  66.273  1.00  0.00     0.000 HD 
BRANCH   7  11
HETATM   11  C   UNL     1      -7.960  14.344  67.117  1.00  0.00    -0.119 C  
HETATM   12  O   UNL     1      -6.799  13.943  67.234  1.00  0.00    -0.205 OA 
BRANCH  11  13
HETATM   13  C   UNL     1      -9.032  13.316  67.106  1.00  0.00    -0.229 A  
HETATM   14  C   UNL     1      -9.126  12.481  68.231  1.00  0.00    -0.183 A  
HETATM   15  C   UNL     1     -10.130  11.514  68.315  1.00  0.00    -0.205 A  
HETATM   16  C   UNL     1     -11.046  11.375  67.276  1.00  0.00    -0.363 A  
HETATM   17  C   UNL     1     -10.937  12.173  66.134  1.00  0.00    -0.335 A  
HETATM   18  C   UNL     1      -9.918  13.124  66.039  1.00  0.00    -0.280 A  
HETATM   19  O   UNL     1      -9.788  13.851  64.888  1.00  0.00    -0.606 OA 
HETATM   20  H   UNL     1     -10.389  13.720  64.164  1.00  0.00     0.000 HD 
ENDBRANCH  11  13
ENDBRANCH   7  11
ENDBRANCH   2   3
TORSDOF 3
ENDMDL
MODEL      177
REMARK 921   NORMALIZED FREE ENERGY PREDICTED BY IDOCK:   -3.99 KCAL/MOL
REMARK 922        TOTAL FREE ENERGY PREDICTED BY IDOCK:   -5.32 KCAL/MOL
REMARK 923 INTER-LIGAND FREE ENERGY PREDICTED BY IDOCK:   -4.57 KCAL/MOL
REMARK 924 INTRA-LIGAND FREE ENERGY PREDICTED BY IDOCK:   -0.74 KCAL/MOL
REMARK 927      BINDING AFFINITY PREDICTED BY RF-SCORE:    0.00 PKD
ROOT
HETATM    1  C   UNL     1     -11.284  15.053  69.001  1.00  0.00    -0.268 C  
HETATM    2  O   UNL     1     -12.212  13.972  68.925  1.00  0.00    -0.345 OA 
ENDROOT
BRANCH   2   3
HETATM    3  C   UNL     1     -11.681  12.746  69.218  1.00  0.00    -0.319 A  
HETATM    4  C   UNL     1     -12.192  11.877  70.183  1.00  0.00    -0.319 A  
HETATM    5  C   UNL     1     -11.541  10.674  70.466  1.00  0.00    -0.350 A  
HETATM    6  O   UNL     1     -12.027   9.927  71.505  1.00  0.00    -0.379 OA 
HETATM    7  C   UNL     1     -10.399  10.289  69.753  1.00  0.00    -0.287 A  
HETATM    8  C   UNL     1     -10.562  12.367  68.479  1.00  0.00    -0.251 A  
HETATM    9  C   UNL     1      -9.924  11.150  68.747  1.00  0.00    -0.207 A  
HETATM   10  H   UNL     1     -11.585   9.109  71.697  1.00  0.00     0.000 HD 
BRANCH   7  11
HETATM   11  C   UNL     1      -9.590   9.067  70.023  1.00  0.00    -0.186 C  
HETATM   12  O   UNL     1      -8.596   9.164  70.747  1.00  0.00    -0.190 OA 
BRANCH  11  13
HETATM   13  C   UNL     1      -9.947   7.707  69.543  1.00  0.00    -0.182 A  
HETATM   14  C   UNL     1     -10.502   7.610  68.257  1.00  0.00    -0.219 A  
HETATM   15  C   UNL     1     -10.830   6.365  67.717  1.00  0.00    -0.418 A  
HETATM   16  C   UNL     1     -10.605   5.207  68.459  1.00  0.00    -0.001 A  
HETATM   17  C   UNL     1     -10.092   5.296  69.755  1.00  0.00    -0.334 A  
HETATM   18  C   UNL     1      -9.786   6.543  70.305  1.00  0.00    -0.168 A  
HETATM   19  O   UNL     1      -9.344   6.614  71.597  1.00  0.00    -0.150 OA 
HETATM   20  H   UNL     1      -9.236   5.825  72.115  1.00  0.00     0.000 HD 
ENDBRANCH  11  13
ENDBRANCH   7  11
ENDBRANCH   2   3
TORSDOF 3
ENDMDL
MODEL      178
REMARK 921   NORMALIZED FREE ENERGY PREDICTED BY IDOCK:   -3.99 KCAL/MOL
REMARK 922        TOTAL FREE ENERGY PREDICTED BY IDOCK:   -5.31 KCAL/MOL
REMARK 923 INTER-LIGAND FREE ENERGY PREDICTED BY IDOCK:   -4.51 KCAL/MOL
REMARK 924 INTRA-LIGAND FREE ENERGY PREDICTED BY IDOCK:   -0.81 KCAL/MOL
REMARK 927      BINDING AFFINITY PREDICTED BY RF-SCORE:    0.00 PKD
ROOT
HETATM    1  C   UNL     1      -8.148   3.376  65.893  1.00  0.00    -0.093 C  
HETATM    2  O   UNL     1      -9.439   3.958  66.060  1.00  0.00    -0.162 OA 
ENDROOT
BRANCH   2   3
HETATM    3  C   UNL     1      -9.429   5.300  66.326  1.00  0.00    -0.156 A  
HETATM    4  C   UNL     1      -8.316   6.125  66.162  1.00  0.00    -0.128 A  
HETATM    5  C   UNL     1      -8.376   7.473  66.528  1.00  0.00    -0.126 A  
HETATM    6  O   UNL     1      -7.216   8.195  66.453  1.00  0.00    -0.076 OA 
HETATM    7  C   UNL     1      -9.563   8.034  67.012  1.00  0.00    -0.252 A  
HETATM    8  C   UNL     1     -10.627   5.847  66.781  1.00  0.00    -0.368 A  
HETATM    9  C   UNL     1     -10.692   7.202  67.124  1.00  0.00    -0.422 A  
HETATM   10  H   UNL     1      -7.257   9.110  66.702  1.00  0.00     0.000 HD 
BRANCH   7  11
HETATM   11  C   UNL     1      -9.715   9.435  67.497  1.00  0.00    -0.157 C  
HETATM   12  O   UNL     1      -9.297   9.720  68.622  1.00  0.00    -0.142 OA 
BRANCH  11  13
HETATM   13  C   UNL     1     -10.269  10.546  66.680  1.00  0.00    -0.289 A  
HETATM   14  C   UNL     1      -9.687  10.762  65.421  1.00  0.00    -0.297 A  
HETATM   15  C   UNL     1     -10.174  11.762  64.576  1.00  0.00    -0.327 A  
HETATM   16  C   UNL     1     -11.245  12.553  64.985  1.00  0.00    -0.344 A  
HETATM   17  C   UNL     1     -11.804  12.373  66.253  1.00  0.00    -0.431 A  
HETATM   18  C   UNL     1     -11.301  11.389  67.108  1.00  0.00    -0.255 A  
HETATM   19  O   UNL     1     -11.819  11.271  68.368  1.00  0.00    -0.482 OA 
HETATM   20  H   UNL     1     -12.519  11.842  68.659  1.00  0.00     0.000 HD 
ENDBRANCH  11  13
ENDBRANCH   7  11
ENDBRANCH   2   3
TORSDOF 3
ENDMDL
MODEL      179
REMARK 921   NORMALIZED FREE ENERGY PREDICTED BY IDOCK:   -3.99 KCAL/MOL
REMARK 922        TOTAL FREE ENERGY PREDICTED BY IDOCK:   -5.31 KCAL/MOL
REMARK 923 INTER-LIGAND FREE ENERGY PREDICTED BY IDOCK:   -4.88 KCAL/MOL
REMARK 924 INTRA-LIGAND FREE ENERGY PREDICTED BY IDOCK:   -0.43 KCAL/MOL
REMARK 927      BINDING AFFINITY PREDICTED BY RF-SCORE:    0.00 PKD
ROOT
HETATM    1  C   UNL     1      -5.808  19.363  65.115  1.00  0.00    -0.222 C  
HETATM    2  O   UNL     1      -5.801  18.962  66.484  1.00  0.00    -0.159 OA 
ENDROOT
BRANCH   2   3
HETATM    3  C   UNL     1      -6.850  18.162  66.847  1.00  0.00    -0.188 A  
HETATM    4  C   UNL     1      -7.794  17.649  65.955  1.00  0.00    -0.201 A  
HETATM    5  C   UNL     1      -8.875  16.899  66.426  1.00  0.00    -0.287 A  
HETATM    6  O   UNL     1      -9.826  16.530  65.514  1.00  0.00    -0.537 OA 
HETATM    7  C   UNL     1      -9.004  16.600  67.787  1.00  0.00    -0.211 A  
HETATM    8  C   UNL     1      -6.948  17.851  68.201  1.00  0.00    -0.218 A  
HETATM    9  C   UNL     1      -8.018  17.079  68.668  1.00  0.00    -0.258 A  
HETATM   10  H   UNL     1     -10.560  16.020  65.834  1.00  0.00     0.000 HD 
BRANCH   7  11
HETATM   11  C   UNL     1     -10.151  15.873  68.401  1.00  0.00    -0.223 C  
HETATM   12  O   UNL     1     -10.815  16.443  69.272  1.00  0.00    -0.291 OA 
BRANCH  11  13
HETATM   13  C   UNL     1     -10.608  14.524  67.977  1.00  0.00    -0.237 A  
HETATM   14  C   UNL     1     -11.844  14.449  67.314  1.00  0.00    -0.434 A  
HETATM   15  C   UNL     1     -12.327  13.223  66.850  1.00  0.00    -0.220 A  
HETATM   16  C   UNL     1     -11.578  12.065  67.046  1.00  0.00    -0.387 A  
HETATM   17  C   UNL     1     -10.368  12.123  67.741  1.00  0.00    -0.217 A  
HETATM   18  C   UNL     1      -9.896  13.345  68.226  1.00  0.00    -0.235 A  
HETATM   19  O   UNL     1      -8.741  13.372  68.959  1.00  0.00    -0.353 OA 
HETATM   20  H   UNL     1      -8.257  12.572  69.128  1.00  0.00     0.000 HD 
ENDBRANCH  11  13
ENDBRANCH   7  11
ENDBRANCH   2   3
TORSDOF 3
ENDMDL
MODEL      180
REMARK 921   NORMALIZED FREE ENERGY PREDICTED BY IDOCK:   -3.97 KCAL/MOL
REMARK 922        TOTAL FREE ENERGY PREDICTED BY IDOCK:   -5.28 KCAL/MOL
REMARK 923 INTER-LIGAND FREE ENERGY PREDICTED BY IDOCK:   -4.47 KCAL/MOL
REMARK 924 INTRA-LIGAND FREE ENERGY PREDICTED BY IDOCK:   -0.82 KCAL/MOL
REMARK 927      BINDING AFFINITY PREDICTED BY RF-SCORE:    0.00 PKD
ROOT
HETATM    1  C   UNL     1     -11.599  14.339  65.433  1.00  0.00    -0.346 C  
HETATM    2  O   UNL     1     -10.553  14.596  66.369  1.00  0.00    -0.290 OA 
ENDROOT
BRANCH   2   3
HETATM    3  C   UNL     1     -10.253  13.542  67.189  1.00  0.00    -0.247 A  
HETATM    4  C   UNL     1      -8.955  13.131  67.497  1.00  0.00    -0.197 A  
HETATM    5  C   UNL     1      -8.743  11.998  68.287  1.00  0.00    -0.178 A  
HETATM    6  O   UNL     1      -7.450  11.581  68.450  1.00  0.00    -0.095 OA 
HETATM    7  C   UNL     1      -9.821  11.287  68.829  1.00  0.00    -0.194 A  
HETATM    8  C   UNL     1     -11.336  12.864  67.742  1.00  0.00    -0.343 A  
HETATM    9  C   UNL     1     -11.122  11.743  68.553  1.00  0.00    -0.288 A  
HETATM   10  H   UNL     1      -7.306  10.811  68.987  1.00  0.00     0.000 HD 
BRANCH   7  11
HETATM   11  C   UNL     1      -9.708  10.029  69.620  1.00  0.00    -0.229 C  
HETATM   12  O   UNL     1      -9.261  10.091  70.769  1.00  0.00     0.087 OA 
BRANCH  11  13
HETATM   13  C   UNL     1     -10.176   8.701  69.147  1.00  0.00    -0.215 A  
HETATM   14  C   UNL     1     -10.060   8.436  67.773  1.00  0.00    -0.263 A  
HETATM   15  C   UNL     1     -10.443   7.197  67.255  1.00  0.00    -0.372 A  
HETATM   16  C   UNL     1     -10.945   6.215  68.105  1.00  0.00    -0.398 A  
HETATM   17  C   UNL     1     -11.103   6.483  69.468  1.00  0.00    -0.425 A  
HETATM   18  C   UNL     1     -10.742   7.731  69.983  1.00  0.00    -0.244 A  
HETATM   19  O   UNL     1     -10.964   7.996  71.306  1.00  0.00    -0.230 OA 
HETATM   20  H   UNL     1     -11.348   7.338  71.873  1.00  0.00     0.000 HD 
ENDBRANCH  11  13
ENDBRANCH   7  11
ENDBRANCH   2   3
TORSDOF 3
ENDMDL
MODEL      181
REMARK 921   NORMALIZED FREE ENERGY PREDICTED BY IDOCK:   -3.96 KCAL/MOL
REMARK 922        TOTAL FREE ENERGY PREDICTED BY IDOCK:   -5.28 KCAL/MOL
REMARK 923 INTER-LIGAND FREE ENERGY PREDICTED BY IDOCK:   -4.34 KCAL/MOL
REMARK 924 INTRA-LIGAND FREE ENERGY PREDICTED BY IDOCK:   -0.95 KCAL/MOL
REMARK 927      BINDING AFFINITY PREDICTED BY RF-SCORE:    0.00 PKD
ROOT
HETATM    1  C   UNL     1      -8.399   5.496  69.021  1.00  0.00    -0.102 C  
HETATM    2  O   UNL     1      -9.720   5.923  68.694  1.00  0.00    -0.120 OA 
ENDROOT
BRANCH   2   3
HETATM    3  C   UNL     1      -9.778   6.998  67.849  1.00  0.00    -0.124 A  
HETATM    4  C   UNL     1      -9.042   7.110  66.668  1.00  0.00    -0.175 A  
HETATM    5  C   UNL     1      -9.109   8.278  65.903  1.00  0.00    -0.149 A  
HETATM    6  O   UNL     1      -8.273   8.369  64.824  1.00  0.00    -0.154 OA 
HETATM    7  C   UNL     1      -9.953   9.332  66.273  1.00  0.00    -0.357 A  
HETATM    8  C   UNL     1     -10.644   8.025  68.217  1.00  0.00    -0.155 A  
HETATM    9  C   UNL     1     -10.728   9.184  67.437  1.00  0.00    -0.247 A  
HETATM   10  H   UNL     1      -8.318   9.162  64.304  1.00  0.00     0.000 HD 
BRANCH   7  11
HETATM   11  C   UNL     1     -10.045  10.644  65.571  1.00  0.00    -0.280 C  
HETATM   12  O   UNL     1     -10.162  10.650  64.343  1.00  0.00    -0.346 OA 
BRANCH  11  13
HETATM   13  C   UNL     1     -10.088  11.958  66.262  1.00  0.00    -0.249 A  
HETATM   14  C   UNL     1      -8.914  12.379  66.907  1.00  0.00    -0.212 A  
HETATM   15  C   UNL     1      -8.860  13.618  67.547  1.00  0.00    -0.205 A  
HETATM   16  C   UNL     1      -9.980  14.446  67.548  1.00  0.00    -0.224 A  
HETATM   17  C   UNL     1     -11.167  14.019  66.946  1.00  0.00    -0.323 A  
HETATM   18  C   UNL     1     -11.228  12.769  66.326  1.00  0.00    -0.300 A  
HETATM   19  O   UNL     1     -12.415  12.343  65.797  1.00  0.00    -0.615 OA 
HETATM   20  H   UNL     1     -13.188  12.892  65.841  1.00  0.00     0.000 HD 
ENDBRANCH  11  13
ENDBRANCH   7  11
ENDBRANCH   2   3
TORSDOF 3
ENDMDL
MODEL      182
REMARK 921   NORMALIZED FREE ENERGY PREDICTED BY IDOCK:   -3.94 KCAL/MOL
REMARK 922        TOTAL FREE ENERGY PREDICTED BY IDOCK:   -5.26 KCAL/MOL
REMARK 923 INTER-LIGAND FREE ENERGY PREDICTED BY IDOCK:   -4.69 KCAL/MOL
REMARK 924 INTRA-LIGAND FREE ENERGY PREDICTED BY IDOCK:   -0.57 KCAL/MOL
REMARK 927      BINDING AFFINITY PREDICTED BY RF-SCORE:    0.00 PKD
ROOT
HETATM    1  C   UNL     1      -7.161  18.348  68.794  1.00  0.00    -0.284 C  
HETATM    2  O   UNL     1      -6.979  17.002  69.227  1.00  0.00    -0.235 OA 
ENDROOT
BRANCH   2   3
HETATM    3  C   UNL     1      -7.894  16.115  68.729  1.00  0.00    -0.203 A  
HETATM    4  C   UNL     1      -9.053  16.483  68.044  1.00  0.00    -0.209 A  
HETATM    5  C   UNL     1      -9.969  15.510  67.634  1.00  0.00    -0.233 A  
HETATM    6  O   UNL     1     -11.140  15.947  67.076  1.00  0.00    -0.253 OA 
HETATM    7  C   UNL     1      -9.719  14.150  67.850  1.00  0.00    -0.224 A  
HETATM    8  C   UNL     1      -7.615  14.765  68.928  1.00  0.00    -0.144 A  
HETATM    9  C   UNL     1      -8.521  13.790  68.495  1.00  0.00    -0.117 A  
HETATM   10  H   UNL     1     -11.762  15.286  66.797  1.00  0.00     0.000 HD 
BRANCH   7  11
HETATM   11  C   UNL     1     -10.658  13.041  67.519  1.00  0.00    -0.230 C  
HETATM   12  O   UNL     1     -11.512  12.722  68.350  1.00  0.00    -0.265 OA 
BRANCH  11  13
HETATM   13  C   UNL     1     -10.691  12.337  66.211  1.00  0.00    -0.293 A  
HETATM   14  C   UNL     1     -11.724  12.685  65.326  1.00  0.00    -0.417 A  
HETATM   15  C   UNL     1     -11.805  12.097  64.062  1.00  0.00    -0.523 A  
HETATM   16  C   UNL     1     -10.853  11.157  63.674  1.00  0.00    -0.319 A  
HETATM   17  C   UNL     1      -9.845  10.774  64.563  1.00  0.00    -0.369 A  
HETATM   18  C   UNL     1      -9.779  11.344  65.836  1.00  0.00    -0.227 A  
HETATM   19  O   UNL     1      -8.824  10.910  66.714  1.00  0.00    -0.140 OA 
HETATM   20  H   UNL     1      -8.205  10.236  66.460  1.00  0.00     0.000 HD 
ENDBRANCH  11  13
ENDBRANCH   7  11
ENDBRANCH   2   3
TORSDOF 3
ENDMDL
MODEL      183
REMARK 921   NORMALIZED FREE ENERGY PREDICTED BY IDOCK:   -3.94 KCAL/MOL
REMARK 922        TOTAL FREE ENERGY PREDICTED BY IDOCK:   -5.25 KCAL/MOL
REMARK 923 INTER-LIGAND FREE ENERGY PREDICTED BY IDOCK:   -5.38 KCAL/MOL
REMARK 924 INTRA-LIGAND FREE ENERGY PREDICTED BY IDOCK:    0.12 KCAL/MOL
REMARK 927      BINDING AFFINITY PREDICTED BY RF-SCORE:    0.00 PKD
ROOT
HETATM    1  C   UNL     1      -7.647  10.566  66.668  1.00  0.00    -0.120 C  
HETATM    2  O   UNL     1      -9.012  10.970  66.751  1.00  0.00    -0.151 OA 
ENDROOT
BRANCH   2   3
HETATM    3  C   UNL     1      -9.233  12.291  66.470  1.00  0.00    -0.219 A  
HETATM    4  C   UNL     1      -8.577  13.349  67.100  1.00  0.00    -0.201 A  
HETATM    5  C   UNL     1      -8.919  14.671  66.799  1.00  0.00    -0.257 A  
HETATM    6  O   UNL     1      -8.323  15.656  67.539  1.00  0.00    -0.155 OA 
HETATM    7  C   UNL     1      -9.882  14.961  65.825  1.00  0.00    -0.380 A  
HETATM    8  C   UNL     1     -10.173  12.561  65.478  1.00  0.00    -0.295 A  
HETATM    9  C   UNL     1     -10.498  13.884  65.161  1.00  0.00    -0.409 A  
HETATM   10  H   UNL     1      -8.555  16.554  67.334  1.00  0.00     0.000 HD 
BRANCH   7  11
HETATM   11  C   UNL     1     -10.370  16.326  65.481  1.00  0.00    -0.338 C  
HETATM   12  O   UNL     1     -11.021  16.477  64.444  1.00  0.00    -0.872 OA 
BRANCH  11  13
HETATM   13  C   UNL     1     -10.198  17.518  66.351  1.00  0.00    -0.354 A  
HETATM   14  C   UNL     1      -9.436  18.579  65.834  1.00  0.00     0.139 A  
HETATM   15  C   UNL     1      -9.258  19.750  66.574  1.00  0.00    -0.466 A  
HETATM   16  C   UNL     1      -9.838  19.869  67.834  1.00  0.00    -0.529 A  
HETATM   17  C   UNL     1     -10.562  18.803  68.374  1.00  0.00    -0.125 A  
HETATM   18  C   UNL     1     -10.721  17.622  67.645  1.00  0.00    -0.314 A  
HETATM   19  O   UNL     1     -11.379  16.567  68.216  1.00  0.00    -0.331 OA 
HETATM   20  H   UNL     1     -11.734  16.638  69.094  1.00  0.00     0.000 HD 
ENDBRANCH  11  13
ENDBRANCH   7  11
ENDBRANCH   2   3
TORSDOF 3
ENDMDL
MODEL      184
REMARK 921   NORMALIZED FREE ENERGY PREDICTED BY IDOCK:   -3.94 KCAL/MOL
REMARK 922        TOTAL FREE ENERGY PREDICTED BY IDOCK:   -5.25 KCAL/MOL
REMARK 923 INTER-LIGAND FREE ENERGY PREDICTED BY IDOCK:   -4.55 KCAL/MOL
REMARK 924 INTRA-LIGAND FREE ENERGY PREDICTED BY IDOCK:   -0.70 KCAL/MOL
REMARK 927      BINDING AFFINITY PREDICTED BY RF-SCORE:    0.00 PKD
ROOT
HETATM    1  C   UNL     1     -10.675  16.064  69.832  1.00  0.00    -0.334 C  
HETATM    2  O   UNL     1     -11.555  15.213  69.100  1.00  0.00    -0.287 OA 
ENDROOT
BRANCH   2   3
HETATM    3  C   UNL     1     -10.953  14.116  68.545  1.00  0.00    -0.254 A  
HETATM    4  C   UNL     1      -9.647  14.099  68.055  1.00  0.00    -0.218 A  
HETATM    5  C   UNL     1      -9.139  12.952  67.438  1.00  0.00    -0.197 A  
HETATM    6  O   UNL     1      -7.896  13.042  66.875  1.00  0.00    -0.395 OA 
HETATM    7  C   UNL     1      -9.907  11.784  67.348  1.00  0.00    -0.189 A  
HETATM    8  C   UNL     1     -11.722  12.955  68.488  1.00  0.00    -0.374 A  
HETATM    9  C   UNL     1     -11.204  11.800  67.892  1.00  0.00    -0.331 A  
HETATM   10  H   UNL     1      -7.551  12.262  66.456  1.00  0.00     0.000 HD 
BRANCH   7  11
HETATM   11  C   UNL     1      -9.490  10.536  66.649  1.00  0.00    -0.168 C  
HETATM   12  O   UNL     1      -9.382   9.498  67.307  1.00  0.00    -0.132 OA 
BRANCH  11  13
HETATM   13  C   UNL     1      -9.272  10.433  65.183  1.00  0.00    -0.250 A  
HETATM   14  C   UNL     1     -10.040  11.275  64.363  1.00  0.00    -0.357 A  
HETATM   15  C   UNL     1      -9.868  11.266  62.977  1.00  0.00    -0.370 A  
HETATM   16  C   UNL     1      -8.928  10.415  62.402  1.00  0.00    -0.297 A  
HETATM   17  C   UNL     1      -8.189   9.543  63.205  1.00  0.00    -0.160 A  
HETATM   18  C   UNL     1      -8.377   9.535  64.589  1.00  0.00    -0.157 A  
HETATM   19  O   UNL     1      -7.690   8.630  65.351  1.00  0.00    -0.088 OA 
HETATM   20  H   UNL     1      -7.083   8.021  64.949  1.00  0.00     0.000 HD 
ENDBRANCH  11  13
ENDBRANCH   7  11
ENDBRANCH   2   3
TORSDOF 3
ENDMDL
MODEL      185
REMARK 921   NORMALIZED FREE ENERGY PREDICTED BY IDOCK:   -3.93 KCAL/MOL
REMARK 922        TOTAL FREE ENERGY PREDICTED BY IDOCK:   -5.25 KCAL/MOL
REMARK 923 INTER-LIGAND FREE ENERGY PREDICTED BY IDOCK:   -4.68 KCAL/MOL
REMARK 924 INTRA-LIGAND FREE ENERGY PREDICTED BY IDOCK:   -0.57 KCAL/MOL
REMARK 927      BINDING AFFINITY PREDICTED BY RF-SCORE:    0.00 PKD
ROOT
HETATM    1  C   UNL     1      -9.205   7.492  72.536  1.00  0.00    -0.147 C  
HETATM    2  O   UNL     1     -10.179   7.153  71.551  1.00  0.00    -0.198 OA 
ENDROOT
BRANCH   2   3
HETATM    3  C   UNL     1     -10.204   7.986  70.465  1.00  0.00    -0.198 A  
HETATM    4  C   UNL     1     -10.602   7.598  69.185  1.00  0.00    -0.195 A  
HETATM    5  C   UNL     1     -10.525   8.498  68.119  1.00  0.00    -0.182 A  
HETATM    6  O   UNL     1     -10.817   8.018  66.871  1.00  0.00    -0.386 OA 
HETATM    7  C   UNL     1     -10.103   9.818  68.321  1.00  0.00    -0.189 A  
HETATM    8  C   UNL     1      -9.808   9.303  70.690  1.00  0.00    -0.332 A  
HETATM    9  C   UNL     1      -9.755  10.210  69.626  1.00  0.00    -0.250 A  
HETATM   10  H   UNL     1     -10.765   8.630  66.147  1.00  0.00     0.000 HD 
BRANCH   7  11
HETATM   11  C   UNL     1      -9.917  10.833  67.246  1.00  0.00    -0.187 C  
HETATM   12  O   UNL     1      -9.455  10.469  66.162  1.00  0.00    -0.169 OA 
BRANCH  11  13
HETATM   13  C   UNL     1     -10.330  12.256  67.361  1.00  0.00    -0.219 A  
HETATM   14  C   UNL     1      -9.610  13.057  68.263  1.00  0.00    -0.213 A  
HETATM   15  C   UNL     1      -9.911  14.414  68.403  1.00  0.00    -0.234 A  
HETATM   16  C   UNL     1     -10.933  14.978  67.643  1.00  0.00    -0.305 A  
HETATM   17  C   UNL     1     -11.681  14.181  66.774  1.00  0.00    -0.432 A  
HETATM   18  C   UNL     1     -11.397  12.819  66.651  1.00  0.00    -0.316 A  
HETATM   19  O   UNL     1     -12.182  12.042  65.844  1.00  0.00    -0.531 OA 
HETATM   20  H   UNL     1     -12.906  12.424  65.362  1.00  0.00     0.000 HD 
ENDBRANCH  11  13
ENDBRANCH   7  11
ENDBRANCH   2   3
TORSDOF 3
ENDMDL
MODEL      186
REMARK 921   NORMALIZED FREE ENERGY PREDICTED BY IDOCK:   -3.93 KCAL/MOL
REMARK 922        TOTAL FREE ENERGY PREDICTED BY IDOCK:   -5.25 KCAL/MOL
REMARK 923 INTER-LIGAND FREE ENERGY PREDICTED BY IDOCK:   -4.39 KCAL/MOL
REMARK 924 INTRA-LIGAND FREE ENERGY PREDICTED BY IDOCK:   -0.85 KCAL/MOL
REMARK 927      BINDING AFFINITY PREDICTED BY RF-SCORE:    0.00 PKD
ROOT
HETATM    1  C   UNL     1     -11.870  13.768  67.112  1.00  0.00    -0.406 C  
HETATM    2  O   UNL     1     -10.993  12.875  66.429  1.00  0.00    -0.277 OA 
ENDROOT
BRANCH   2   3
HETATM    3  C   UNL     1     -10.504  11.857  67.201  1.00  0.00    -0.221 A  
HETATM    4  C   UNL     1      -9.536  12.017  68.193  1.00  0.00    -0.200 A  
HETATM    5  C   UNL     1      -9.041  10.907  68.883  1.00  0.00    -0.144 A  
HETATM    6  O   UNL     1      -8.010  11.120  69.756  1.00  0.00    -0.318 OA 
HETATM    7  C   UNL     1      -9.544   9.624  68.635  1.00  0.00    -0.154 A  
HETATM    8  C   UNL     1     -11.035  10.592  66.960  1.00  0.00    -0.247 A  
HETATM    9  C   UNL     1     -10.557   9.484  67.669  1.00  0.00    -0.329 A  
HETATM   10  H   UNL     1      -7.674  10.366  70.226  1.00  0.00     0.000 HD 
BRANCH   7  11
HETATM   11  C   UNL     1      -9.039   8.369  69.261  1.00  0.00    -0.150 C  
HETATM   12  O   UNL     1      -7.972   7.897  68.859  1.00  0.00    -0.118 OA 
BRANCH  11  13
HETATM   13  C   UNL     1      -9.697   7.682  70.402  1.00  0.00    -0.179 A  
HETATM   14  C   UNL     1     -10.521   6.586  70.098  1.00  0.00    -0.259 A  
HETATM   15  C   UNL     1     -11.145   5.864  71.117  1.00  0.00    -0.305 A  
HETATM   16  C   UNL     1     -10.951   6.231  72.446  1.00  0.00    -0.291 A  
HETATM   17  C   UNL     1     -10.167   7.345  72.757  1.00  0.00    -0.287 A  
HETATM   18  C   UNL     1      -9.561   8.083  71.737  1.00  0.00    -0.176 A  
HETATM   19  O   UNL     1      -8.850   9.206  72.057  1.00  0.00    -0.331 OA 
HETATM   20  H   UNL     1      -8.758   9.478  72.962  1.00  0.00     0.000 HD 
ENDBRANCH  11  13
ENDBRANCH   7  11
ENDBRANCH   2   3
TORSDOF 3
ENDMDL
MODEL      187
REMARK 921   NORMALIZED FREE ENERGY PREDICTED BY IDOCK:   -3.91 KCAL/MOL
REMARK 922        TOTAL FREE ENERGY PREDICTED BY IDOCK:   -5.21 KCAL/MOL
REMARK 923 INTER-LIGAND FREE ENERGY PREDICTED BY IDOCK:   -4.39 KCAL/MOL
REMARK 924 INTRA-LIGAND FREE ENERGY PREDICTED BY IDOCK:   -0.82 KCAL/MOL
REMARK 927      BINDING AFFINITY PREDICTED BY RF-SCORE:    0.00 PKD
ROOT
HETATM    1  C   UNL     1      -6.509  19.934  70.159  1.00  0.00    -0.279 C  
HETATM    2  O   UNL     1      -5.569  18.962  69.703  1.00  0.00    -0.206 OA 
ENDROOT
BRANCH   2   3
HETATM    3  C   UNL     1      -6.127  17.890  69.062  1.00  0.00    -0.216 A  
HETATM    4  C   UNL     1      -6.624  17.923  67.759  1.00  0.00    -0.193 A  
HETATM    5  C   UNL     1      -7.243  16.797  67.210  1.00  0.00    -0.172 A  
HETATM    6  O   UNL     1      -7.813  16.936  65.973  1.00  0.00    -0.376 OA 
HETATM    7  C   UNL     1      -7.329  15.601  67.931  1.00  0.00    -0.151 A  
HETATM    8  C   UNL     1      -6.179  16.700  69.785  1.00  0.00    -0.209 A  
HETATM    9  C   UNL     1      -6.778  15.565  69.225  1.00  0.00    -0.154 A  
HETATM   10  H   UNL     1      -8.234  16.170  65.601  1.00  0.00     0.000 HD 
BRANCH   7  11
HETATM   11  C   UNL     1      -8.030  14.369  67.470  1.00  0.00    -0.192 C  
HETATM   12  O   UNL     1      -7.357  13.368  67.210  1.00  0.00    -0.139 OA 
BRANCH  11  13
HETATM   13  C   UNL     1      -9.507  14.233  67.378  1.00  0.00    -0.211 A  
HETATM   14  C   UNL     1     -10.203  14.013  68.577  1.00  0.00    -0.237 A  
HETATM   15  C   UNL     1     -11.596  13.912  68.580  1.00  0.00    -0.363 A  
HETATM   16  C   UNL     1     -12.302  14.030  67.386  1.00  0.00    -0.150 A  
HETATM   17  C   UNL     1     -11.615  14.207  66.182  1.00  0.00    -0.377 A  
HETATM   18  C   UNL     1     -10.221  14.284  66.174  1.00  0.00    -0.307 A  
HETATM   19  O   UNL     1      -9.564  14.394  64.980  1.00  0.00    -0.462 OA 
HETATM   20  H   UNL     1     -10.048  14.429  64.164  1.00  0.00     0.000 HD 
ENDBRANCH  11  13
ENDBRANCH   7  11
ENDBRANCH   2   3
TORSDOF 3
ENDMDL
MODEL      188
REMARK 921   NORMALIZED FREE ENERGY PREDICTED BY IDOCK:   -3.89 KCAL/MOL
REMARK 922        TOTAL FREE ENERGY PREDICTED BY IDOCK:   -5.19 KCAL/MOL
REMARK 923 INTER-LIGAND FREE ENERGY PREDICTED BY IDOCK:   -4.58 KCAL/MOL
REMARK 924 INTRA-LIGAND FREE ENERGY PREDICTED BY IDOCK:   -0.61 KCAL/MOL
REMARK 927      BINDING AFFINITY PREDICTED BY RF-SCORE:    0.00 PKD
ROOT
HETATM    1  C   UNL     1     -14.049   8.128  71.836  1.00  0.00    -0.415 C  
HETATM    2  O   UNL     1     -13.209   9.190  72.286  1.00  0.00    -0.408 OA 
ENDROOT
BRANCH   2   3
HETATM    3  C   UNL     1     -12.319   9.645  71.351  1.00  0.00    -0.378 A  
HETATM    4  C   UNL     1     -12.637  10.549  70.337  1.00  0.00    -0.364 A  
HETATM    5  C   UNL     1     -11.680  10.903  69.382  1.00  0.00    -0.325 A  
HETATM    6  O   UNL     1     -12.092  11.699  68.348  1.00  0.00    -0.522 OA 
HETATM    7  C   UNL     1     -10.374  10.405  69.453  1.00  0.00    -0.259 A  
HETATM    8  C   UNL     1     -11.017   9.161  71.454  1.00  0.00    -0.414 A  
HETATM    9  C   UNL     1     -10.053   9.535  70.511  1.00  0.00    -0.347 A  
HETATM   10  H   UNL     1     -11.442  11.940  67.699  1.00  0.00     0.000 HD 
BRANCH   7  11
HETATM   11  C   UNL     1      -9.302  10.660  68.450  1.00  0.00    -0.163 C  
HETATM   12  O   UNL     1      -9.225   9.920  67.466  1.00  0.00    -0.134 OA 
BRANCH  11  13
HETATM   13  C   UNL     1      -8.358  11.806  68.509  1.00  0.00    -0.131 A  
HETATM   14  C   UNL     1      -8.702  12.954  67.777  1.00  0.00    -0.188 A  
HETATM   15  C   UNL     1      -7.887  14.087  67.810  1.00  0.00    -0.176 A  
HETATM   16  C   UNL     1      -6.723  14.082  68.575  1.00  0.00    -0.099 A  
HETATM   17  C   UNL     1      -6.351  12.931  69.274  1.00  0.00    -0.108 A  
HETATM   18  C   UNL     1      -7.153  11.788  69.222  1.00  0.00    -0.032 A  
HETATM   19  O   UNL     1      -6.740  10.652  69.861  1.00  0.00    -0.119 OA 
HETATM   20  H   UNL     1      -5.923  10.639  70.345  1.00  0.00     0.000 HD 
ENDBRANCH  11  13
ENDBRANCH   7  11
ENDBRANCH   2   3
TORSDOF 3
ENDMDL
MODEL      189
REMARK 921   NORMALIZED FREE ENERGY PREDICTED BY IDOCK:   -3.88 KCAL/MOL
REMARK 922        TOTAL FREE ENERGY PREDICTED BY IDOCK:   -5.18 KCAL/MOL
REMARK 923 INTER-LIGAND FREE ENERGY PREDICTED BY IDOCK:   -4.51 KCAL/MOL
REMARK 924 INTRA-LIGAND FREE ENERGY PREDICTED BY IDOCK:   -0.67 KCAL/MOL
REMARK 927      BINDING AFFINITY PREDICTED BY RF-SCORE:    0.00 PKD
ROOT
HETATM    1  C   UNL     1     -10.467  11.480  64.453  1.00  0.00    -0.325 C  
HETATM    2  O   UNL     1     -10.992  12.806  64.438  1.00  0.00    -0.319 OA 
ENDROOT
BRANCH   2   3
HETATM    3  C   UNL     1     -10.707  13.543  65.555  1.00  0.00    -0.290 A  
HETATM    4  C   UNL     1     -11.191  13.255  66.832  1.00  0.00    -0.332 A  
HETATM    5  C   UNL     1     -10.907  14.106  67.903  1.00  0.00    -0.245 A  
HETATM    6  O   UNL     1     -11.511  13.831  69.100  1.00  0.00    -0.262 OA 
HETATM    7  C   UNL     1     -10.089  15.229  67.732  1.00  0.00    -0.230 A  
HETATM    8  C   UNL     1      -9.869  14.641  65.372  1.00  0.00    -0.280 A  
HETATM    9  C   UNL     1      -9.565  15.479  66.450  1.00  0.00    -0.317 A  
HETATM   10  H   UNL     1     -11.317  14.409  69.828  1.00  0.00     0.000 HD 
BRANCH   7  11
HETATM   11  C   UNL     1      -9.783  16.237  68.786  1.00  0.00    -0.240 C  
HETATM   12  O   UNL     1     -10.612  16.429  69.679  1.00  0.00    -0.296 OA 
BRANCH  11  13
HETATM   13  C   UNL     1      -8.500  16.980  68.884  1.00  0.00    -0.193 A  
HETATM   14  C   UNL     1      -8.427  18.218  68.227  1.00  0.00    -0.309 A  
HETATM   15  C   UNL     1      -7.269  18.995  68.301  1.00  0.00    -0.306 A  
HETATM   16  C   UNL     1      -6.176  18.539  69.033  1.00  0.00    -0.248 A  
HETATM   17  C   UNL     1      -6.222  17.290  69.657  1.00  0.00    -0.232 A  
HETATM   18  C   UNL     1      -7.372  16.501  69.562  1.00  0.00    -0.001 A  
HETATM   19  O   UNL     1      -7.376  15.255  70.125  1.00  0.00    -0.083 OA 
HETATM   20  H   UNL     1      -6.611  14.930  70.585  1.00  0.00     0.000 HD 
ENDBRANCH  11  13
ENDBRANCH   7  11
ENDBRANCH   2   3
TORSDOF 3
ENDMDL
MODEL      190
REMARK 921   NORMALIZED FREE ENERGY PREDICTED BY IDOCK:   -3.88 KCAL/MOL
REMARK 922        TOTAL FREE ENERGY PREDICTED BY IDOCK:   -5.18 KCAL/MOL
REMARK 923 INTER-LIGAND FREE ENERGY PREDICTED BY IDOCK:   -4.84 KCAL/MOL
REMARK 924 INTRA-LIGAND FREE ENERGY PREDICTED BY IDOCK:   -0.34 KCAL/MOL
REMARK 927      BINDING AFFINITY PREDICTED BY RF-SCORE:    0.00 PKD
ROOT
HETATM    1  C   UNL     1     -10.191  16.823  66.812  1.00  0.00    -0.304 C  
HETATM    2  O   UNL     1     -10.978  15.876  67.532  1.00  0.00    -0.323 OA 
ENDROOT
BRANCH   2   3
HETATM    3  C   UNL     1     -10.718  14.569  67.223  1.00  0.00    -0.287 A  
HETATM    4  C   UNL     1      -9.504  13.928  67.473  1.00  0.00    -0.216 A  
HETATM    5  C   UNL     1      -9.302  12.609  67.057  1.00  0.00    -0.220 A  
HETATM    6  O   UNL     1      -8.051  12.082  67.227  1.00  0.00    -0.158 OA 
HETATM    7  C   UNL     1     -10.327  11.888  66.432  1.00  0.00    -0.252 A  
HETATM    8  C   UNL     1     -11.758  13.858  66.627  1.00  0.00    -0.417 A  
HETATM    9  C   UNL     1     -11.563  12.530  66.232  1.00  0.00    -0.449 A  
HETATM   10  H   UNL     1      -7.914  11.186  66.944  1.00  0.00     0.000 HD 
BRANCH   7  11
HETATM   11  C   UNL     1     -10.195  10.508  65.886  1.00  0.00    -0.245 C  
HETATM   12  O   UNL     1     -10.329  10.337  64.672  1.00  0.00    -0.266 OA 
BRANCH  11  13
HETATM   13  C   UNL     1      -9.830   9.319  66.700  1.00  0.00    -0.311 A  
HETATM   14  C   UNL     1      -8.826   8.481  66.189  1.00  0.00    -0.200 A  
HETATM   15  C   UNL     1      -8.399   7.364  66.910  1.00  0.00    -0.122 A  
HETATM   16  C   UNL     1      -8.972   7.077  68.146  1.00  0.00    -0.127 A  
HETATM   17  C   UNL     1     -10.000   7.882  68.644  1.00  0.00    -0.201 A  
HETATM   18  C   UNL     1     -10.445   8.985  67.912  1.00  0.00    -0.234 A  
HETATM   19  O   UNL     1     -11.494   9.723  68.386  1.00  0.00    -0.515 OA 
HETATM   20  H   UNL     1     -11.911   9.496  69.209  1.00  0.00     0.000 HD 
ENDBRANCH  11  13
ENDBRANCH   7  11
ENDBRANCH   2   3
TORSDOF 3
ENDMDL
MODEL      191
REMARK 921   NORMALIZED FREE ENERGY PREDICTED BY IDOCK:   -3.87 KCAL/MOL
REMARK 922        TOTAL FREE ENERGY PREDICTED BY IDOCK:   -5.17 KCAL/MOL
REMARK 923 INTER-LIGAND FREE ENERGY PREDICTED BY IDOCK:   -4.37 KCAL/MOL
REMARK 924 INTRA-LIGAND FREE ENERGY PREDICTED BY IDOCK:   -0.81 KCAL/MOL
REMARK 927      BINDING AFFINITY PREDICTED BY RF-SCORE:    0.00 PKD
ROOT
HETATM    1  C   UNL     1      -7.802   7.523  73.768  1.00  0.00    -0.131 C  
HETATM    2  O   UNL     1      -8.564   8.631  73.293  1.00  0.00    -0.375 OA 
ENDROOT
BRANCH   2   3
HETATM    3  C   UNL     1      -9.039   8.489  72.018  1.00  0.00    -0.247 A  
HETATM    4  C   UNL     1     -10.286   8.946  71.588  1.00  0.00    -0.415 A  
HETATM    5  C   UNL     1     -10.719   8.692  70.283  1.00  0.00    -0.227 A  
HETATM    6  O   UNL     1     -11.997   9.063  69.964  1.00  0.00    -0.427 OA 
HETATM    7  C   UNL     1      -9.894   8.027  69.368  1.00  0.00    -0.181 A  
HETATM    8  C   UNL     1      -8.194   7.850  71.113  1.00  0.00    -0.109 A  
HETATM    9  C   UNL     1      -8.620   7.617  69.800  1.00  0.00    -0.135 A  
HETATM   10  H   UNL     1     -12.291   8.890  69.078  1.00  0.00     0.000 HD 
BRANCH   7  11
HETATM   11  C   UNL     1     -10.285   7.643  67.982  1.00  0.00    -0.202 C  
HETATM   12  O   UNL     1     -11.123   6.752  67.830  1.00  0.00    -0.255 OA 
BRANCH  11  13
HETATM   13  C   UNL     1      -9.789   8.323  66.757  1.00  0.00    -0.333 A  
HETATM   14  C   UNL     1     -10.359   9.567  66.443  1.00  0.00    -0.243 A  
HETATM   15  C   UNL     1      -9.922  10.287  65.329  1.00  0.00    -0.387 A  
HETATM   16  C   UNL     1      -8.913   9.768  64.521  1.00  0.00    -0.278 A  
HETATM   17  C   UNL     1      -8.369   8.512  64.802  1.00  0.00    -0.163 A  
HETATM   18  C   UNL     1      -8.822   7.781  65.902  1.00  0.00    -0.142 A  
HETATM   19  O   UNL     1      -8.322   6.527  66.123  1.00  0.00    -0.117 OA 
HETATM   20  H   UNL     1      -7.667   6.159  65.543  1.00  0.00     0.000 HD 
ENDBRANCH  11  13
ENDBRANCH   7  11
ENDBRANCH   2   3
TORSDOF 3
ENDMDL
MODEL      192
REMARK 921   NORMALIZED FREE ENERGY PREDICTED BY IDOCK:   -3.86 KCAL/MOL
REMARK 922        TOTAL FREE ENERGY PREDICTED BY IDOCK:   -5.16 KCAL/MOL
REMARK 923 INTER-LIGAND FREE ENERGY PREDICTED BY IDOCK:   -4.56 KCAL/MOL
REMARK 924 INTRA-LIGAND FREE ENERGY PREDICTED BY IDOCK:   -0.60 KCAL/MOL
REMARK 927      BINDING AFFINITY PREDICTED BY RF-SCORE:    0.00 PKD
ROOT
HETATM    1  C   UNL     1      -6.041   6.881  65.676  1.00  0.00    -0.036 C  
HETATM    2  O   UNL     1      -5.896   8.279  65.920  1.00  0.00    -0.040 OA 
ENDROOT
BRANCH   2   3
HETATM    3  C   UNL     1      -6.973   9.036  65.545  1.00  0.00    -0.080 A  
HETATM    4  C   UNL     1      -7.137   9.597  64.278  1.00  0.00    -0.119 A  
HETATM    5  C   UNL     1      -8.236  10.417  64.007  1.00  0.00    -0.117 A  
HETATM    6  O   UNL     1      -8.272  11.031  62.784  1.00  0.00    -0.377 OA 
HETATM    7  C   UNL     1      -9.218  10.648  64.977  1.00  0.00    -0.245 A  
HETATM    8  C   UNL     1      -7.955   9.231  66.514  1.00  0.00    -0.104 A  
HETATM    9  C   UNL     1      -9.066  10.034  66.234  1.00  0.00    -0.180 A  
HETATM   10  H   UNL     1      -9.019  11.588  62.600  1.00  0.00     0.000 HD 
BRANCH   7  11
HETATM   11  C   UNL     1     -10.386  11.560  64.816  1.00  0.00    -0.289 C  
HETATM   12  O   UNL     1     -11.170  11.358  63.885  1.00  0.00    -0.386 OA 
BRANCH  11  13
HETATM   13  C   UNL     1     -10.722  12.660  65.757  1.00  0.00    -0.295 A  
HETATM   14  C   UNL     1     -10.198  13.930  65.466  1.00  0.00    -0.348 A  
HETATM   15  C   UNL     1     -10.497  15.024  66.280  1.00  0.00    -0.309 A  
HETATM   16  C   UNL     1     -11.321  14.857  67.390  1.00  0.00    -0.354 A  
HETATM   17  C   UNL     1     -11.814  13.590  67.711  1.00  0.00    -0.398 A  
HETATM   18  C   UNL     1     -11.496  12.490  66.911  1.00  0.00    -0.353 A  
HETATM   19  O   UNL     1     -11.935  11.248  67.277  1.00  0.00    -0.529 OA 
HETATM   20  H   UNL     1     -12.460  11.132  68.060  1.00  0.00     0.000 HD 
ENDBRANCH  11  13
ENDBRANCH   7  11
ENDBRANCH   2   3
TORSDOF 3
ENDMDL
MODEL      193
REMARK 921   NORMALIZED FREE ENERGY PREDICTED BY IDOCK:   -3.85 KCAL/MOL
REMARK 922        TOTAL FREE ENERGY PREDICTED BY IDOCK:   -5.14 KCAL/MOL
REMARK 923 INTER-LIGAND FREE ENERGY PREDICTED BY IDOCK:   -4.28 KCAL/MOL
REMARK 924 INTRA-LIGAND FREE ENERGY PREDICTED BY IDOCK:   -0.86 KCAL/MOL
REMARK 927      BINDING AFFINITY PREDICTED BY RF-SCORE:    0.00 PKD
ROOT
HETATM    1  C   UNL     1      -7.009   7.002  67.179  1.00  0.00    -0.078 C  
HETATM    2  O   UNL     1      -7.411   7.780  68.305  1.00  0.00    -0.098 OA 
ENDROOT
BRANCH   2   3
HETATM    3  C   UNL     1      -8.323   8.761  68.022  1.00  0.00    -0.119 A  
HETATM    4  C   UNL     1      -8.874   8.982  66.760  1.00  0.00    -0.144 A  
HETATM    5  C   UNL     1      -9.744  10.055  66.547  1.00  0.00    -0.200 A  
HETATM    6  O   UNL     1     -10.152  10.286  65.262  1.00  0.00    -0.303 OA 
HETATM    7  C   UNL     1     -10.123  10.893  67.603  1.00  0.00    -0.206 A  
HETATM    8  C   UNL     1      -8.711   9.567  69.090  1.00  0.00    -0.146 A  
HETATM    9  C   UNL     1      -9.601  10.626  68.881  1.00  0.00    -0.204 A  
HETATM   10  H   UNL     1     -10.743  11.015  65.118  1.00  0.00     0.000 HD 
BRANCH   7  11
HETATM   11  C   UNL     1     -10.984  12.103  67.471  1.00  0.00    -0.257 C  
HETATM   12  O   UNL     1     -12.197  11.989  67.667  1.00  0.00    -0.484 OA 
BRANCH  11  13
HETATM   13  C   UNL     1     -10.467  13.469  67.198  1.00  0.00    -0.256 A  
HETATM   14  C   UNL     1     -10.384  14.349  68.289  1.00  0.00    -0.239 A  
HETATM   15  C   UNL     1      -9.874  15.638  68.123  1.00  0.00    -0.212 A  
HETATM   16  C   UNL     1      -9.445  16.057  66.866  1.00  0.00    -0.242 A  
HETATM   17  C   UNL     1      -9.562  15.203  65.766  1.00  0.00    -0.344 A  
HETATM   18  C   UNL     1     -10.094  13.921  65.927  1.00  0.00    -0.317 A  
HETATM   19  O   UNL     1     -10.260  13.124  64.828  1.00  0.00    -0.435 OA 
HETATM   20  H   UNL     1     -10.007  13.431  63.966  1.00  0.00     0.000 HD 
ENDBRANCH  11  13
ENDBRANCH   7  11
ENDBRANCH   2   3
TORSDOF 3
ENDMDL
MODEL      194
REMARK 921   NORMALIZED FREE ENERGY PREDICTED BY IDOCK:   -3.84 KCAL/MOL
REMARK 922        TOTAL FREE ENERGY PREDICTED BY IDOCK:   -5.13 KCAL/MOL
REMARK 923 INTER-LIGAND FREE ENERGY PREDICTED BY IDOCK:   -4.39 KCAL/MOL
REMARK 924 INTRA-LIGAND FREE ENERGY PREDICTED BY IDOCK:   -0.75 KCAL/MOL
REMARK 927      BINDING AFFINITY PREDICTED BY RF-SCORE:    0.00 PKD
ROOT
HETATM    1  C   UNL     1      -5.622  16.358  69.362  1.00  0.00    -0.139 C  
HETATM    2  O   UNL     1      -6.460  16.656  68.247  1.00  0.00    -0.128 OA 
ENDROOT
BRANCH   2   3
HETATM    3  C   UNL     1      -7.409  15.708  67.979  1.00  0.00    -0.127 A  
HETATM    4  C   UNL     1      -8.121  15.625  66.782  1.00  0.00    -0.280 A  
HETATM    5  C   UNL     1      -9.125  14.666  66.623  1.00  0.00    -0.258 A  
HETATM    6  O   UNL     1      -9.864  14.717  65.472  1.00  0.00    -0.397 OA 
HETATM    7  C   UNL     1      -9.399  13.738  67.634  1.00  0.00    -0.213 A  
HETATM    8  C   UNL     1      -7.649  14.775  68.985  1.00  0.00    -0.141 A  
HETATM    9  C   UNL     1      -8.639  13.800  68.816  1.00  0.00     0.029 A  
HETATM   10  H   UNL     1     -10.546  14.065  65.364  1.00  0.00     0.000 HD 
BRANCH   7  11
HETATM   11  C   UNL     1     -10.492  12.725  67.596  1.00  0.00    -0.220 C  
HETATM   12  O   UNL     1     -11.075  12.524  66.528  1.00  0.00    -0.264 OA 
BRANCH  11  13
HETATM   13  C   UNL     1     -10.880  11.872  68.750  1.00  0.00    -0.270 A  
HETATM   14  C   UNL     1     -11.870  12.374  69.610  1.00  0.00    -0.380 A  
HETATM   15  C   UNL     1     -12.317  11.618  70.695  1.00  0.00    -0.437 A  
HETATM   16  C   UNL     1     -11.778  10.356  70.929  1.00  0.00    -0.455 A  
HETATM   17  C   UNL     1     -10.763   9.864  70.103  1.00  0.00    -0.361 A  
HETATM   18  C   UNL     1     -10.299  10.630  69.032  1.00  0.00    -0.218 A  
HETATM   19  O   UNL     1      -9.262  10.160  68.274  1.00  0.00    -0.127 OA 
HETATM   20  H   UNL     1      -8.867   9.317  68.465  1.00  0.00     0.000 HD 
ENDBRANCH  11  13
ENDBRANCH   7  11
ENDBRANCH   2   3
TORSDOF 3
ENDMDL
MODEL      195
REMARK 921   NORMALIZED FREE ENERGY PREDICTED BY IDOCK:   -3.82 KCAL/MOL
REMARK 922        TOTAL FREE ENERGY PREDICTED BY IDOCK:   -5.12 KCAL/MOL
REMARK 923 INTER-LIGAND FREE ENERGY PREDICTED BY IDOCK:   -4.26 KCAL/MOL
REMARK 924 INTRA-LIGAND FREE ENERGY PREDICTED BY IDOCK:   -0.86 KCAL/MOL
REMARK 927      BINDING AFFINITY PREDICTED BY RF-SCORE:    0.00 PKD
ROOT
HETATM    1  C   UNL     1      -9.216   5.270  67.431  1.00  0.00    -0.113 C  
HETATM    2  O   UNL     1      -8.519   6.196  68.263  1.00  0.00    -0.113 OA 
ENDROOT
BRANCH   2   3
HETATM    3  C   UNL     1      -9.153   7.398  68.430  1.00  0.00    -0.132 A  
HETATM    4  C   UNL     1      -9.875   7.754  69.570  1.00  0.00    -0.179 A  
HETATM    5  C   UNL     1     -10.551   8.976  69.624  1.00  0.00    -0.224 A  
HETATM    6  O   UNL     1     -11.337   9.209  70.719  1.00  0.00    -0.258 OA 
HETATM    7  C   UNL     1     -10.473   9.888  68.565  1.00  0.00    -0.232 A  
HETATM    8  C   UNL     1      -9.041   8.305  67.378  1.00  0.00    -0.155 A  
HETATM    9  C   UNL     1      -9.699   9.538  67.444  1.00  0.00    -0.201 A  
HETATM   10  H   UNL     1     -11.796  10.040  70.756  1.00  0.00     0.000 HD 
BRANCH   7  11
HETATM   11  C   UNL     1     -11.210  11.181  68.490  1.00  0.00    -0.258 C  
HETATM   12  O   UNL     1     -12.221  11.326  69.182  1.00  0.00    -0.379 OA 
BRANCH  11  13
HETATM   13  C   UNL     1     -10.763  12.352  67.692  1.00  0.00    -0.248 A  
HETATM   14  C   UNL     1      -9.697  13.105  68.207  1.00  0.00    -0.223 A  
HETATM   15  C   UNL     1      -9.193  14.199  67.500  1.00  0.00    -0.192 A  
HETATM   16  C   UNL     1      -9.752  14.547  66.273  1.00  0.00    -0.330 A  
HETATM   17  C   UNL     1     -10.840  13.829  65.771  1.00  0.00    -0.277 A  
HETATM   18  C   UNL     1     -11.361  12.750  66.490  1.00  0.00    -0.322 A  
HETATM   19  O   UNL     1     -12.466  12.100  66.013  1.00  0.00    -0.421 OA 
HETATM   20  H   UNL     1     -12.871  12.371  65.198  1.00  0.00     0.000 HD 
ENDBRANCH  11  13
ENDBRANCH   7  11
ENDBRANCH   2   3
TORSDOF 3
ENDMDL
MODEL      196
REMARK 921   NORMALIZED FREE ENERGY PREDICTED BY IDOCK:   -3.82 KCAL/MOL
REMARK 922        TOTAL FREE ENERGY PREDICTED BY IDOCK:   -5.12 KCAL/MOL
REMARK 923 INTER-LIGAND FREE ENERGY PREDICTED BY IDOCK:   -4.51 KCAL/MOL
REMARK 924 INTRA-LIGAND FREE ENERGY PREDICTED BY IDOCK:   -0.60 KCAL/MOL
REMARK 927      BINDING AFFINITY PREDICTED BY RF-SCORE:    0.00 PKD
ROOT
HETATM    1  C   UNL     1      -8.201   8.837  64.527  1.00  0.00    -0.167 C  
HETATM    2  O   UNL     1      -8.311  10.004  65.340  1.00  0.00    -0.138 OA 
ENDROOT
BRANCH   2   3
HETATM    3  C   UNL     1      -8.583   9.755  66.658  1.00  0.00    -0.128 A  
HETATM    4  C   UNL     1      -8.213   8.590  67.330  1.00  0.00    -0.109 A  
HETATM    5  C   UNL     1      -8.597   8.390  68.659  1.00  0.00    -0.132 A  
HETATM    6  O   UNL     1      -8.304   7.176  69.220  1.00  0.00    -0.130 OA 
HETATM    7  C   UNL     1      -9.309   9.372  69.358  1.00  0.00    -0.172 A  
HETATM    8  C   UNL     1      -9.267  10.755  67.345  1.00  0.00    -0.156 A  
HETATM    9  C   UNL     1      -9.630  10.564  68.683  1.00  0.00    -0.171 A  
HETATM   10  H   UNL     1      -8.565   7.040  70.123  1.00  0.00     0.000 HD 
BRANCH   7  11
HETATM   11  C   UNL     1      -9.828   9.231  70.748  1.00  0.00    -0.283 C  
HETATM   12  O   UNL     1      -9.045   9.385  71.689  1.00  0.00    -0.254 OA 
BRANCH  11  13
HETATM   13  C   UNL     1     -11.255   8.995  71.086  1.00  0.00    -0.375 A  
HETATM   14  C   UNL     1     -11.688   7.660  71.129  1.00  0.00    -0.311 A  
HETATM   15  C   UNL     1     -13.005   7.351  71.475  1.00  0.00    -0.421 A  
HETATM   16  C   UNL     1     -13.899   8.375  71.780  1.00  0.00    -0.458 A  
HETATM   17  C   UNL     1     -13.489   9.709  71.700  1.00  0.00    -0.455 A  
HETATM   18  C   UNL     1     -12.178  10.019  71.330  1.00  0.00    -0.402 A  
HETATM   19  O   UNL     1     -11.815  11.330  71.195  1.00  0.00    -0.248 OA 
HETATM   20  H   UNL     1     -12.441  12.025  71.360  1.00  0.00     0.000 HD 
ENDBRANCH  11  13
ENDBRANCH   7  11
ENDBRANCH   2   3
TORSDOF 3
ENDMDL
MODEL      197
REMARK 921   NORMALIZED FREE ENERGY PREDICTED BY IDOCK:   -3.79 KCAL/MOL
REMARK 922        TOTAL FREE ENERGY PREDICTED BY IDOCK:   -5.08 KCAL/MOL
REMARK 923 INTER-LIGAND FREE ENERGY PREDICTED BY IDOCK:   -4.31 KCAL/MOL
REMARK 924 INTRA-LIGAND FREE ENERGY PREDICTED BY IDOCK:   -0.76 KCAL/MOL
REMARK 927      BINDING AFFINITY PREDICTED BY RF-SCORE:    0.00 PKD
ROOT
HETATM    1  C   UNL     1      -9.692   6.947  72.366  1.00  0.00    -0.153 C  
HETATM    2  O   UNL     1     -10.309   6.474  71.171  1.00  0.00    -0.201 OA 
ENDROOT
BRANCH   2   3
HETATM    3  C   UNL     1      -9.974   7.173  70.043  1.00  0.00    -0.179 A  
HETATM    4  C   UNL     1     -10.574   6.988  68.797  1.00  0.00    -0.235 A  
HETATM    5  C   UNL     1     -10.118   7.697  67.682  1.00  0.00    -0.192 A  
HETATM    6  O   UNL     1     -10.669   7.380  66.470  1.00  0.00    -0.478 OA 
HETATM    7  C   UNL     1      -9.093   8.642  67.801  1.00  0.00    -0.143 A  
HETATM    8  C   UNL     1      -8.972   8.129  70.186  1.00  0.00    -0.146 A  
HETATM    9  C   UNL     1      -8.532   8.856  69.074  1.00  0.00    -0.133 A  
HETATM   10  H   UNL     1     -10.359   7.862  65.712  1.00  0.00     0.000 HD 
BRANCH   7  11
HETATM   11  C   UNL     1      -8.485   9.397  66.668  1.00  0.00    -0.126 C  
HETATM   12  O   UNL     1      -7.312   9.164  66.365  1.00  0.00    -0.090 OA 
BRANCH  11  13
HETATM   13  C   UNL     1      -9.225  10.363  65.816  1.00  0.00    -0.210 A  
HETATM   14  C   UNL     1      -9.693  11.533  66.436  1.00  0.00    -0.231 A  
HETATM   15  C   UNL     1     -10.365  12.508  65.697  1.00  0.00    -0.294 A  
HETATM   16  C   UNL     1     -10.575  12.321  64.333  1.00  0.00    -0.360 A  
HETATM   17  C   UNL     1     -10.151  11.142  63.715  1.00  0.00    -0.416 A  
HETATM   18  C   UNL     1      -9.499  10.155  64.459  1.00  0.00    -0.303 A  
HETATM   19  O   UNL     1      -9.148   8.982  63.850  1.00  0.00    -0.421 OA 
HETATM   20  H   UNL     1      -9.334   8.840  62.930  1.00  0.00     0.000 HD 
ENDBRANCH  11  13
ENDBRANCH   7  11
ENDBRANCH   2   3
TORSDOF 3
ENDMDL
MODEL      198
REMARK 921   NORMALIZED FREE ENERGY PREDICTED BY IDOCK:   -3.77 KCAL/MOL
REMARK 922        TOTAL FREE ENERGY PREDICTED BY IDOCK:   -5.05 KCAL/MOL
REMARK 923 INTER-LIGAND FREE ENERGY PREDICTED BY IDOCK:   -4.26 KCAL/MOL
REMARK 924 INTRA-LIGAND FREE ENERGY PREDICTED BY IDOCK:   -0.79 KCAL/MOL
REMARK 927      BINDING AFFINITY PREDICTED BY RF-SCORE:    0.00 PKD
ROOT
HETATM    1  C   UNL     1      -7.221   6.482  70.941  1.00  0.00    -0.071 C  
HETATM    2  O   UNL     1      -8.530   6.673  71.474  1.00  0.00    -0.120 OA 
ENDROOT
BRANCH   2   3
HETATM    3  C   UNL     1      -9.300   7.569  70.783  1.00  0.00    -0.162 A  
HETATM    4  C   UNL     1      -9.809   7.347  69.503  1.00  0.00    -0.165 A  
HETATM    5  C   UNL     1     -10.526   8.350  68.845  1.00  0.00    -0.189 A  
HETATM    6  O   UNL     1     -10.892   8.110  67.548  1.00  0.00    -0.486 OA 
HETATM    7  C   UNL     1     -10.795   9.572  69.473  1.00  0.00    -0.243 A  
HETATM    8  C   UNL     1      -9.582   8.768  71.435  1.00  0.00    -0.337 A  
HETATM    9  C   UNL     1     -10.320   9.763  70.783  1.00  0.00    -0.298 A  
HETATM   10  H   UNL     1     -11.379   8.792  67.101  1.00  0.00     0.000 HD 
BRANCH   7  11
HETATM   11  C   UNL     1     -11.484  10.730  68.837  1.00  0.00    -0.293 C  
HETATM   12  O   UNL     1     -12.704  10.844  68.981  1.00  0.00    -0.239 OA 
BRANCH  11  13
HETATM   13  C   UNL     1     -10.786  11.815  68.101  1.00  0.00    -0.247 A  
HETATM   14  C   UNL     1     -10.742  13.077  68.715  1.00  0.00    -0.250 A  
HETATM   15  C   UNL     1     -10.073  14.140  68.106  1.00  0.00    -0.239 A  
HETATM   16  C   UNL     1      -9.444  13.950  66.878  1.00  0.00    -0.263 A  
HETATM   17  C   UNL     1      -9.517  12.710  66.239  1.00  0.00    -0.207 A  
HETATM   18  C   UNL     1     -10.207  11.653  66.836  1.00  0.00    -0.214 A  
HETATM   19  O   UNL     1     -10.321  10.466  66.166  1.00  0.00    -0.242 OA 
HETATM   20  H   UNL     1      -9.929  10.356  65.309  1.00  0.00     0.000 HD 
ENDBRANCH  11  13
ENDBRANCH   7  11
ENDBRANCH   2   3
TORSDOF 3
ENDMDL
MODEL      199
REMARK 921   NORMALIZED FREE ENERGY PREDICTED BY IDOCK:   -3.77 KCAL/MOL
REMARK 922        TOTAL FREE ENERGY PREDICTED BY IDOCK:   -5.05 KCAL/MOL
REMARK 923 INTER-LIGAND FREE ENERGY PREDICTED BY IDOCK:   -4.33 KCAL/MOL
REMARK 924 INTRA-LIGAND FREE ENERGY PREDICTED BY IDOCK:   -0.72 KCAL/MOL
REMARK 927      BINDING AFFINITY PREDICTED BY RF-SCORE:    0.00 PKD
ROOT
HETATM    1  C   UNL     1      -6.969  19.395  66.749  1.00  0.00    -0.196 C  
HETATM    2  O   UNL     1      -6.601  18.159  67.358  1.00  0.00    -0.181 OA 
ENDROOT
BRANCH   2   3
HETATM    3  C   UNL     1      -7.656  17.360  67.706  1.00  0.00    -0.194 A  
HETATM    4  C   UNL     1      -8.822  17.820  68.318  1.00  0.00    -0.277 A  
HETATM    5  C   UNL     1      -9.819  16.920  68.704  1.00  0.00    -0.270 A  
HETATM    6  O   UNL     1     -10.880  17.424  69.406  1.00  0.00    -0.336 OA 
HETATM    7  C   UNL     1      -9.695  15.552  68.437  1.00  0.00    -0.203 A  
HETATM    8  C   UNL     1      -7.527  16.006  67.407  1.00  0.00    -0.208 A  
HETATM    9  C   UNL     1      -8.537  15.108  67.773  1.00  0.00    -0.157 A  
HETATM   10  H   UNL     1     -11.558  16.812  69.669  1.00  0.00     0.000 HD 
BRANCH   7  11
HETATM   11  C   UNL     1     -10.661  14.502  68.869  1.00  0.00    -0.249 C  
HETATM   12  O   UNL     1     -11.299  14.678  69.910  1.00  0.00    -0.255 OA 
BRANCH  11  13
HETATM   13  C   UNL     1     -10.973  13.281  68.082  1.00  0.00    -0.278 A  
HETATM   14  C   UNL     1     -11.135  13.439  66.696  1.00  0.00    -0.310 A  
HETATM   15  C   UNL     1     -11.393  12.335  65.881  1.00  0.00    -0.406 A  
HETATM   16  C   UNL     1     -11.491  11.065  66.445  1.00  0.00     0.279 A  
HETATM   17  C   UNL     1     -11.373  10.903  67.828  1.00  0.00    -0.366 A  
HETATM   18  C   UNL     1     -11.139  12.010  68.647  1.00  0.00    -0.250 A  
HETATM   19  O   UNL     1     -11.089  11.840  70.003  1.00  0.00    -0.475 OA 
HETATM   20  H   UNL     1     -11.202  10.979  70.386  1.00  0.00     0.000 HD 
ENDBRANCH  11  13
ENDBRANCH   7  11
ENDBRANCH   2   3
TORSDOF 3
ENDMDL
MODEL      200
REMARK 921   NORMALIZED FREE ENERGY PREDICTED BY IDOCK:   -3.75 KCAL/MOL
REMARK 922        TOTAL FREE ENERGY PREDICTED BY IDOCK:   -5.04 KCAL/MOL
REMARK 923 INTER-LIGAND FREE ENERGY PREDICTED BY IDOCK:   -4.30 KCAL/MOL
REMARK 924 INTRA-LIGAND FREE ENERGY PREDICTED BY IDOCK:   -0.74 KCAL/MOL
REMARK 927      BINDING AFFINITY PREDICTED BY RF-SCORE:    0.00 PKD
ROOT
HETATM    1  C   UNL     1     -11.602  15.380  68.580  1.00  0.00    -0.359 C  
HETATM    2  O   UNL     1     -12.281  14.128  68.666  1.00  0.00    -0.313 OA 
ENDROOT
BRANCH   2   3
HETATM    3  C   UNL     1     -11.581  13.066  68.163  1.00  0.00    -0.341 A  
HETATM    4  C   UNL     1     -10.673  12.304  68.898  1.00  0.00    -0.210 A  
HETATM    5  C   UNL     1      -9.947  11.280  68.282  1.00  0.00    -0.195 A  
HETATM    6  O   UNL     1      -8.988  10.653  69.029  1.00  0.00    -0.167 OA 
HETATM    7  C   UNL     1     -10.156  10.963  66.934  1.00  0.00    -0.253 A  
HETATM    8  C   UNL     1     -11.822  12.746  66.828  1.00  0.00    -0.452 A  
HETATM    9  C   UNL     1     -11.112  11.705  66.218  1.00  0.00    -0.345 A  
HETATM   10  H   UNL     1      -8.496   9.958  68.610  1.00  0.00     0.000 HD 
BRANCH   7  11
HETATM   11  C   UNL     1      -9.388   9.944  66.164  1.00  0.00    -0.181 C  
HETATM   12  O   UNL     1      -8.588  10.329  65.307  1.00  0.00    -0.152 OA 
BRANCH  11  13
HETATM   13  C   UNL     1      -9.459   8.481  66.413  1.00  0.00    -0.297 A  
HETATM   14  C   UNL     1     -10.710   7.956  66.777  1.00  0.00    -0.097 A  
HETATM   15  C   UNL     1     -10.869   6.586  66.993  1.00  0.00    -0.465 A  
HETATM   16  C   UNL     1      -9.779   5.730  66.847  1.00  0.00    -0.163 A  
HETATM   17  C   UNL     1      -8.522   6.248  66.526  1.00  0.00    -0.121 A  
HETATM   18  C   UNL     1      -8.357   7.622  66.334  1.00  0.00    -0.129 A  
HETATM   19  O   UNL     1      -7.106   8.116  66.083  1.00  0.00    -0.061 OA 
HETATM   20  H   UNL     1      -6.358   7.533  66.029  1.00  0.00     0.000 HD 
ENDBRANCH  11  13
ENDBRANCH   7  11
ENDBRANCH   2   3
TORSDOF 3
ENDMDL
MODEL      201
REMARK 921   NORMALIZED FREE ENERGY PREDICTED BY IDOCK:   -3.75 KCAL/MOL
REMARK 922        TOTAL FREE ENERGY PREDICTED BY IDOCK:   -5.04 KCAL/MOL
REMARK 923 INTER-LIGAND FREE ENERGY PREDICTED BY IDOCK:   -4.27 KCAL/MOL
REMARK 924 INTRA-LIGAND FREE ENERGY PREDICTED BY IDOCK:   -0.76 KCAL/MOL
REMARK 927      BINDING AFFINITY PREDICTED BY RF-SCORE:    0.00 PKD
ROOT
HETATM    1  C   UNL     1     -10.647  18.705  67.340  1.00  0.00    -0.441 C  
HETATM    2  O   UNL     1     -10.767  17.580  68.208  1.00  0.00    -0.371 OA 
ENDROOT
BRANCH   2   3
HETATM    3  C   UNL     1     -10.052  16.481  67.817  1.00  0.00    -0.264 A  
HETATM    4  C   UNL     1     -10.180  15.862  66.573  1.00  0.00    -0.297 A  
HETATM    5  C   UNL     1      -9.460  14.699  66.286  1.00  0.00    -0.293 A  
HETATM    6  O   UNL     1      -9.722  14.077  65.095  1.00  0.00    -0.578 OA 
HETATM    7  C   UNL     1      -8.558  14.164  67.214  1.00  0.00    -0.231 A  
HETATM    8  C   UNL     1      -9.139  15.979  68.742  1.00  0.00    -0.222 A  
HETATM    9  C   UNL     1      -8.401  14.828  68.444  1.00  0.00    -0.154 A  
HETATM   10  H   UNL     1      -9.233  13.287  64.900  1.00  0.00     0.000 HD 
BRANCH   7  11
HETATM   11  C   UNL     1      -7.799  12.894  67.038  1.00  0.00     0.004 C  
HETATM   12  O   UNL     1      -6.582  12.955  66.846  1.00  0.00    -0.050 OA 
BRANCH  11  13
HETATM   13  C   UNL     1      -8.397  11.539  67.160  1.00  0.00    -0.160 A  
HETATM   14  C   UNL     1      -8.919  11.184  68.414  1.00  0.00    -0.165 A  
HETATM   15  C   UNL     1      -9.532   9.943  68.602  1.00  0.00    -0.153 A  
HETATM   16  C   UNL     1      -9.627   9.049  67.538  1.00  0.00    -0.182 A  
HETATM   17  C   UNL     1      -9.074   9.377  66.298  1.00  0.00    -0.204 A  
HETATM   18  C   UNL     1      -8.440  10.608  66.116  1.00  0.00    -0.159 A  
HETATM   19  O   UNL     1      -7.849  10.885  64.913  1.00  0.00    -0.353 OA 
HETATM   20  H   UNL     1      -7.878  10.253  64.205  1.00  0.00     0.000 HD 
ENDBRANCH  11  13
ENDBRANCH   7  11
ENDBRANCH   2   3
TORSDOF 3
ENDMDL
MODEL      202
REMARK 921   NORMALIZED FREE ENERGY PREDICTED BY IDOCK:   -3.73 KCAL/MOL
REMARK 922        TOTAL FREE ENERGY PREDICTED BY IDOCK:   -5.01 KCAL/MOL
REMARK 923 INTER-LIGAND FREE ENERGY PREDICTED BY IDOCK:   -4.28 KCAL/MOL
REMARK 924 INTRA-LIGAND FREE ENERGY PREDICTED BY IDOCK:   -0.73 KCAL/MOL
REMARK 927      BINDING AFFINITY PREDICTED BY RF-SCORE:    0.00 PKD
ROOT
HETATM    1  C   UNL     1     -11.080  15.084  67.212  1.00  0.00    -0.334 C  
HETATM    2  O   UNL     1     -10.985  14.247  66.061  1.00  0.00    -0.303 OA 
ENDROOT
BRANCH   2   3
HETATM    3  C   UNL     1     -10.835  12.915  66.338  1.00  0.00    -0.274 A  
HETATM    4  C   UNL     1     -11.512  12.243  67.356  1.00  0.00    -0.422 A  
HETATM    5  C   UNL     1     -11.242  10.896  67.613  1.00  0.00    -0.309 A  
HETATM    6  O   UNL     1     -11.851  10.331  68.700  1.00  0.00    -0.637 OA 
HETATM    7  C   UNL     1     -10.332  10.182  66.825  1.00  0.00    -0.285 A  
HETATM    8  C   UNL     1      -9.947  12.214  65.525  1.00  0.00    -0.269 A  
HETATM    9  C   UNL     1      -9.695  10.859  65.769  1.00  0.00    -0.270 A  
HETATM   10  H   UNL     1     -11.667   9.416  68.875  1.00  0.00     0.000 HD 
BRANCH   7  11
HETATM   11  C   UNL     1      -9.918   8.769  67.058  1.00  0.00    -0.240 C  
HETATM   12  O   UNL     1     -10.776   7.884  66.998  1.00  0.00    -0.339 OA 
BRANCH  11  13
HETATM   13  C   UNL     1      -8.514   8.336  67.280  1.00  0.00    -0.124 A  
HETATM   14  C   UNL     1      -7.955   7.471  66.325  1.00  0.00    -0.109 A  
HETATM   15  C   UNL     1      -6.630   7.048  66.441  1.00  0.00    -0.052 A  
HETATM   16  C   UNL     1      -5.854   7.485  67.513  1.00  0.00    -0.036 A  
HETATM   17  C   UNL     1      -6.414   8.312  68.490  1.00  0.00    -0.054 A  
HETATM   18  C   UNL     1      -7.747   8.716  68.387  1.00  0.00    -0.100 A  
HETATM   19  O   UNL     1      -8.294   9.473  69.386  1.00  0.00    -0.119 OA 
HETATM   20  H   UNL     1      -7.774   9.731  70.137  1.00  0.00     0.000 HD 
ENDBRANCH  11  13
ENDBRANCH   7  11
ENDBRANCH   2   3
TORSDOF 3
ENDMDL
MODEL      203
REMARK 921   NORMALIZED FREE ENERGY PREDICTED BY IDOCK:   -3.73 KCAL/MOL
REMARK 922        TOTAL FREE ENERGY PREDICTED BY IDOCK:   -5.01 KCAL/MOL
REMARK 923 INTER-LIGAND FREE ENERGY PREDICTED BY IDOCK:   -4.51 KCAL/MOL
REMARK 924 INTRA-LIGAND FREE ENERGY PREDICTED BY IDOCK:   -0.50 KCAL/MOL
REMARK 927      BINDING AFFINITY PREDICTED BY RF-SCORE:    0.00 PKD
ROOT
HETATM    1  C   UNL     1      -8.581   9.304  63.978  1.00  0.00    -0.186 C  
HETATM    2  O   UNL     1      -8.421   9.265  65.394  1.00  0.00    -0.129 OA 
ENDROOT
BRANCH   2   3
HETATM    3  C   UNL     1      -9.003  10.308  66.062  1.00  0.00    -0.152 A  
HETATM    4  C   UNL     1      -8.409  10.990  67.125  1.00  0.00    -0.132 A  
HETATM    5  C   UNL     1      -9.109  11.998  67.795  1.00  0.00    -0.187 A  
HETATM    6  O   UNL     1      -8.516  12.542  68.902  1.00  0.00    -0.350 OA 
HETATM    7  C   UNL     1     -10.390  12.381  67.381  1.00  0.00    -0.217 A  
HETATM    8  C   UNL     1     -10.266  10.695  65.619  1.00  0.00    -0.319 A  
HETATM    9  C   UNL     1     -10.955  11.720  66.275  1.00  0.00    -0.346 A  
HETATM   10  H   UNL     1      -8.991  13.227  69.357  1.00  0.00     0.000 HD 
BRANCH   7  11
HETATM   11  C   UNL     1     -11.248  13.388  68.067  1.00  0.00    -0.268 C  
HETATM   12  O   UNL     1     -12.223  12.994  68.712  1.00  0.00    -0.223 OA 
BRANCH  11  13
HETATM   13  C   UNL     1     -10.962  14.846  68.098  1.00  0.00    -0.276 A  
HETATM   14  C   UNL     1     -10.740  15.426  69.357  1.00  0.00    -0.258 A  
HETATM   15  C   UNL     1     -10.429  16.783  69.468  1.00  0.00    -0.263 A  
HETATM   16  C   UNL     1     -10.338  17.569  68.322  1.00  0.00    -0.379 A  
HETATM   17  C   UNL     1     -10.598  17.011  67.068  1.00  0.00    -0.226 A  
HETATM   18  C   UNL     1     -10.934  15.659  66.958  1.00  0.00    -0.261 A  
HETATM   19  O   UNL     1     -11.247  15.146  65.730  1.00  0.00    -0.337 OA 
HETATM   20  H   UNL     1     -11.228  15.697  64.957  1.00  0.00     0.000 HD 
ENDBRANCH  11  13
ENDBRANCH   7  11
ENDBRANCH   2   3
TORSDOF 3
ENDMDL
MODEL      204
REMARK 921   NORMALIZED FREE ENERGY PREDICTED BY IDOCK:   -3.73 KCAL/MOL
REMARK 922        TOTAL FREE ENERGY PREDICTED BY IDOCK:   -5.00 KCAL/MOL
REMARK 923 INTER-LIGAND FREE ENERGY PREDICTED BY IDOCK:   -4.87 KCAL/MOL
REMARK 924 INTRA-LIGAND FREE ENERGY PREDICTED BY IDOCK:   -0.14 KCAL/MOL
REMARK 927      BINDING AFFINITY PREDICTED BY RF-SCORE:    0.00 PKD
ROOT
HETATM    1  C   UNL     1      -7.788  10.758  66.871  1.00  0.00    -0.130 C  
HETATM    2  O   UNL     1      -8.895  11.534  67.326  1.00  0.00    -0.153 OA 
ENDROOT
BRANCH   2   3
HETATM    3  C   UNL     1      -8.815  12.867  67.030  1.00  0.00    -0.208 A  
HETATM    4  C   UNL     1      -7.731  13.682  67.360  1.00  0.00    -0.156 A  
HETATM    5  C   UNL     1      -7.767  15.051  67.082  1.00  0.00    -0.167 A  
HETATM    6  O   UNL     1      -6.725  15.811  67.539  1.00  0.00    -0.160 OA 
HETATM    7  C   UNL     1      -8.861  15.622  66.420  1.00  0.00    -0.365 A  
HETATM    8  C   UNL     1      -9.899  13.412  66.347  1.00  0.00    -0.299 A  
HETATM    9  C   UNL     1      -9.924  14.779  66.047  1.00  0.00    -0.336 A  
HETATM   10  H   UNL     1      -6.750  16.742  67.350  1.00  0.00     0.000 HD 
BRANCH   7  11
HETATM   11  C   UNL     1      -9.032  17.076  66.142  1.00  0.00    -0.208 C  
HETATM   12  O   UNL     1      -9.918  17.428  65.358  1.00  0.00    -0.479 OA 
BRANCH  11  13
HETATM   13  C   UNL     1      -8.255  18.151  66.810  1.00  0.00    -0.270 A  
HETATM   14  C   UNL     1      -8.635  18.494  68.118  1.00  0.00    -0.324 A  
HETATM   15  C   UNL     1      -7.932  19.468  68.829  1.00  0.00    -0.362 A  
HETATM   16  C   UNL     1      -6.845  20.108  68.239  1.00  0.00    -0.335 A  
HETATM   17  C   UNL     1      -6.485  19.804  66.923  1.00  0.00    -0.205 A  
HETATM   18  C   UNL     1      -7.203  18.846  66.203  1.00  0.00    -0.261 A  
HETATM   19  O   UNL     1      -6.875  18.609  64.896  1.00  0.00    -0.450 OA 
HETATM   20  H   UNL     1      -6.161  19.080  64.484  1.00  0.00     0.000 HD 
ENDBRANCH  11  13
ENDBRANCH   7  11
ENDBRANCH   2   3
TORSDOF 3
ENDMDL
MODEL      205
REMARK 921   NORMALIZED FREE ENERGY PREDICTED BY IDOCK:   -3.71 KCAL/MOL
REMARK 922        TOTAL FREE ENERGY PREDICTED BY IDOCK:   -4.98 KCAL/MOL
REMARK 923 INTER-LIGAND FREE ENERGY PREDICTED BY IDOCK:   -4.81 KCAL/MOL
REMARK 924 INTRA-LIGAND FREE ENERGY PREDICTED BY IDOCK:   -0.17 KCAL/MOL
REMARK 927      BINDING AFFINITY PREDICTED BY RF-SCORE:    0.00 PKD
ROOT
HETATM    1  C   UNL     1     -10.429  19.008  65.958  1.00  0.00    -0.458 C  
HETATM    2  O   UNL     1     -10.816  18.177  64.865  1.00  0.00    -0.666 OA 
ENDROOT
BRANCH   2   3
HETATM    3  C   UNL     1     -10.896  16.844  65.164  1.00  0.00    -0.094 A  
HETATM    4  C   UNL     1      -9.887  16.119  65.800  1.00  0.00    -0.354 A  
HETATM    5  C   UNL     1     -10.026  14.743  66.001  1.00  0.00    -0.313 A  
HETATM    6  O   UNL     1      -8.951  14.074  66.520  1.00  0.00    -0.421 OA 
HETATM    7  C   UNL     1     -11.196  14.076  65.621  1.00  0.00    -0.310 A  
HETATM    8  C   UNL     1     -12.079  16.202  64.805  1.00  0.00     0.614 A  
HETATM    9  C   UNL     1     -12.227  14.829  65.029  1.00  0.00    -0.252 A  
HETATM   10  H   UNL     1      -9.046  13.139  66.657  1.00  0.00     0.000 HD 
BRANCH   7  11
HETATM   11  C   UNL     1     -11.418  12.605  65.723  1.00  0.00    -0.358 C  
HETATM   12  O   UNL     1     -11.492  11.945  64.684  1.00  0.00    -0.323 OA 
BRANCH  11  13
HETATM   13  C   UNL     1     -11.475  11.857  67.005  1.00  0.00    -0.384 A  
HETATM   14  C   UNL     1     -11.000  10.535  66.994  1.00  0.00    -0.247 A  
HETATM   15  C   UNL     1     -10.986   9.776  68.166  1.00  0.00    -0.228 A  
HETATM   16  C   UNL     1     -11.446  10.333  69.357  1.00  0.00    -0.248 A  
HETATM   17  C   UNL     1     -11.959  11.632  69.370  1.00  0.00    -0.381 A  
HETATM   18  C   UNL     1     -11.996  12.384  68.193  1.00  0.00    -0.214 A  
HETATM   19  O   UNL     1     -12.560  13.629  68.213  1.00  0.00    -0.177 OA 
HETATM   20  H   UNL     1     -12.914  13.987  69.019  1.00  0.00     0.000 HD 
ENDBRANCH  11  13
ENDBRANCH   7  11
ENDBRANCH   2   3
TORSDOF 3
ENDMDL
MODEL      206
REMARK 921   NORMALIZED FREE ENERGY PREDICTED BY IDOCK:   -3.70 KCAL/MOL
REMARK 922        TOTAL FREE ENERGY PREDICTED BY IDOCK:   -4.97 KCAL/MOL
REMARK 923 INTER-LIGAND FREE ENERGY PREDICTED BY IDOCK:   -4.31 KCAL/MOL
REMARK 924 INTRA-LIGAND FREE ENERGY PREDICTED BY IDOCK:   -0.66 KCAL/MOL
REMARK 927      BINDING AFFINITY PREDICTED BY RF-SCORE:    0.00 PKD
ROOT
HETATM    1  C   UNL     1      -5.645  10.160  69.343  1.00  0.00    -0.037 C  
HETATM    2  O   UNL     1      -5.363  11.442  68.784  1.00  0.00    -0.044 OA 
ENDROOT
BRANCH   2   3
HETATM    3  C   UNL     1      -6.468  12.217  68.554  1.00  0.00    -0.059 A  
HETATM    4  C   UNL     1      -6.560  13.571  68.878  1.00  0.00    -0.106 A  
HETATM    5  C   UNL     1      -7.754  14.266  68.672  1.00  0.00    -0.135 A  
HETATM    6  O   UNL     1      -7.814  15.557  69.122  1.00  0.00    -0.179 OA 
HETATM    7  C   UNL     1      -8.861  13.638  68.088  1.00  0.00    -0.189 A  
HETATM    8  C   UNL     1      -7.549  11.582  67.946  1.00  0.00    -0.113 A  
HETATM    9  C   UNL     1      -8.737  12.286  67.718  1.00  0.00    -0.174 A  
HETATM   10  H   UNL     1      -8.626  16.029  68.982  1.00  0.00     0.000 HD 
BRANCH   7  11
HETATM   11  C   UNL     1     -10.199  14.264  67.891  1.00  0.00    -0.237 C  
HETATM   12  O   UNL     1     -10.616  15.049  68.747  1.00  0.00    -0.226 OA 
BRANCH  11  13
HETATM   13  C   UNL     1     -11.042  14.069  66.684  1.00  0.00    -0.312 A  
HETATM   14  C   UNL     1     -10.958  15.051  65.683  1.00  0.00    -0.357 A  
HETATM   15  C   UNL     1     -11.690  14.923  64.501  1.00  0.00    -0.388 A  
HETATM   16  C   UNL     1     -12.512  13.815  64.311  1.00  0.00    -0.308 A  
HETATM   17  C   UNL     1     -12.634  12.854  65.318  1.00  0.00    -0.502 A  
HETATM   18  C   UNL     1     -11.921  12.993  66.511  1.00  0.00    -0.391 A  
HETATM   19  O   UNL     1     -12.103  12.076  67.509  1.00  0.00    -0.555 OA 
HETATM   20  H   UNL     1     -12.698  11.346  67.392  1.00  0.00     0.000 HD 
ENDBRANCH  11  13
ENDBRANCH   7  11
ENDBRANCH   2   3
TORSDOF 3
ENDMDL
MODEL      207
REMARK 921   NORMALIZED FREE ENERGY PREDICTED BY IDOCK:   -3.69 KCAL/MOL
REMARK 922        TOTAL FREE ENERGY PREDICTED BY IDOCK:   -4.96 KCAL/MOL
REMARK 923 INTER-LIGAND FREE ENERGY PREDICTED BY IDOCK:   -4.17 KCAL/MOL
REMARK 924 INTRA-LIGAND FREE ENERGY PREDICTED BY IDOCK:   -0.79 KCAL/MOL
REMARK 927      BINDING AFFINITY PREDICTED BY RF-SCORE:    0.00 PKD
ROOT
HETATM    1  C   UNL     1      -9.585   3.967  69.845  1.00  0.00    -0.200 C  
HETATM    2  O   UNL     1     -10.535   4.899  69.332  1.00  0.00    -0.167 OA 
ENDROOT
BRANCH   2   3
HETATM    3  C   UNL     1      -9.990   5.931  68.617  1.00  0.00    -0.148 A  
HETATM    4  C   UNL     1      -8.670   6.364  68.744  1.00  0.00    -0.122 A  
HETATM    5  C   UNL     1      -8.219   7.475  68.026  1.00  0.00    -0.124 A  
HETATM    6  O   UNL     1      -6.951   7.918  68.287  1.00  0.00    -0.069 OA 
HETATM    7  C   UNL     1      -9.062   8.139  67.126  1.00  0.00    -0.163 A  
HETATM    8  C   UNL     1     -10.834   6.562  67.707  1.00  0.00    -0.395 A  
HETATM    9  C   UNL     1     -10.375   7.660  66.970  1.00  0.00    -0.400 A  
HETATM   10  H   UNL     1      -6.645   8.673  67.798  1.00  0.00     0.000 HD 
BRANCH   7  11
HETATM   11  C   UNL     1      -8.706   9.372  66.368  1.00  0.00    -0.135 C  
HETATM   12  O   UNL     1      -7.576   9.461  65.880  1.00  0.00    -0.097 OA 
BRANCH  11  13
HETATM   13  C   UNL     1      -9.654  10.481  66.085  1.00  0.00    -0.237 A  
HETATM   14  C   UNL     1     -10.087  10.626  64.758  1.00  0.00    -0.412 A  
HETATM   15  C   UNL     1     -11.006  11.620  64.416  1.00  0.00    -0.399 A  
HETATM   16  C   UNL     1     -11.499  12.476  65.399  1.00  0.00    -0.383 A  
HETATM   17  C   UNL     1     -11.042  12.366  66.715  1.00  0.00    -0.333 A  
HETATM   18  C   UNL     1     -10.104  11.388  67.052  1.00  0.00    -0.208 A  
HETATM   19  O   UNL     1      -9.622  11.337  68.331  1.00  0.00    -0.182 OA 
HETATM   20  H   UNL     1      -9.928  11.952  68.987  1.00  0.00     0.000 HD 
ENDBRANCH  11  13
ENDBRANCH   7  11
ENDBRANCH   2   3
TORSDOF 3
ENDMDL
MODEL      208
REMARK 921   NORMALIZED FREE ENERGY PREDICTED BY IDOCK:   -3.65 KCAL/MOL
REMARK 922        TOTAL FREE ENERGY PREDICTED BY IDOCK:   -4.91 KCAL/MOL
REMARK 923 INTER-LIGAND FREE ENERGY PREDICTED BY IDOCK:   -4.19 KCAL/MOL
REMARK 924 INTRA-LIGAND FREE ENERGY PREDICTED BY IDOCK:   -0.72 KCAL/MOL
REMARK 927      BINDING AFFINITY PREDICTED BY RF-SCORE:    0.00 PKD
ROOT
HETATM    1  C   UNL     1     -11.995  11.094  69.248  1.00  0.00    -0.351 C  
HETATM    2  O   UNL     1     -10.854  10.406  68.738  1.00  0.00    -0.206 OA 
ENDROOT
BRANCH   2   3
HETATM    3  C   UNL     1     -10.390   9.401  69.542  1.00  0.00    -0.214 A  
HETATM    4  C   UNL     1      -9.962   9.581  70.858  1.00  0.00    -0.308 A  
HETATM    5  C   UNL     1      -9.434   8.509  71.582  1.00  0.00    -0.246 A  
HETATM    6  O   UNL     1      -8.924   8.780  72.822  1.00  0.00    -0.361 OA 
HETATM    7  C   UNL     1      -9.374   7.226  71.025  1.00  0.00    -0.158 A  
HETATM    8  C   UNL     1     -10.364   8.126  68.981  1.00  0.00    -0.229 A  
HETATM    9  C   UNL     1      -9.857   7.048  69.715  1.00  0.00    -0.171 A  
HETATM   10  H   UNL     1      -8.565   8.051  73.314  1.00  0.00     0.000 HD 
BRANCH   7  11
HETATM   11  C   UNL     1      -8.766   6.033  71.680  1.00  0.00    -0.135 C  
HETATM   12  O   UNL     1      -7.544   6.010  71.849  1.00  0.00    -0.094 OA 
BRANCH  11  13
HETATM   13  C   UNL     1      -9.546   4.891  72.224  1.00  0.00    -0.193 A  
HETATM   14  C   UNL     1      -9.388   3.650  71.586  1.00  0.00    -0.201 A  
HETATM   15  C   UNL     1     -10.057   2.519  72.059  1.00  0.00    -0.195 A  
HETATM   16  C   UNL     1     -10.888   2.621  73.172  1.00  0.00    -0.244 A  
HETATM   17  C   UNL     1     -11.084   3.859  73.788  1.00  0.00    -0.291 A  
HETATM   18  C   UNL     1     -10.434   4.996  73.301  1.00  0.00    -0.213 A  
HETATM   19  O   UNL     1     -10.688   6.210  73.878  1.00  0.00    -0.377 OA 
HETATM   20  H   UNL     1     -11.291   6.281  74.608  1.00  0.00     0.000 HD 
ENDBRANCH  11  13
ENDBRANCH   7  11
ENDBRANCH   2   3
TORSDOF 3
ENDMDL
MODEL      209
REMARK 921   NORMALIZED FREE ENERGY PREDICTED BY IDOCK:   -3.63 KCAL/MOL
REMARK 922        TOTAL FREE ENERGY PREDICTED BY IDOCK:   -4.89 KCAL/MOL
REMARK 923 INTER-LIGAND FREE ENERGY PREDICTED BY IDOCK:   -4.28 KCAL/MOL
REMARK 924 INTRA-LIGAND FREE ENERGY PREDICTED BY IDOCK:   -0.61 KCAL/MOL
REMARK 927      BINDING AFFINITY PREDICTED BY RF-SCORE:    0.00 PKD
ROOT
HETATM    1  C   UNL     1      -7.724   3.723  67.991  1.00  0.00    -0.066 C  
HETATM    2  O   UNL     1      -8.978   3.795  68.668  1.00  0.00    -0.103 OA 
ENDROOT
BRANCH   2   3
HETATM    3  C   UNL     1      -9.317   5.047  69.104  1.00  0.00    -0.122 A  
HETATM    4  C   UNL     1     -10.578   5.395  69.591  1.00  0.00    -0.328 A  
HETATM    5  C   UNL     1     -10.857   6.718  69.947  1.00  0.00    -0.266 A  
HETATM    6  O   UNL     1     -12.145   7.013  70.303  1.00  0.00    -0.590 OA 
HETATM    7  C   UNL     1      -9.868   7.706  69.874  1.00  0.00    -0.184 A  
HETATM    8  C   UNL     1      -8.313   6.011  69.051  1.00  0.00    -0.111 A  
HETATM    9  C   UNL     1      -8.587   7.330  69.429  1.00  0.00    -0.134 A  
HETATM   10  H   UNL     1     -12.334   7.911  70.544  1.00  0.00     0.000 HD 
BRANCH   7  11
HETATM   11  C   UNL     1     -10.078   9.154  70.158  1.00  0.00    -0.202 C  
HETATM   12  O   UNL     1     -10.160   9.520  71.333  1.00  0.00    -0.258 OA 
BRANCH  11  13
HETATM   13  C   UNL     1     -10.116  10.212  69.115  1.00  0.00    -0.226 A  
HETATM   14  C   UNL     1      -8.883  10.722  68.679  1.00  0.00    -0.152 A  
HETATM   15  C   UNL     1      -8.831  11.692  67.676  1.00  0.00    -0.159 A  
HETATM   16  C   UNL     1     -10.011  12.159  67.103  1.00  0.00    -0.210 A  
HETATM   17  C   UNL     1     -11.245  11.688  67.558  1.00  0.00    -0.355 A  
HETATM   18  C   UNL     1     -11.299  10.735  68.579  1.00  0.00    -0.295 A  
HETATM   19  O   UNL     1     -12.516  10.334  69.055  1.00  0.00    -0.523 OA 
HETATM   20  H   UNL     1     -13.318  10.689  68.691  1.00  0.00     0.000 HD 
ENDBRANCH  11  13
ENDBRANCH   7  11
ENDBRANCH   2   3
TORSDOF 3
ENDMDL
MODEL      210
REMARK 921   NORMALIZED FREE ENERGY PREDICTED BY IDOCK:   -3.62 KCAL/MOL
REMARK 922        TOTAL FREE ENERGY PREDICTED BY IDOCK:   -4.88 KCAL/MOL
REMARK 923 INTER-LIGAND FREE ENERGY PREDICTED BY IDOCK:   -3.93 KCAL/MOL
REMARK 924 INTRA-LIGAND FREE ENERGY PREDICTED BY IDOCK:   -0.95 KCAL/MOL
REMARK 927      BINDING AFFINITY PREDICTED BY RF-SCORE:    0.00 PKD
ROOT
HETATM    1  C   UNL     1      -8.512  18.612  66.496  1.00  0.00    -0.291 C  
HETATM    2  O   UNL     1      -7.783  17.449  66.886  1.00  0.00    -0.189 OA 
ENDROOT
BRANCH   2   3
HETATM    3  C   UNL     1      -8.556  16.344  67.116  1.00  0.00    -0.181 A  
HETATM    4  C   UNL     1      -9.856  16.179  66.635  1.00  0.00    -0.262 A  
HETATM    5  C   UNL     1     -10.598  15.047  66.981  1.00  0.00    -0.293 A  
HETATM    6  O   UNL     1     -11.904  15.005  66.575  1.00  0.00    -0.215 OA 
HETATM    7  C   UNL     1     -10.038  14.032  67.767  1.00  0.00    -0.240 A  
HETATM    8  C   UNL     1      -7.973  15.332  67.876  1.00  0.00    -0.145 A  
HETATM    9  C   UNL     1      -8.709  14.187  68.201  1.00  0.00    -0.181 A  
HETATM   10  H   UNL     1     -12.408  14.236  66.810  1.00  0.00     0.000 HD 
BRANCH   7  11
HETATM   11  C   UNL     1     -10.762  12.823  68.251  1.00  0.00    -0.239 C  
HETATM   12  O   UNL     1     -11.909  12.956  68.687  1.00  0.00    -0.305 OA 
BRANCH  11  13
HETATM   13  C   UNL     1     -10.225  11.440  68.170  1.00  0.00    -0.200 A  
HETATM   14  C   UNL     1      -9.836  10.980  66.901  1.00  0.00    -0.222 A  
HETATM   15  C   UNL     1      -9.287   9.706  66.746  1.00  0.00    -0.193 A  
HETATM   16  C   UNL     1      -9.124   8.882  67.857  1.00  0.00    -0.145 A  
HETATM   17  C   UNL     1      -9.547   9.314  69.117  1.00  0.00    -0.161 A  
HETATM   18  C   UNL     1     -10.118  10.579  69.269  1.00  0.00    -0.224 A  
HETATM   19  O   UNL     1     -10.584  10.959  70.498  1.00  0.00    -0.246 OA 
HETATM   20  H   UNL     1     -10.511  10.375  71.243  1.00  0.00     0.000 HD 
ENDBRANCH  11  13
ENDBRANCH   7  11
ENDBRANCH   2   3
TORSDOF 3
ENDMDL
MODEL      211
REMARK 921   NORMALIZED FREE ENERGY PREDICTED BY IDOCK:   -3.55 KCAL/MOL
REMARK 922        TOTAL FREE ENERGY PREDICTED BY IDOCK:   -4.79 KCAL/MOL
REMARK 923 INTER-LIGAND FREE ENERGY PREDICTED BY IDOCK:   -3.86 KCAL/MOL
REMARK 924 INTRA-LIGAND FREE ENERGY PREDICTED BY IDOCK:   -0.94 KCAL/MOL
REMARK 927      BINDING AFFINITY PREDICTED BY RF-SCORE:    0.00 PKD
ROOT
HETATM    1  C   UNL     1     -14.364   7.549  71.889  1.00  0.00    -0.381 C  
HETATM    2  O   UNL     1     -13.436   8.480  72.443  1.00  0.00    -0.331 OA 
ENDROOT
BRANCH   2   3
HETATM    3  C   UNL     1     -12.509   8.955  71.556  1.00  0.00    -0.324 A  
HETATM    4  C   UNL     1     -12.494  10.259  71.058  1.00  0.00    -0.484 A  
HETATM    5  C   UNL     1     -11.551  10.637  70.098  1.00  0.00    -0.330 A  
HETATM    6  O   UNL     1     -11.668  11.892  69.565  1.00  0.00    -0.298 OA 
HETATM    7  C   UNL     1     -10.572   9.737  69.659  1.00  0.00    -0.260 A  
HETATM    8  C   UNL     1     -11.526   8.055  71.151  1.00  0.00    -0.302 A  
HETATM    9  C   UNL     1     -10.568   8.442  70.207  1.00  0.00    -0.234 A  
HETATM   10  H   UNL     1     -11.027  12.148  68.913  1.00  0.00     0.000 HD 
BRANCH   7  11
HETATM   11  C   UNL     1      -9.570  10.014  68.591  1.00  0.00    -0.155 C  
HETATM   12  O   UNL     1      -9.951  10.549  67.547  1.00  0.00    -0.165 OA 
BRANCH  11  13
HETATM   13  C   UNL     1      -8.112   9.761  68.728  1.00  0.00    -0.102 A  
HETATM   14  C   UNL     1      -7.413  10.549  69.656  1.00  0.00    -0.145 A  
HETATM   15  C   UNL     1      -6.048  10.349  69.872  1.00  0.00    -0.068 A  
HETATM   16  C   UNL     1      -5.373   9.359  69.161  1.00  0.00    -0.036 A  
HETATM   17  C   UNL     1      -6.050   8.597  68.206  1.00  0.00    -0.050 A  
HETATM   18  C   UNL     1      -7.411   8.814  67.973  1.00  0.00    -0.088 A  
HETATM   19  O   UNL     1      -8.041   8.102  66.990  1.00  0.00    -0.106 OA 
HETATM   20  H   UNL     1      -7.565   7.460  66.477  1.00  0.00     0.000 HD 
ENDBRANCH  11  13
ENDBRANCH   7  11
ENDBRANCH   2   3
TORSDOF 3
ENDMDL
MODEL      212
REMARK 921   NORMALIZED FREE ENERGY PREDICTED BY IDOCK:   -3.54 KCAL/MOL
REMARK 922        TOTAL FREE ENERGY PREDICTED BY IDOCK:   -4.78 KCAL/MOL
REMARK 923 INTER-LIGAND FREE ENERGY PREDICTED BY IDOCK:   -3.87 KCAL/MOL
REMARK 924 INTRA-LIGAND FREE ENERGY PREDICTED BY IDOCK:   -0.91 KCAL/MOL
REMARK 927      BINDING AFFINITY PREDICTED BY RF-SCORE:    0.00 PKD
ROOT
HETATM    1  C   UNL     1      -6.554  11.968  69.192  1.00  0.00    -0.107 C  
HETATM    2  O   UNL     1      -7.878  12.096  68.675  1.00  0.00    -0.130 OA 
ENDROOT
BRANCH   2   3
HETATM    3  C   UNL     1      -8.674  11.002  68.874  1.00  0.00    -0.117 A  
HETATM    4  C   UNL     1     -10.067  11.046  68.952  1.00  0.00    -0.212 A  
HETATM    5  C   UNL     1     -10.795   9.886  69.231  1.00  0.00    -0.227 A  
HETATM    6  O   UNL     1     -12.145  10.023  69.412  1.00  0.00    -0.480 OA 
HETATM    7  C   UNL     1     -10.153   8.652  69.381  1.00  0.00    -0.204 A  
HETATM    8  C   UNL     1      -8.020   9.777  68.994  1.00  0.00    -0.096 A  
HETATM    9  C   UNL     1      -8.752   8.613  69.249  1.00  0.00    -0.133 A  
HETATM   10  H   UNL     1     -12.640   9.235  69.601  1.00  0.00     0.000 HD 
BRANCH   7  11
HETATM   11  C   UNL     1     -10.824   7.374  69.750  1.00  0.00    -0.234 C  
HETATM   12  O   UNL     1     -11.830   7.419  70.464  1.00  0.00    -0.254 OA 
BRANCH  11  13
HETATM   13  C   UNL     1     -10.412   6.038  69.246  1.00  0.00    -0.328 A  
HETATM   14  C   UNL     1     -10.428   5.849  67.854  1.00  0.00    -0.297 A  
HETATM   15  C   UNL     1     -10.019   4.635  67.298  1.00  0.00    -0.203 A  
HETATM   16  C   UNL     1      -9.592   3.602  68.129  1.00  0.00    -0.166 A  
HETATM   17  C   UNL     1      -9.612   3.766  69.517  1.00  0.00    -0.230 A  
HETATM   18  C   UNL     1     -10.044   4.971  70.074  1.00  0.00    -0.272 A  
HETATM   19  O   UNL     1     -10.117   5.090  71.435  1.00  0.00    -0.184 OA 
HETATM   20  H   UNL     1      -9.867   4.367  71.997  1.00  0.00     0.000 HD 
ENDBRANCH  11  13
ENDBRANCH   7  11
ENDBRANCH   2   3
TORSDOF 3
ENDMDL
MODEL      213
REMARK 921   NORMALIZED FREE ENERGY PREDICTED BY IDOCK:   -3.52 KCAL/MOL
REMARK 922        TOTAL FREE ENERGY PREDICTED BY IDOCK:   -4.76 KCAL/MOL
REMARK 923 INTER-LIGAND FREE ENERGY PREDICTED BY IDOCK:   -4.27 KCAL/MOL
REMARK 924 INTRA-LIGAND FREE ENERGY PREDICTED BY IDOCK:   -0.50 KCAL/MOL
REMARK 927      BINDING AFFINITY PREDICTED BY RF-SCORE:    0.00 PKD
ROOT
HETATM    1  C   UNL     1      -5.666   8.493  69.789  1.00  0.00    -0.029 C  
HETATM    2  O   UNL     1      -5.304   8.896  68.470  1.00  0.00    -0.036 OA 
ENDROOT
BRANCH   2   3
HETATM    3  C   UNL     1      -6.358   9.261  67.677  1.00  0.00    -0.059 A  
HETATM    4  C   UNL     1      -7.532   8.519  67.540  1.00  0.00    -0.093 A  
HETATM    5  C   UNL     1      -8.528   8.932  66.650  1.00  0.00    -0.119 A  
HETATM    6  O   UNL     1      -9.598   8.097  66.476  1.00  0.00    -0.207 OA 
HETATM    7  C   UNL     1      -8.394  10.121  65.923  1.00  0.00    -0.137 A  
HETATM    8  C   UNL     1      -6.219  10.460  66.982  1.00  0.00    -0.067 A  
HETATM    9  C   UNL     1      -7.228  10.885  66.109  1.00  0.00    -0.101 A  
HETATM   10  H   UNL     1     -10.274   8.378  65.872  1.00  0.00     0.000 HD 
BRANCH   7  11
HETATM   11  C   UNL     1      -9.358  10.613  64.898  1.00  0.00    -0.228 C  
HETATM   12  O   UNL     1      -9.452  10.000  63.832  1.00  0.00    -0.276 OA 
BRANCH  11  13
HETATM   13  C   UNL     1     -10.284  11.756  65.105  1.00  0.00    -0.309 A  
HETATM   14  C   UNL     1     -10.094  12.530  66.261  1.00  0.00    -0.264 A  
HETATM   15  C   UNL     1     -10.899  13.644  66.511  1.00  0.00    -0.283 A  
HETATM   16  C   UNL     1     -11.899  13.992  65.606  1.00  0.00    -0.384 A  
HETATM   17  C   UNL     1     -12.123  13.205  64.474  1.00  0.00    -0.462 A  
HETATM   18  C   UNL     1     -11.334  12.076  64.236  1.00  0.00    -0.364 A  
HETATM   19  O   UNL     1     -11.611  11.283  63.157  1.00  0.00    -0.847 OA 
HETATM   20  H   UNL     1     -12.323  11.500  62.568  1.00  0.00     0.000 HD 
ENDBRANCH  11  13
ENDBRANCH   7  11
ENDBRANCH   2   3
TORSDOF 3
ENDMDL
MODEL      214
REMARK 921   NORMALIZED FREE ENERGY PREDICTED BY IDOCK:   -3.46 KCAL/MOL
REMARK 922        TOTAL FREE ENERGY PREDICTED BY IDOCK:   -4.69 KCAL/MOL
REMARK 923 INTER-LIGAND FREE ENERGY PREDICTED BY IDOCK:   -4.22 KCAL/MOL
REMARK 924 INTRA-LIGAND FREE ENERGY PREDICTED BY IDOCK:   -0.47 KCAL/MOL
REMARK 927      BINDING AFFINITY PREDICTED BY RF-SCORE:    0.00 PKD
ROOT
HETATM    1  C   UNL     1     -10.534  11.793  63.269  1.00  0.00    -0.388 C  
HETATM    2  O   UNL     1     -11.131  11.538  64.539  1.00  0.00    -0.321 OA 
ENDROOT
BRANCH   2   3
HETATM    3  C   UNL     1     -10.767  12.414  65.525  1.00  0.00    -0.280 A  
HETATM    4  C   UNL     1     -10.681  13.796  65.356  1.00  0.00    -0.320 A  
HETATM    5  C   UNL     1     -10.229  14.608  66.400  1.00  0.00    -0.289 A  
HETATM    6  O   UNL     1     -10.055  15.938  66.129  1.00  0.00    -0.275 OA 
HETATM    7  C   UNL     1      -9.908  14.062  67.648  1.00  0.00    -0.233 A  
HETATM    8  C   UNL     1     -10.478  11.856  66.769  1.00  0.00    -0.253 A  
HETATM    9  C   UNL     1     -10.049  12.673  67.821  1.00  0.00    -0.220 A  
HETATM   10  H   UNL     1      -9.748  16.490  66.839  1.00  0.00     0.000 HD 
BRANCH   7  11
HETATM   11  C   UNL     1      -9.350  14.825  68.801  1.00  0.00    -0.198 C  
HETATM   12  O   UNL     1     -10.109  15.148  69.719  1.00  0.00    -0.227 OA 
BRANCH  11  13
HETATM   13  C   UNL     1      -7.912  15.159  68.964  1.00  0.00    -0.188 A  
HETATM   14  C   UNL     1      -7.534  16.489  68.720  1.00  0.00    -0.216 A  
HETATM   15  C   UNL     1      -6.208  16.892  68.886  1.00  0.00    -0.173 A  
HETATM   16  C   UNL     1      -5.249  15.969  69.298  1.00  0.00    -0.110 A  
HETATM   17  C   UNL     1      -5.607  14.634  69.503  1.00  0.00    -0.092 A  
HETATM   18  C   UNL     1      -6.929  14.224  69.313  1.00  0.00    -0.116 A  
HETATM   19  O   UNL     1      -7.246  12.902  69.457  1.00  0.00    -0.320 OA 
HETATM   20  H   UNL     1      -6.580  12.268  69.694  1.00  0.00     0.000 HD 
ENDBRANCH  11  13
ENDBRANCH   7  11
ENDBRANCH   2   3
TORSDOF 3
ENDMDL
MODEL      215
REMARK 921   NORMALIZED FREE ENERGY PREDICTED BY IDOCK:   -3.45 KCAL/MOL
REMARK 922        TOTAL FREE ENERGY PREDICTED BY IDOCK:   -4.68 KCAL/MOL
REMARK 923 INTER-LIGAND FREE ENERGY PREDICTED BY IDOCK:   -3.99 KCAL/MOL
REMARK 924 INTRA-LIGAND FREE ENERGY PREDICTED BY IDOCK:   -0.69 KCAL/MOL
REMARK 927      BINDING AFFINITY PREDICTED BY RF-SCORE:    0.00 PKD
ROOT
HETATM    1  C   UNL     1     -11.995  13.961  68.679  1.00  0.00    -0.366 C  
HETATM    2  O   UNL     1     -12.285  12.620  69.067  1.00  0.00    -0.185 OA 
ENDROOT
BRANCH   2   3
HETATM    3  C   UNL     1     -11.560  11.667  68.405  1.00  0.00    -0.312 A  
HETATM    4  C   UNL     1     -10.947  11.864  67.167  1.00  0.00    -0.319 A  
HETATM    5  C   UNL     1     -10.286  10.810  66.530  1.00  0.00    -0.244 A  
HETATM    6  O   UNL     1      -9.812  11.040  65.267  1.00  0.00    -0.228 OA 
HETATM    7  C   UNL     1     -10.178   9.555  67.141  1.00  0.00    -0.305 A  
HETATM    8  C   UNL     1     -11.438  10.433  69.041  1.00  0.00    -0.258 A  
HETATM    9  C   UNL     1     -10.756   9.385  68.413  1.00  0.00    -0.213 A  
HETATM   10  H   UNL     1      -9.364  10.323  64.834  1.00  0.00     0.000 HD 
BRANCH   7  11
HETATM   11  C   UNL     1      -9.561   8.349  66.521  1.00  0.00    -0.236 C  
HETATM   12  O   UNL     1      -9.223   8.401  65.335  1.00  0.00    -0.074 OA 
BRANCH  11  13
HETATM   13  C   UNL     1      -9.247   7.099  67.260  1.00  0.00    -0.145 A  
HETATM   14  C   UNL     1      -8.331   7.198  68.320  1.00  0.00    -0.124 A  
HETATM   15  C   UNL     1      -8.010   6.077  69.088  1.00  0.00    -0.103 A  
HETATM   16  C   UNL     1      -8.601   4.849  68.801  1.00  0.00    -0.096 A  
HETATM   17  C   UNL     1      -9.481   4.730  67.722  1.00  0.00    -0.180 A  
HETATM   18  C   UNL     1      -9.784   5.847  66.939  1.00  0.00    -0.147 A  
HETATM   19  O   UNL     1     -10.598   5.698  65.849  1.00  0.00    -0.456 OA 
HETATM   20  H   UNL     1     -10.962   4.848  65.631  1.00  0.00     0.000 HD 
ENDBRANCH  11  13
ENDBRANCH   7  11
ENDBRANCH   2   3
TORSDOF 3
ENDMDL
MODEL      216
REMARK 921   NORMALIZED FREE ENERGY PREDICTED BY IDOCK:   -3.45 KCAL/MOL
REMARK 922        TOTAL FREE ENERGY PREDICTED BY IDOCK:   -4.68 KCAL/MOL
REMARK 923 INTER-LIGAND FREE ENERGY PREDICTED BY IDOCK:   -3.89 KCAL/MOL
REMARK 924 INTRA-LIGAND FREE ENERGY PREDICTED BY IDOCK:   -0.79 KCAL/MOL
REMARK 927      BINDING AFFINITY PREDICTED BY RF-SCORE:    0.00 PKD
ROOT
HETATM    1  C   UNL     1     -13.888   8.144  72.204  1.00  0.00    -0.240 C  
HETATM    2  O   UNL     1     -12.876   9.110  72.479  1.00  0.00    -0.388 OA 
ENDROOT
BRANCH   2   3
HETATM    3  C   UNL     1     -11.806   9.072  71.627  1.00  0.00    -0.360 A  
HETATM    4  C   UNL     1     -11.299  10.182  70.951  1.00  0.00    -0.420 A  
HETATM    5  C   UNL     1     -10.247  10.036  70.043  1.00  0.00    -0.255 A  
HETATM    6  O   UNL     1      -9.879  11.143  69.327  1.00  0.00    -0.403 OA 
HETATM    7  C   UNL     1      -9.646   8.790  69.833  1.00  0.00    -0.182 A  
HETATM    8  C   UNL     1     -11.202   7.829  71.452  1.00  0.00    -0.276 A  
HETATM    9  C   UNL     1     -10.133   7.688  70.560  1.00  0.00    -0.189 A  
HETATM   10  H   UNL     1      -9.164  11.044  68.710  1.00  0.00     0.000 HD 
BRANCH   7  11
HETATM   11  C   UNL     1      -8.572   8.511  68.839  1.00  0.00    -0.127 C  
HETATM   12  O   UNL     1      -7.547   9.197  68.868  1.00  0.00    -0.074 OA 
BRANCH  11  13
HETATM   13  C   UNL     1      -8.613   7.400  67.854  1.00  0.00    -0.125 A  
HETATM   14  C   UNL     1      -7.725   6.332  68.060  1.00  0.00    -0.103 A  
HETATM   15  C   UNL     1      -7.728   5.231  67.200  1.00  0.00    -0.096 A  
HETATM   16  C   UNL     1      -8.617   5.190  66.129  1.00  0.00    -0.117 A  
HETATM   17  C   UNL     1      -9.475   6.267  65.891  1.00  0.00     0.049 A  
HETATM   18  C   UNL     1      -9.457   7.379  66.736  1.00  0.00    -0.176 A  
HETATM   19  O   UNL     1     -10.259   8.449  66.450  1.00  0.00    -0.406 OA 
HETATM   20  H   UNL     1     -10.831   8.435  65.693  1.00  0.00     0.000 HD 
ENDBRANCH  11  13
ENDBRANCH   7  11
ENDBRANCH   2   3
TORSDOF 3
ENDMDL
MODEL      217
REMARK 921   NORMALIZED FREE ENERGY PREDICTED BY IDOCK:   -3.45 KCAL/MOL
REMARK 922        TOTAL FREE ENERGY PREDICTED BY IDOCK:   -4.68 KCAL/MOL
REMARK 923 INTER-LIGAND FREE ENERGY PREDICTED BY IDOCK:   -3.83 KCAL/MOL
REMARK 924 INTRA-LIGAND FREE ENERGY PREDICTED BY IDOCK:   -0.85 KCAL/MOL
REMARK 927      BINDING AFFINITY PREDICTED BY RF-SCORE:    0.00 PKD
ROOT
HETATM    1  C   UNL     1     -13.969   8.548  72.239  1.00  0.00    -0.360 C  
HETATM    2  O   UNL     1     -13.468   7.395  71.565  1.00  0.00    -0.376 OA 
ENDROOT
BRANCH   2   3
HETATM    3  C   UNL     1     -12.121   7.416  71.328  1.00  0.00    -0.328 A  
HETATM    4  C   UNL     1     -11.197   8.119  72.103  1.00  0.00    -0.393 A  
HETATM    5  C   UNL     1      -9.847   8.142  71.743  1.00  0.00    -0.194 A  
HETATM    6  O   UNL     1      -9.017   8.946  72.475  1.00  0.00    -0.367 OA 
HETATM    7  C   UNL     1      -9.385   7.419  70.636  1.00  0.00    -0.160 A  
HETATM    8  C   UNL     1     -11.675   6.669  70.240  1.00  0.00    -0.432 A  
HETATM    9  C   UNL     1     -10.319   6.674  69.894  1.00  0.00    -0.232 A  
HETATM   10  H   UNL     1      -8.099   8.962  72.231  1.00  0.00     0.000 HD 
BRANCH   7  11
HETATM   11  C   UNL     1      -7.985   7.434  70.125  1.00  0.00    -0.112 C  
HETATM   12  O   UNL     1      -7.224   6.523  70.460  1.00  0.00    -0.070 OA 
BRANCH  11  13
HETATM   13  C   UNL     1      -7.458   8.437  69.164  1.00  0.00    -0.089 A  
HETATM   14  C   UNL     1      -7.336   8.034  67.824  1.00  0.00    -0.093 A  
HETATM   15  C   UNL     1      -6.883   8.928  66.852  1.00  0.00    -0.077 A  
HETATM   16  C   UNL     1      -6.549  10.231  67.212  1.00  0.00    -0.068 A  
HETATM   17  C   UNL     1      -6.627  10.630  68.549  1.00  0.00    -0.055 A  
HETATM   18  C   UNL     1      -7.057   9.728  69.526  1.00  0.00    -0.075 A  
HETATM   19  O   UNL     1      -7.065  10.118  70.837  1.00  0.00    -0.353 OA 
HETATM   20  H   UNL     1      -6.793  10.994  71.083  1.00  0.00     0.000 HD 
ENDBRANCH  11  13
ENDBRANCH   7  11
ENDBRANCH   2   3
TORSDOF 3
ENDMDL
MODEL      218
REMARK 921   NORMALIZED FREE ENERGY PREDICTED BY IDOCK:   -3.41 KCAL/MOL
REMARK 922        TOTAL FREE ENERGY PREDICTED BY IDOCK:   -4.63 KCAL/MOL
REMARK 923 INTER-LIGAND FREE ENERGY PREDICTED BY IDOCK:   -3.90 KCAL/MOL
REMARK 924 INTRA-LIGAND FREE ENERGY PREDICTED BY IDOCK:   -0.73 KCAL/MOL
REMARK 927      BINDING AFFINITY PREDICTED BY RF-SCORE:    0.00 PKD
ROOT
HETATM    1  C   UNL     1     -13.299   8.454  72.353  1.00  0.00    -0.209 C  
HETATM    2  O   UNL     1     -12.926   7.377  71.495  1.00  0.00    -0.355 OA 
ENDROOT
BRANCH   2   3
HETATM    3  C   UNL     1     -11.867   7.646  70.672  1.00  0.00    -0.147 A  
HETATM    4  C   UNL     1     -10.975   8.703  70.858  1.00  0.00    -0.301 A  
HETATM    5  C   UNL     1      -9.964   8.946  69.925  1.00  0.00    -0.188 A  
HETATM    6  O   UNL     1      -9.201  10.067  70.105  1.00  0.00    -0.363 OA 
HETATM    7  C   UNL     1      -9.789   8.106  68.819  1.00  0.00    -0.181 A  
HETATM    8  C   UNL     1     -11.692   6.784  69.592  1.00  0.00    -0.164 A  
HETATM    9  C   UNL     1     -10.663   7.013  68.671  1.00  0.00    -0.225 A  
HETATM   10  H   UNL     1      -8.513  10.232  69.470  1.00  0.00     0.000 HD 
BRANCH   7  11
HETATM   11  C   UNL     1      -8.793   8.316  67.730  1.00  0.00    -0.137 C  
HETATM   12  O   UNL     1      -7.715   7.720  67.793  1.00  0.00    -0.116 OA 
BRANCH  11  13
HETATM   13  C   UNL     1      -9.042   9.139  66.518  1.00  0.00    -0.194 A  
HETATM   14  C   UNL     1      -9.387  10.485  66.721  1.00  0.00    -0.180 A  
HETATM   15  C   UNL     1      -9.600  11.335  65.634  1.00  0.00    -0.260 A  
HETATM   16  C   UNL     1      -9.472  10.845  64.337  1.00  0.00    -0.287 A  
HETATM   17  C   UNL     1      -9.170   9.497  64.124  1.00  0.00    -0.142 A  
HETATM   18  C   UNL     1      -8.980   8.641  65.211  1.00  0.00    -0.098 A  
HETATM   19  O   UNL     1      -8.748   7.313  64.983  1.00  0.00    -0.357 OA 
HETATM   20  H   UNL     1      -8.706   6.975  64.096  1.00  0.00     0.000 HD 
ENDBRANCH  11  13
ENDBRANCH   7  11
ENDBRANCH   2   3
TORSDOF 3
ENDMDL
MODEL      219
REMARK 921   NORMALIZED FREE ENERGY PREDICTED BY IDOCK:   -3.37 KCAL/MOL
REMARK 922        TOTAL FREE ENERGY PREDICTED BY IDOCK:   -4.58 KCAL/MOL
REMARK 923 INTER-LIGAND FREE ENERGY PREDICTED BY IDOCK:   -3.79 KCAL/MOL
REMARK 924 INTRA-LIGAND FREE ENERGY PREDICTED BY IDOCK:   -0.79 KCAL/MOL
REMARK 927      BINDING AFFINITY PREDICTED BY RF-SCORE:    0.00 PKD
ROOT
HETATM    1  C   UNL     1     -11.515  11.596  69.462  1.00  0.00    -0.304 C  
HETATM    2  O   UNL     1     -10.392  10.728  69.317  1.00  0.00    -0.213 OA 
ENDROOT
BRANCH   2   3
HETATM    3  C   UNL     1     -10.541   9.502  69.906  1.00  0.00    -0.241 A  
HETATM    4  C   UNL     1     -10.716   8.309  69.204  1.00  0.00    -0.117 A  
HETATM    5  C   UNL     1     -10.933   7.112  69.891  1.00  0.00    -0.253 A  
HETATM    6  O   UNL     1     -11.217   6.002  69.143  1.00  0.00    -0.378 OA 
HETATM    7  C   UNL     1     -10.924   7.074  71.291  1.00  0.00    -0.270 A  
HETATM    8  C   UNL     1     -10.501   9.479  71.298  1.00  0.00    -0.320 A  
HETATM    9  C   UNL     1     -10.694   8.275  71.985  1.00  0.00    -0.366 A  
HETATM   10  H   UNL     1     -11.364   5.188  69.610  1.00  0.00     0.000 HD 
BRANCH   7  11
HETATM   11  C   UNL     1     -11.216   5.869  72.119  1.00  0.00    -0.287 C  
HETATM   12  O   UNL     1     -12.392   5.590  72.362  1.00  0.00    -0.018 OA 
BRANCH  11  13
HETATM   13  C   UNL     1     -10.180   4.924  72.610  1.00  0.00    -0.238 A  
HETATM   14  C   UNL     1      -9.816   5.024  73.963  1.00  0.00    -0.182 A  
HETATM   15  C   UNL     1      -8.877   4.148  74.512  1.00  0.00    -0.100 A  
HETATM   16  C   UNL     1      -8.296   3.166  73.713  1.00  0.00    -0.074 A  
HETATM   17  C   UNL     1      -8.621   3.084  72.357  1.00  0.00    -0.086 A  
HETATM   18  C   UNL     1      -9.542   3.976  71.801  1.00  0.00    -0.155 A  
HETATM   19  O   UNL     1      -9.799   3.921  70.459  1.00  0.00    -0.190 OA 
HETATM   20  H   UNL     1      -9.366   3.279  69.910  1.00  0.00     0.000 HD 
ENDBRANCH  11  13
ENDBRANCH   7  11
ENDBRANCH   2   3
TORSDOF 3
ENDMDL
MODEL      220
REMARK 921   NORMALIZED FREE ENERGY PREDICTED BY IDOCK:   -3.36 KCAL/MOL
REMARK 922        TOTAL FREE ENERGY PREDICTED BY IDOCK:   -4.58 KCAL/MOL
REMARK 923 INTER-LIGAND FREE ENERGY PREDICTED BY IDOCK:   -3.85 KCAL/MOL
REMARK 924 INTRA-LIGAND FREE ENERGY PREDICTED BY IDOCK:   -0.73 KCAL/MOL
REMARK 927      BINDING AFFINITY PREDICTED BY RF-SCORE:    0.00 PKD
ROOT
HETATM    1  C   UNL     1     -11.785  15.419  64.497  1.00  0.00    -0.277 C  
HETATM    2  O   UNL     1     -10.496  15.113  65.027  1.00  0.00    -0.398 OA 
ENDROOT
BRANCH   2   3
HETATM    3  C   UNL     1     -10.439  13.950  65.746  1.00  0.00    -0.307 A  
HETATM    4  C   UNL     1     -10.606  13.872  67.129  1.00  0.00    -0.277 A  
HETATM    5  C   UNL     1     -10.459  12.649  67.790  1.00  0.00    -0.221 A  
HETATM    6  O   UNL     1     -10.516  12.664  69.157  1.00  0.00    -0.430 OA 
HETATM    7  C   UNL     1     -10.198  11.473  67.076  1.00  0.00    -0.244 A  
HETATM    8  C   UNL     1     -10.207  12.786  65.016  1.00  0.00    -0.292 A  
HETATM    9  C   UNL     1     -10.084  11.558  65.676  1.00  0.00    -0.278 A  
HETATM   10  H   UNL     1     -10.416  11.833  69.605  1.00  0.00     0.000 HD 
BRANCH   7  11
HETATM   11  C   UNL     1      -9.952  10.135  67.686  1.00  0.00    -0.181 C  
HETATM   12  O   UNL     1     -10.896   9.347  67.782  1.00  0.00    -0.252 OA 
BRANCH  11  13
HETATM   13  C   UNL     1      -8.617   9.648  68.118  1.00  0.00    -0.119 A  
HETATM   14  C   UNL     1      -8.028  10.292  69.218  1.00  0.00    -0.149 A  
HETATM   15  C   UNL     1      -6.791   9.869  69.710  1.00  0.00    -0.084 A  
HETATM   16  C   UNL     1      -6.134   8.800  69.105  1.00  0.00    -0.043 A  
HETATM   17  C   UNL     1      -6.692   8.180  67.984  1.00  0.00    -0.065 A  
HETATM   18  C   UNL     1      -7.918   8.618  67.477  1.00  0.00    -0.106 A  
HETATM   19  O   UNL     1      -8.416   8.040  66.342  1.00  0.00    -0.123 OA 
HETATM   20  H   UNL     1      -7.942   7.342  65.907  1.00  0.00     0.000 HD 
ENDBRANCH  11  13
ENDBRANCH   7  11
ENDBRANCH   2   3
TORSDOF 3
ENDMDL
MODEL      221
REMARK 921   NORMALIZED FREE ENERGY PREDICTED BY IDOCK:   -3.36 KCAL/MOL
REMARK 922        TOTAL FREE ENERGY PREDICTED BY IDOCK:   -4.58 KCAL/MOL
REMARK 923 INTER-LIGAND FREE ENERGY PREDICTED BY IDOCK:   -3.86 KCAL/MOL
REMARK 924 INTRA-LIGAND FREE ENERGY PREDICTED BY IDOCK:   -0.72 KCAL/MOL
REMARK 927      BINDING AFFINITY PREDICTED BY RF-SCORE:    0.00 PKD
ROOT
HETATM    1  C   UNL     1     -11.424  15.479  69.022  1.00  0.00    -0.352 C  
HETATM    2  O   UNL     1     -12.040  14.267  69.453  1.00  0.00    -0.316 OA 
ENDROOT
BRANCH   2   3
HETATM    3  C   UNL     1     -11.437  13.127  68.993  1.00  0.00    -0.296 A  
HETATM    4  C   UNL     1     -11.872  11.834  69.286  1.00  0.00    -0.389 A  
HETATM    5  C   UNL     1     -11.151  10.727  68.832  1.00  0.00    -0.253 A  
HETATM    6  O   UNL     1     -11.564   9.493  69.254  1.00  0.00    -0.437 OA 
HETATM    7  C   UNL     1     -10.014  10.889  68.031  1.00  0.00    -0.188 A  
HETATM    8  C   UNL     1     -10.324  13.307  68.175  1.00  0.00    -0.246 A  
HETATM    9  C   UNL     1      -9.616  12.197  67.700  1.00  0.00    -0.190 A  
HETATM   10  H   UNL     1     -11.074   8.741  68.946  1.00  0.00     0.000 HD 
BRANCH   7  11
HETATM   11  C   UNL     1      -9.134   9.784  67.556  1.00  0.00    -0.130 C  
HETATM   12  O   UNL     1      -9.342   8.642  67.974  1.00  0.00    -0.136 OA 
BRANCH  11  13
HETATM   13  C   UNL     1      -8.062   9.948  66.540  1.00  0.00    -0.117 A  
HETATM   14  C   UNL     1      -6.742  10.021  67.012  1.00  0.00    -0.078 A  
HETATM   15  C   UNL     1      -5.675  10.138  66.119  1.00  0.00    -0.065 A  
HETATM   16  C   UNL     1      -5.920  10.183  64.749  1.00  0.00    -0.123 A  
HETATM   17  C   UNL     1      -7.232  10.152  64.271  1.00  0.00    -0.108 A  
HETATM   18  C   UNL     1      -8.302  10.060  65.165  1.00  0.00    -0.153 A  
HETATM   19  O   UNL     1      -9.581  10.095  64.682  1.00  0.00    -0.278 OA 
HETATM   20  H   UNL     1      -9.744  10.171  63.750  1.00  0.00     0.000 HD 
ENDBRANCH  11  13
ENDBRANCH   7  11
ENDBRANCH   2   3
TORSDOF 3
ENDMDL
MODEL      222
REMARK 921   NORMALIZED FREE ENERGY PREDICTED BY IDOCK:   -3.36 KCAL/MOL
REMARK 922        TOTAL FREE ENERGY PREDICTED BY IDOCK:   -4.57 KCAL/MOL
REMARK 923 INTER-LIGAND FREE ENERGY PREDICTED BY IDOCK:   -3.80 KCAL/MOL
REMARK 924 INTRA-LIGAND FREE ENERGY PREDICTED BY IDOCK:   -0.77 KCAL/MOL
REMARK 927      BINDING AFFINITY PREDICTED BY RF-SCORE:    0.00 PKD
ROOT
HETATM    1  C   UNL     1     -11.841   4.618  73.116  1.00  0.00     0.014 C  
HETATM    2  O   UNL     1     -10.455   4.945  73.186  1.00  0.00    -0.173 OA 
ENDROOT
BRANCH   2   3
HETATM    3  C   UNL     1     -10.102   6.074  72.498  1.00  0.00    -0.178 A  
HETATM    4  C   UNL     1     -10.892   7.221  72.411  1.00  0.00    -0.293 A  
HETATM    5  C   UNL     1     -10.483   8.302  71.625  1.00  0.00    -0.238 A  
HETATM    6  O   UNL     1     -11.359   9.344  71.488  1.00  0.00    -0.354 OA 
HETATM    7  C   UNL     1      -9.254   8.280  70.955  1.00  0.00    -0.191 A  
HETATM    8  C   UNL     1      -8.863   6.045  71.861  1.00  0.00    -0.138 A  
HETATM    9  C   UNL     1      -8.444   7.138  71.094  1.00  0.00    -0.121 A  
HETATM   10  H   UNL     1     -11.081  10.078  70.953  1.00  0.00     0.000 HD 
BRANCH   7  11
HETATM   11  C   UNL     1      -8.757   9.344  70.037  1.00  0.00    -0.210 C  
HETATM   12  O   UNL     1      -7.790  10.024  70.388  1.00  0.00    -0.216 OA 
BRANCH  11  13
HETATM   13  C   UNL     1      -9.301   9.593  68.677  1.00  0.00    -0.143 A  
HETATM   14  C   UNL     1      -9.397   8.487  67.816  1.00  0.00    -0.153 A  
HETATM   15  C   UNL     1      -9.932   8.630  66.534  1.00  0.00    -0.353 A  
HETATM   16  C   UNL     1     -10.374   9.878  66.104  1.00  0.00    -0.223 A  
HETATM   17  C   UNL     1     -10.244  10.993  66.937  1.00  0.00    -0.263 A  
HETATM   18  C   UNL     1      -9.687  10.855  68.210  1.00  0.00    -0.165 A  
HETATM   19  O   UNL     1      -9.510  11.967  68.986  1.00  0.00    -0.406 OA 
HETATM   20  H   UNL     1      -9.772  12.823  68.670  1.00  0.00     0.000 HD 
ENDBRANCH  11  13
ENDBRANCH   7  11
ENDBRANCH   2   3
TORSDOF 3
ENDMDL
MODEL      223
REMARK 921   NORMALIZED FREE ENERGY PREDICTED BY IDOCK:   -3.36 KCAL/MOL
REMARK 922        TOTAL FREE ENERGY PREDICTED BY IDOCK:   -4.57 KCAL/MOL
REMARK 923 INTER-LIGAND FREE ENERGY PREDICTED BY IDOCK:   -3.98 KCAL/MOL
REMARK 924 INTRA-LIGAND FREE ENERGY PREDICTED BY IDOCK:   -0.59 KCAL/MOL
REMARK 927      BINDING AFFINITY PREDICTED BY RF-SCORE:    0.00 PKD
ROOT
HETATM    1  C   UNL     1      -8.592  10.035  67.709  1.00  0.00    -0.118 C  
HETATM    2  O   UNL     1      -7.978  11.036  66.901  1.00  0.00    -0.130 OA 
ENDROOT
BRANCH   2   3
HETATM    3  C   UNL     1      -8.050  12.303  67.413  1.00  0.00    -0.175 A  
HETATM    4  C   UNL     1      -9.096  12.771  68.209  1.00  0.00    -0.180 A  
HETATM    5  C   UNL     1      -9.122  14.104  68.629  1.00  0.00    -0.138 A  
HETATM    6  O   UNL     1     -10.235  14.527  69.304  1.00  0.00    -0.350 OA 
HETATM    7  C   UNL     1      -8.077  14.979  68.309  1.00  0.00    -0.133 A  
HETATM    8  C   UNL     1      -6.988  13.152  67.109  1.00  0.00     0.141 A  
HETATM    9  C   UNL     1      -7.003  14.480  67.550  1.00  0.00    -0.188 A  
HETATM   10  H   UNL     1     -10.252  15.433  69.589  1.00  0.00     0.000 HD 
BRANCH   7  11
HETATM   11  C   UNL     1      -8.041  16.431  68.643  1.00  0.00    -0.218 C  
HETATM   12  O   UNL     1      -7.314  16.808  69.565  1.00  0.00    -0.146 OA 
BRANCH  11  13
HETATM   13  C   UNL     1      -8.766  17.481  67.881  1.00  0.00    -0.247 A  
HETATM   14  C   UNL     1     -10.034  17.853  68.356  1.00  0.00    -0.367 A  
HETATM   15  C   UNL     1     -10.764  18.858  67.719  1.00  0.00    -0.426 A  
HETATM   16  C   UNL     1     -10.232  19.498  66.602  1.00  0.00    -0.553 A  
HETATM   17  C   UNL     1      -8.989  19.107  66.097  1.00  0.00    -0.232 A  
HETATM   18  C   UNL     1      -8.269  18.085  66.720  1.00  0.00    -0.251 A  
HETATM   19  O   UNL     1      -7.085  17.674  66.173  1.00  0.00    -0.268 OA 
HETATM   20  H   UNL     1      -6.748  18.083  65.385  1.00  0.00     0.000 HD 
ENDBRANCH  11  13
ENDBRANCH   7  11
ENDBRANCH   2   3
TORSDOF 3
ENDMDL
MODEL      224
REMARK 921   NORMALIZED FREE ENERGY PREDICTED BY IDOCK:   -3.28 KCAL/MOL
REMARK 922        TOTAL FREE ENERGY PREDICTED BY IDOCK:   -4.48 KCAL/MOL
REMARK 923 INTER-LIGAND FREE ENERGY PREDICTED BY IDOCK:   -4.21 KCAL/MOL
REMARK 924 INTRA-LIGAND FREE ENERGY PREDICTED BY IDOCK:   -0.26 KCAL/MOL
REMARK 927      BINDING AFFINITY PREDICTED BY RF-SCORE:    0.00 PKD
ROOT
HETATM    1  C   UNL     1     -11.708   5.189  72.941  1.00  0.00    -0.139 C  
HETATM    2  O   UNL     1     -10.887   6.347  73.081  1.00  0.00    -0.253 OA 
ENDROOT
BRANCH   2   3
HETATM    3  C   UNL     1     -10.950   7.219  72.028  1.00  0.00    -0.238 A  
HETATM    4  C   UNL     1     -10.957   6.834  70.687  1.00  0.00    -0.313 A  
HETATM    5  C   UNL     1     -10.951   7.798  69.676  1.00  0.00    -0.122 A  
HETATM    6  O   UNL     1     -10.837   7.354  68.386  1.00  0.00    -0.384 OA 
HETATM    7  C   UNL     1     -10.994   9.164  69.983  1.00  0.00    -0.240 A  
HETATM    8  C   UNL     1     -11.021   8.572  72.353  1.00  0.00    -0.390 A  
HETATM    9  C   UNL     1     -11.039   9.537  71.339  1.00  0.00    -0.438 A  
HETATM   10  H   UNL     1     -10.832   8.009  67.699  1.00  0.00     0.000 HD 
BRANCH   7  11
HETATM   11  C   UNL     1     -10.918  10.270  68.988  1.00  0.00    -0.232 C  
HETATM   12  O   UNL     1     -11.967  10.707  68.508  1.00  0.00    -0.425 OA 
BRANCH  11  13
HETATM   13  C   UNL     1      -9.658  10.949  68.589  1.00  0.00    -0.192 A  
HETATM   14  C   UNL     1      -9.730  12.327  68.329  1.00  0.00    -0.219 A  
HETATM   15  C   UNL     1      -8.584  13.046  67.984  1.00  0.00    -0.186 A  
HETATM   16  C   UNL     1      -7.357  12.392  67.896  1.00  0.00    -0.112 A  
HETATM   17  C   UNL     1      -7.282  11.013  68.112  1.00  0.00    -0.083 A  
HETATM   18  C   UNL     1      -8.433  10.290  68.434  1.00  0.00    -0.124 A  
HETATM   19  O   UNL     1      -8.349   8.932  68.579  1.00  0.00    -0.122 OA 
HETATM   20  H   UNL     1      -7.518   8.485  68.473  1.00  0.00     0.000 HD 
ENDBRANCH  11  13
ENDBRANCH   7  11
ENDBRANCH   2   3
TORSDOF 3
ENDMDL
MODEL      225
REMARK 921   NORMALIZED FREE ENERGY PREDICTED BY IDOCK:   -3.26 KCAL/MOL
REMARK 922        TOTAL FREE ENERGY PREDICTED BY IDOCK:   -4.45 KCAL/MOL
REMARK 923 INTER-LIGAND FREE ENERGY PREDICTED BY IDOCK:   -3.55 KCAL/MOL
REMARK 924 INTRA-LIGAND FREE ENERGY PREDICTED BY IDOCK:   -0.90 KCAL/MOL
REMARK 927      BINDING AFFINITY PREDICTED BY RF-SCORE:    0.00 PKD
ROOT
HETATM    1  C   UNL     1      -7.133   6.829  68.546  1.00  0.00    -0.083 C  
HETATM    2  O   UNL     1      -6.682   7.872  67.684  1.00  0.00    -0.064 OA 
ENDROOT
BRANCH   2   3
HETATM    3  C   UNL     1      -7.316   9.071  67.863  1.00  0.00    -0.084 A  
HETATM    4  C   UNL     1      -6.816  10.117  68.640  1.00  0.00    -0.057 A  
HETATM    5  C   UNL     1      -7.567  11.281  68.825  1.00  0.00    -0.130 A  
HETATM    6  O   UNL     1      -7.072  12.214  69.695  1.00  0.00    -0.341 OA 
HETATM    7  C   UNL     1      -8.806  11.445  68.193  1.00  0.00    -0.162 A  
HETATM    8  C   UNL     1      -8.533   9.228  67.204  1.00  0.00    -0.124 A  
HETATM    9  C   UNL     1      -9.274  10.404  67.371  1.00  0.00    -0.154 A  
HETATM   10  H   UNL     1      -7.583  13.005  69.820  1.00  0.00     0.000 HD 
BRANCH   7  11
HETATM   11  C   UNL     1      -9.716  12.610  68.380  1.00  0.00    -0.187 C  
HETATM   12  O   UNL     1     -10.692  12.484  69.124  1.00  0.00    -0.153 OA 
BRANCH  11  13
HETATM   13  C   UNL     1      -9.485  13.954  67.790  1.00  0.00    -0.214 A  
HETATM   14  C   UNL     1      -9.766  14.107  66.423  1.00  0.00    -0.313 A  
HETATM   15  C   UNL     1      -9.610  15.347  65.800  1.00  0.00    -0.368 A  
HETATM   16  C   UNL     1      -9.172  16.442  66.540  1.00  0.00    -0.306 A  
HETATM   17  C   UNL     1      -8.850  16.291  67.891  1.00  0.00    -0.183 A  
HETATM   18  C   UNL     1      -8.982  15.045  68.509  1.00  0.00    -0.186 A  
HETATM   19  O   UNL     1      -8.602  14.902  69.815  1.00  0.00    -0.443 OA 
HETATM   20  H   UNL     1      -8.261  15.642  70.302  1.00  0.00     0.000 HD 
ENDBRANCH  11  13
ENDBRANCH   7  11
ENDBRANCH   2   3
TORSDOF 3
ENDMDL
MODEL      226
REMARK 921   NORMALIZED FREE ENERGY PREDICTED BY IDOCK:   -3.25 KCAL/MOL
REMARK 922        TOTAL FREE ENERGY PREDICTED BY IDOCK:   -4.45 KCAL/MOL
REMARK 923 INTER-LIGAND FREE ENERGY PREDICTED BY IDOCK:   -3.62 KCAL/MOL
REMARK 924 INTRA-LIGAND FREE ENERGY PREDICTED BY IDOCK:   -0.82 KCAL/MOL
REMARK 927      BINDING AFFINITY PREDICTED BY RF-SCORE:    0.00 PKD
ROOT
HETATM    1  C   UNL     1      -6.735  11.294  66.327  1.00  0.00    -0.011 C  
HETATM    2  O   UNL     1      -7.908  11.455  67.122  1.00  0.00    -0.140 OA 
ENDROOT
BRANCH   2   3
HETATM    3  C   UNL     1      -8.466  10.284  67.556  1.00  0.00    -0.118 A  
HETATM    4  C   UNL     1      -7.824   9.046  67.520  1.00  0.00    -0.100 A  
HETATM    5  C   UNL     1      -8.499   7.889  67.919  1.00  0.00    -0.126 A  
HETATM    6  O   UNL     1      -7.852   6.695  67.745  1.00  0.00    -0.108 OA 
HETATM    7  C   UNL     1      -9.807   7.953  68.413  1.00  0.00    -0.185 A  
HETATM    8  C   UNL     1      -9.758  10.371  68.071  1.00  0.00    -0.166 A  
HETATM    9  C   UNL     1     -10.424   9.215  68.492  1.00  0.00    -0.238 A  
HETATM   10  H   UNL     1      -8.311   5.909  68.016  1.00  0.00     0.000 HD 
BRANCH   7  11
HETATM   11  C   UNL     1     -10.639   6.777  68.795  1.00  0.00    -0.226 C  
HETATM   12  O   UNL     1     -11.067   6.041  67.902  1.00  0.00    -0.301 OA 
BRANCH  11  13
HETATM   13  C   UNL     1     -10.926   6.378  70.197  1.00  0.00    -0.395 A  
HETATM   14  C   UNL     1     -12.148   6.804  70.743  1.00  0.00    -0.402 A  
HETATM   15  C   UNL     1     -12.509   6.439  72.042  1.00  0.00    -0.212 A  
HETATM   16  C   UNL     1     -11.653   5.648  72.803  1.00  0.00    -0.289 A  
HETATM   17  C   UNL     1     -10.417   5.254  72.283  1.00  0.00    -0.273 A  
HETATM   18  C   UNL     1     -10.044   5.638  70.993  1.00  0.00    -0.207 A  
HETATM   19  O   UNL     1      -8.805   5.296  70.526  1.00  0.00    -0.127 OA 
HETATM   20  H   UNL     1      -8.207   4.794  71.066  1.00  0.00     0.000 HD 
ENDBRANCH  11  13
ENDBRANCH   7  11
ENDBRANCH   2   3
TORSDOF 3
ENDMDL
MODEL      227
REMARK 921   NORMALIZED FREE ENERGY PREDICTED BY IDOCK:   -3.22 KCAL/MOL
REMARK 922        TOTAL FREE ENERGY PREDICTED BY IDOCK:   -4.41 KCAL/MOL
REMARK 923 INTER-LIGAND FREE ENERGY PREDICTED BY IDOCK:   -3.77 KCAL/MOL
REMARK 924 INTRA-LIGAND FREE ENERGY PREDICTED BY IDOCK:   -0.64 KCAL/MOL
REMARK 927      BINDING AFFINITY PREDICTED BY RF-SCORE:    0.00 PKD
ROOT
HETATM    1  C   UNL     1      -6.485   2.137  66.832  1.00  0.00    -0.028 C  
HETATM    2  O   UNL     1      -7.307   2.159  67.998  1.00  0.00    -0.047 OA 
ENDROOT
BRANCH   2   3
HETATM    3  C   UNL     1      -8.228   3.171  68.024  1.00  0.00    -0.078 A  
HETATM    4  C   UNL     1      -8.733   3.804  66.889  1.00  0.00    -0.118 A  
HETATM    5  C   UNL     1      -9.619   4.878  67.015  1.00  0.00    -0.159 A  
HETATM    6  O   UNL     1      -9.981   5.530  65.867  1.00  0.00    -0.341 OA 
HETATM    7  C   UNL     1     -10.059   5.304  68.274  1.00  0.00    -0.219 A  
HETATM    8  C   UNL     1      -8.676   3.562  69.284  1.00  0.00    -0.133 A  
HETATM    9  C   UNL     1      -9.581   4.622  69.408  1.00  0.00    -0.257 A  
HETATM   10  H   UNL     1     -10.583   6.260  65.953  1.00  0.00     0.000 HD 
BRANCH   7  11
HETATM   11  C   UNL     1     -10.941   6.479  68.523  1.00  0.00    -0.286 C  
HETATM   12  O   UNL     1     -11.647   6.894  67.600  1.00  0.00     0.144 OA 
BRANCH  11  13
HETATM   13  C   UNL     1     -11.092   7.145  69.843  1.00  0.00    -0.264 A  
HETATM   14  C   UNL     1     -11.903   6.503  70.791  1.00  0.00    -0.394 A  
HETATM   15  C   UNL     1     -12.067   7.044  72.068  1.00  0.00    -0.329 A  
HETATM   16  C   UNL     1     -11.421   8.230  72.405  1.00  0.00    -0.463 A  
HETATM   17  C   UNL     1     -10.644   8.899  71.455  1.00  0.00    -0.399 A  
HETATM   18  C   UNL     1     -10.500   8.370  70.170  1.00  0.00    -0.228 A  
HETATM   19  O   UNL     1      -9.788   9.071  69.236  1.00  0.00    -0.171 OA 
HETATM   20  H   UNL     1      -9.387   9.902  69.458  1.00  0.00     0.000 HD 
ENDBRANCH  11  13
ENDBRANCH   7  11
ENDBRANCH   2   3
TORSDOF 3
ENDMDL
MODEL      228
REMARK 921   NORMALIZED FREE ENERGY PREDICTED BY IDOCK:   -3.20 KCAL/MOL
REMARK 922        TOTAL FREE ENERGY PREDICTED BY IDOCK:   -4.38 KCAL/MOL
REMARK 923 INTER-LIGAND FREE ENERGY PREDICTED BY IDOCK:   -3.69 KCAL/MOL
REMARK 924 INTRA-LIGAND FREE ENERGY PREDICTED BY IDOCK:   -0.70 KCAL/MOL
REMARK 927      BINDING AFFINITY PREDICTED BY RF-SCORE:    0.00 PKD
ROOT
HETATM    1  C   UNL     1      -7.511   8.246  73.843  1.00  0.00    -0.154 C  
HETATM    2  O   UNL     1      -8.900   8.474  73.613  1.00  0.00    -0.249 OA 
ENDROOT
BRANCH   2   3
HETATM    3  C   UNL     1      -9.339   8.101  72.371  1.00  0.00    -0.240 A  
HETATM    4  C   UNL     1     -10.667   7.802  72.064  1.00  0.00    -0.282 A  
HETATM    5  C   UNL     1     -11.013   7.360  70.784  1.00  0.00    -0.255 A  
HETATM    6  O   UNL     1     -12.309   6.970  70.585  1.00  0.00    -0.565 OA 
HETATM    7  C   UNL     1     -10.050   7.260  69.773  1.00  0.00    -0.196 A  
HETATM    8  C   UNL     1      -8.372   8.035  71.371  1.00  0.00    -0.131 A  
HETATM    9  C   UNL     1      -8.724   7.614  70.083  1.00  0.00    -0.141 A  
HETATM   10  H   UNL     1     -12.544   6.669  69.715  1.00  0.00     0.000 HD 
BRANCH   7  11
HETATM   11  C   UNL     1     -10.297   6.733  68.401  1.00  0.00    -0.191 C  
HETATM   12  O   UNL     1     -11.460   6.519  68.051  1.00  0.00    -0.145 OA 
BRANCH  11  13
HETATM   13  C   UNL     1      -9.234   6.520  67.385  1.00  0.00    -0.122 A  
HETATM   14  C   UNL     1      -8.308   5.494  67.635  1.00  0.00    -0.100 A  
HETATM   15  C   UNL     1      -7.301   5.206  66.712  1.00  0.00    -0.086 A  
HETATM   16  C   UNL     1      -7.212   5.941  65.532  1.00  0.00    -0.074 A  
HETATM   17  C   UNL     1      -8.103   6.990  65.292  1.00  0.00    -0.134 A  
HETATM   18  C   UNL     1      -9.096   7.295  66.227  1.00  0.00    -0.149 A  
HETATM   19  O   UNL     1      -9.917   8.366  66.004  1.00  0.00    -0.474 OA 
HETATM   20  H   UNL     1      -9.823   8.891  65.219  1.00  0.00     0.000 HD 
ENDBRANCH  11  13
ENDBRANCH   7  11
ENDBRANCH   2   3
TORSDOF 3
ENDMDL
MODEL      229
REMARK 921   NORMALIZED FREE ENERGY PREDICTED BY IDOCK:   -3.18 KCAL/MOL
REMARK 922        TOTAL FREE ENERGY PREDICTED BY IDOCK:   -4.36 KCAL/MOL
REMARK 923 INTER-LIGAND FREE ENERGY PREDICTED BY IDOCK:   -3.63 KCAL/MOL
REMARK 924 INTRA-LIGAND FREE ENERGY PREDICTED BY IDOCK:   -0.73 KCAL/MOL
REMARK 927      BINDING AFFINITY PREDICTED BY RF-SCORE:    0.00 PKD
ROOT
HETATM    1  C   UNL     1     -11.388  14.864  65.891  1.00  0.00    -0.306 C  
HETATM    2  O   UNL     1     -11.823  13.709  66.607  1.00  0.00    -0.364 OA 
ENDROOT
BRANCH   2   3
HETATM    3  C   UNL     1     -10.811  12.931  67.100  1.00  0.00    -0.256 A  
HETATM    4  C   UNL     1      -9.456  13.151  66.848  1.00  0.00    -0.244 A  
HETATM    5  C   UNL     1      -8.494  12.261  67.334  1.00  0.00    -0.176 A  
HETATM    6  O   UNL     1      -7.197  12.470  66.950  1.00  0.00    -0.370 OA 
HETATM    7  C   UNL     1      -8.862  11.167  68.126  1.00  0.00    -0.148 A  
HETATM    8  C   UNL     1     -11.193  11.864  67.909  1.00  0.00    -0.325 A  
HETATM    9  C   UNL     1     -10.227  10.987  68.415  1.00  0.00    -0.198 A  
HETATM   10  H   UNL     1      -6.544  11.865  67.280  1.00  0.00     0.000 HD 
BRANCH   7  11
HETATM   11  C   UNL     1      -7.928  10.122  68.632  1.00  0.00    -0.103 C  
HETATM   12  O   UNL     1      -6.718  10.266  68.438  1.00  0.00    -0.057 OA 
BRANCH  11  13
HETATM   13  C   UNL     1      -8.349   8.944  69.434  1.00  0.00    -0.112 A  
HETATM   14  C   UNL     1      -8.303   9.074  70.831  1.00  0.00    -0.238 A  
HETATM   15  C   UNL     1      -8.717   8.026  71.656  1.00  0.00    -0.169 A  
HETATM   16  C   UNL     1      -9.180   6.841  71.090  1.00  0.00    -0.159 A  
HETATM   17  C   UNL     1      -9.191   6.686  69.701  1.00  0.00    -0.145 A  
HETATM   18  C   UNL     1      -8.754   7.725  68.876  1.00  0.00    -0.135 A  
HETATM   19  O   UNL     1      -8.712   7.531  67.523  1.00  0.00    -0.124 OA 
HETATM   20  H   UNL     1      -8.986   6.704  67.145  1.00  0.00     0.000 HD 
ENDBRANCH  11  13
ENDBRANCH   7  11
ENDBRANCH   2   3
TORSDOF 3
ENDMDL
MODEL      230
REMARK 921   NORMALIZED FREE ENERGY PREDICTED BY IDOCK:   -3.17 KCAL/MOL
REMARK 922        TOTAL FREE ENERGY PREDICTED BY IDOCK:   -4.35 KCAL/MOL
REMARK 923 INTER-LIGAND FREE ENERGY PREDICTED BY IDOCK:   -4.65 KCAL/MOL
REMARK 924 INTRA-LIGAND FREE ENERGY PREDICTED BY IDOCK:    0.30 KCAL/MOL
REMARK 927      BINDING AFFINITY PREDICTED BY RF-SCORE:    0.00 PKD
ROOT
HETATM    1  C   UNL     1     -10.405  18.335  66.256  1.00  0.00    -0.405 C  
HETATM    2  O   UNL     1     -10.678  17.136  65.534  1.00  0.00    -0.493 OA 
ENDROOT
BRANCH   2   3
HETATM    3  C   UNL     1     -10.165  16.001  66.100  1.00  0.00    -0.324 A  
HETATM    4  C   UNL     1      -8.826  15.837  66.457  1.00  0.00    -0.345 A  
HETATM    5  C   UNL     1      -8.376  14.615  66.964  1.00  0.00    -0.185 A  
HETATM    6  O   UNL     1      -7.031  14.484  67.181  1.00  0.00    -0.355 OA 
HETATM    7  C   UNL     1      -9.263  13.553  67.176  1.00  0.00    -0.236 A  
HETATM    8  C   UNL     1     -11.068  14.965  66.330  1.00  0.00    -0.342 A  
HETATM    9  C   UNL     1     -10.620  13.750  66.861  1.00  0.00    -0.276 A  
HETATM   10  H   UNL     1      -6.725  13.653  67.525  1.00  0.00     0.000 HD 
BRANCH   7  11
HETATM   11  C   UNL     1      -8.877  12.191  67.642  1.00  0.00    -0.172 C  
HETATM   12  O   UNL     1      -8.542  12.042  68.820  1.00  0.00    -0.062 OA 
BRANCH  11  13
HETATM   13  C   UNL     1      -8.944  10.970  66.798  1.00  0.00    -0.163 A  
HETATM   14  C   UNL     1      -8.775   9.737  67.447  1.00  0.00    -0.133 A  
HETATM   15  C   UNL     1      -8.861   8.541  66.731  1.00  0.00    -0.158 A  
HETATM   16  C   UNL     1      -9.117   8.569  65.363  1.00  0.00    -0.103 A  
HETATM   17  C   UNL     1      -9.246   9.793  64.700  1.00  0.00    -0.312 A  
HETATM   18  C   UNL     1      -9.136  10.990  65.411  1.00  0.00    -0.195 A  
HETATM   19  O   UNL     1      -9.201  12.177  64.735  1.00  0.00    -0.389 OA 
HETATM   20  H   UNL     1      -9.331  12.191  63.795  1.00  0.00     0.000 HD 
ENDBRANCH  11  13
ENDBRANCH   7  11
ENDBRANCH   2   3
TORSDOF 3
ENDMDL
MODEL      231
REMARK 921   NORMALIZED FREE ENERGY PREDICTED BY IDOCK:   -3.16 KCAL/MOL
REMARK 922        TOTAL FREE ENERGY PREDICTED BY IDOCK:   -4.34 KCAL/MOL
REMARK 923 INTER-LIGAND FREE ENERGY PREDICTED BY IDOCK:   -3.58 KCAL/MOL
REMARK 924 INTRA-LIGAND FREE ENERGY PREDICTED BY IDOCK:   -0.77 KCAL/MOL
REMARK 927      BINDING AFFINITY PREDICTED BY RF-SCORE:    0.00 PKD
ROOT
HETATM    1  C   UNL     1     -13.888   8.144  72.204  1.00  0.00    -0.240 C  
HETATM    2  O   UNL     1     -12.876   9.110  72.479  1.00  0.00    -0.388 OA 
ENDROOT
BRANCH   2   3
HETATM    3  C   UNL     1     -11.806   9.072  71.627  1.00  0.00    -0.360 A  
HETATM    4  C   UNL     1     -10.721   8.206  71.766  1.00  0.00    -0.313 A  
HETATM    5  C   UNL     1      -9.636   8.287  70.888  1.00  0.00    -0.165 A  
HETATM    6  O   UNL     1      -8.554   7.493  71.153  1.00  0.00    -0.120 OA 
HETATM    7  C   UNL     1      -9.640   9.195  69.822  1.00  0.00    -0.191 A  
HETATM    8  C   UNL     1     -11.840   9.962  70.556  1.00  0.00    -0.350 A  
HETATM    9  C   UNL     1     -10.765  10.026  69.663  1.00  0.00    -0.282 A  
HETATM   10  H   UNL     1      -7.818   7.548  70.556  1.00  0.00     0.000 HD 
BRANCH   7  11
HETATM   11  C   UNL     1      -8.510   9.413  68.875  1.00  0.00    -0.122 C  
HETATM   12  O   UNL     1      -8.046   8.440  68.275  1.00  0.00    -0.117 OA 
BRANCH  11  13
HETATM   13  C   UNL     1      -7.948  10.747  68.539  1.00  0.00    -0.130 A  
HETATM   14  C   UNL     1      -8.198  11.236  67.247  1.00  0.00    -0.140 A  
HETATM   15  C   UNL     1      -7.737  12.497  66.864  1.00  0.00     0.050 A  
HETATM   16  C   UNL     1      -7.021  13.277  67.770  1.00  0.00    -0.154 A  
HETATM   17  C   UNL     1      -6.731  12.782  69.043  1.00  0.00    -0.096 A  
HETATM   18  C   UNL     1      -7.172  11.510  69.419  1.00  0.00     0.002 A  
HETATM   19  O   UNL     1      -6.824  11.018  70.646  1.00  0.00    -0.460 OA 
HETATM   20  H   UNL     1      -6.297  11.536  71.243  1.00  0.00     0.000 HD 
ENDBRANCH  11  13
ENDBRANCH   7  11
ENDBRANCH   2   3
TORSDOF 3
ENDMDL
MODEL      232
REMARK 921   NORMALIZED FREE ENERGY PREDICTED BY IDOCK:   -3.13 KCAL/MOL
REMARK 922        TOTAL FREE ENERGY PREDICTED BY IDOCK:   -4.30 KCAL/MOL
REMARK 923 INTER-LIGAND FREE ENERGY PREDICTED BY IDOCK:   -3.58 KCAL/MOL
REMARK 924 INTRA-LIGAND FREE ENERGY PREDICTED BY IDOCK:   -0.72 KCAL/MOL
REMARK 927      BINDING AFFINITY PREDICTED BY RF-SCORE:    0.00 PKD
ROOT
HETATM    1  C   UNL     1     -14.201   8.368  71.728  1.00  0.00    -0.458 C  
HETATM    2  O   UNL     1     -13.584   7.205  71.179  1.00  0.00    -0.306 OA 
ENDROOT
BRANCH   2   3
HETATM    3  C   UNL     1     -12.242   7.103  71.426  1.00  0.00    -0.362 A  
HETATM    4  C   UNL     1     -11.650   7.349  72.665  1.00  0.00    -0.295 A  
HETATM    5  C   UNL     1     -10.261   7.290  72.807  1.00  0.00    -0.224 A  
HETATM    6  O   UNL     1      -9.738   7.660  74.017  1.00  0.00    -0.386 OA 
HETATM    7  C   UNL     1      -9.442   6.930  71.730  1.00  0.00    -0.155 A  
HETATM    8  C   UNL     1     -11.446   6.716  70.350  1.00  0.00    -0.444 A  
HETATM    9  C   UNL     1     -10.057   6.634  70.500  1.00  0.00    -0.209 A  
HETATM   10  H   UNL     1      -8.794   7.620  74.113  1.00  0.00     0.000 HD 
BRANCH   7  11
HETATM   11  C   UNL     1      -7.952   6.908  71.754  1.00  0.00    -0.100 C  
HETATM   12  O   UNL     1      -7.379   5.820  71.856  1.00  0.00    -0.089 OA 
BRANCH  11  13
HETATM   13  C   UNL     1      -7.096   8.110  71.580  1.00  0.00    -0.075 A  
HETATM   14  C   UNL     1      -7.415   8.972  70.519  1.00  0.00    -0.099 A  
HETATM   15  C   UNL     1      -6.683  10.142  70.310  1.00  0.00    -0.143 A  
HETATM   16  C   UNL     1      -5.626  10.459  71.160  1.00  0.00    -0.050 A  
HETATM   17  C   UNL     1      -5.274   9.587  72.194  1.00  0.00    -0.076 A  
HETATM   18  C   UNL     1      -5.991   8.404  72.388  1.00  0.00    -0.064 A  
HETATM   19  O   UNL     1      -5.592   7.533  73.365  1.00  0.00    -0.045 OA 
HETATM   20  H   UNL     1      -4.843   7.733  73.913  1.00  0.00     0.000 HD 
ENDBRANCH  11  13
ENDBRANCH   7  11
ENDBRANCH   2   3
TORSDOF 3
ENDMDL
MODEL      233
REMARK 921   NORMALIZED FREE ENERGY PREDICTED BY IDOCK:   -3.12 KCAL/MOL
REMARK 922        TOTAL FREE ENERGY PREDICTED BY IDOCK:   -4.29 KCAL/MOL
REMARK 923 INTER-LIGAND FREE ENERGY PREDICTED BY IDOCK:   -3.47 KCAL/MOL
REMARK 924 INTRA-LIGAND FREE ENERGY PREDICTED BY IDOCK:   -0.81 KCAL/MOL
REMARK 927      BINDING AFFINITY PREDICTED BY RF-SCORE:    0.00 PKD
ROOT
HETATM    1  C   UNL     1     -14.222   8.603  71.960  1.00  0.00    -0.443 C  
HETATM    2  O   UNL     1     -13.699   7.342  71.548  1.00  0.00    -0.385 OA 
ENDROOT
BRANCH   2   3
HETATM    3  C   UNL     1     -12.340   7.315  71.389  1.00  0.00    -0.368 A  
HETATM    4  C   UNL     1     -11.438   7.996  72.208  1.00  0.00    -0.419 A  
HETATM    5  C   UNL     1     -10.070   7.970  71.926  1.00  0.00    -0.203 A  
HETATM    6  O   UNL     1      -9.256   8.755  72.696  1.00  0.00    -0.327 OA 
HETATM    7  C   UNL     1      -9.570   7.219  70.855  1.00  0.00    -0.170 A  
HETATM    8  C   UNL     1     -11.859   6.540  70.336  1.00  0.00    -0.378 A  
HETATM    9  C   UNL     1     -10.486   6.495  70.069  1.00  0.00    -0.257 A  
HETATM   10  H   UNL     1      -8.326   8.737  72.505  1.00  0.00     0.000 HD 
BRANCH   7  11
HETATM   11  C   UNL     1      -8.144   7.180  70.425  1.00  0.00    -0.118 C  
HETATM   12  O   UNL     1      -7.662   8.179  69.885  1.00  0.00    -0.093 OA 
BRANCH  11  13
HETATM   13  C   UNL     1      -7.227   6.038  70.677  1.00  0.00    -0.080 A  
HETATM   14  C   UNL     1      -6.893   5.234  69.576  1.00  0.00    -0.053 A  
HETATM   15  C   UNL     1      -6.008   4.163  69.721  1.00  0.00    -0.018 A  
HETATM   16  C   UNL     1      -5.451   3.890  70.968  1.00  0.00    -0.008 A  
HETATM   17  C   UNL     1      -5.809   4.659  72.078  1.00  0.00    -0.016 A  
HETATM   18  C   UNL     1      -6.713   5.715  71.938  1.00  0.00    -0.059 A  
HETATM   19  O   UNL     1      -7.099   6.415  73.048  1.00  0.00    -0.081 OA 
HETATM   20  H   UNL     1      -6.750   6.195  73.903  1.00  0.00     0.000 HD 
ENDBRANCH  11  13
ENDBRANCH   7  11
ENDBRANCH   2   3
TORSDOF 3
ENDMDL
MODEL      234
REMARK 921   NORMALIZED FREE ENERGY PREDICTED BY IDOCK:   -3.10 KCAL/MOL
REMARK 922        TOTAL FREE ENERGY PREDICTED BY IDOCK:   -4.27 KCAL/MOL
REMARK 923 INTER-LIGAND FREE ENERGY PREDICTED BY IDOCK:   -3.51 KCAL/MOL
REMARK 924 INTRA-LIGAND FREE ENERGY PREDICTED BY IDOCK:   -0.76 KCAL/MOL
REMARK 927      BINDING AFFINITY PREDICTED BY RF-SCORE:    0.00 PKD
ROOT
HETATM    1  C   UNL     1     -14.405   8.343  71.560  1.00  0.00    -0.408 C  
HETATM    2  O   UNL     1     -13.485   7.287  71.292  1.00  0.00    -0.369 OA 
ENDROOT
BRANCH   2   3
HETATM    3  C   UNL     1     -12.172   7.673  71.252  1.00  0.00    -0.315 A  
HETATM    4  C   UNL     1     -11.735   8.929  70.833  1.00  0.00    -0.312 A  
HETATM    5  C   UNL     1     -10.368   9.212  70.756  1.00  0.00    -0.258 A  
HETATM    6  O   UNL     1     -10.007  10.419  70.223  1.00  0.00    -0.397 OA 
HETATM    7  C   UNL     1      -9.415   8.264  71.148  1.00  0.00    -0.206 A  
HETATM    8  C   UNL     1     -11.239   6.728  71.673  1.00  0.00    -0.293 A  
HETATM    9  C   UNL     1      -9.872   7.020  71.619  1.00  0.00    -0.169 A  
HETATM   10  H   UNL     1      -9.078  10.611  70.171  1.00  0.00     0.000 HD 
BRANCH   7  11
HETATM   11  C   UNL     1      -7.939   8.436  71.038  1.00  0.00    -0.106 C  
HETATM   12  O   UNL     1      -7.415   9.415  71.577  1.00  0.00    -0.337 OA 
BRANCH  11  13
HETATM   13  C   UNL     1      -7.031   7.457  70.387  1.00  0.00    -0.056 A  
HETATM   14  C   UNL     1      -6.111   6.791  71.213  1.00  0.00    -0.037 A  
HETATM   15  C   UNL     1      -5.248   5.829  70.685  1.00  0.00    -0.009 A  
HETATM   16  C   UNL     1      -5.298   5.526  69.327  1.00  0.00    -0.004 A  
HETATM   17  C   UNL     1      -6.181   6.211  68.488  1.00  0.00    -0.035 A  
HETATM   18  C   UNL     1      -7.028   7.191  69.012  1.00  0.00    -0.075 A  
HETATM   19  O   UNL     1      -7.839   7.895  68.166  1.00  0.00    -0.121 OA 
HETATM   20  H   UNL     1      -7.837   7.716  67.233  1.00  0.00     0.000 HD 
ENDBRANCH  11  13
ENDBRANCH   7  11
ENDBRANCH   2   3
TORSDOF 3
ENDMDL
MODEL      235
REMARK 921   NORMALIZED FREE ENERGY PREDICTED BY IDOCK:   -3.09 KCAL/MOL
REMARK 922        TOTAL FREE ENERGY PREDICTED BY IDOCK:   -4.25 KCAL/MOL
REMARK 923 INTER-LIGAND FREE ENERGY PREDICTED BY IDOCK:   -3.64 KCAL/MOL
REMARK 924 INTRA-LIGAND FREE ENERGY PREDICTED BY IDOCK:   -0.61 KCAL/MOL
REMARK 927      BINDING AFFINITY PREDICTED BY RF-SCORE:    0.00 PKD
ROOT
HETATM    1  C   UNL     1     -14.409   7.488  71.585  1.00  0.00    -0.477 C  
HETATM    2  O   UNL     1     -13.256   8.215  72.003  1.00  0.00    -0.319 OA 
ENDROOT
BRANCH   2   3
HETATM    3  C   UNL     1     -12.155   8.041  71.208  1.00  0.00    -0.291 A  
HETATM    4  C   UNL     1     -11.998   6.993  70.301  1.00  0.00    -0.197 A  
HETATM    5  C   UNL     1     -10.808   6.853  69.582  1.00  0.00    -0.259 A  
HETATM    6  O   UNL     1     -10.674   5.738  68.801  1.00  0.00    -0.254 OA 
HETATM    7  C   UNL     1      -9.774   7.788  69.715  1.00  0.00    -0.176 A  
HETATM    8  C   UNL     1     -11.149   8.996  71.333  1.00  0.00    -0.399 A  
HETATM    9  C   UNL     1      -9.966   8.869  70.595  1.00  0.00    -0.265 A  
HETATM   10  H   UNL     1      -9.865   5.644  68.313  1.00  0.00     0.000 HD 
BRANCH   7  11
HETATM   11  C   UNL     1      -8.442   7.695  69.054  1.00  0.00    -0.132 C  
HETATM   12  O   UNL     1      -7.512   7.167  69.670  1.00  0.00    -0.092 OA 
BRANCH  11  13
HETATM   13  C   UNL     1      -8.171   8.124  67.657  1.00  0.00    -0.127 A  
HETATM   14  C   UNL     1      -8.134   7.119  66.677  1.00  0.00    -0.109 A  
HETATM   15  C   UNL     1      -7.922   7.443  65.336  1.00  0.00    -0.125 A  
HETATM   16  C   UNL     1      -7.746   8.774  64.964  1.00  0.00    -0.105 A  
HETATM   17  C   UNL     1      -7.739   9.777  65.937  1.00  0.00    -0.105 A  
HETATM   18  C   UNL     1      -7.927   9.450  67.282  1.00  0.00    -0.106 A  
HETATM   19  O   UNL     1      -7.854  10.438  68.226  1.00  0.00    -0.101 OA 
HETATM   20  H   UNL     1      -7.689  11.337  67.972  1.00  0.00     0.000 HD 
ENDBRANCH  11  13
ENDBRANCH   7  11
ENDBRANCH   2   3
TORSDOF 3
ENDMDL
MODEL      236
REMARK 921   NORMALIZED FREE ENERGY PREDICTED BY IDOCK:   -3.08 KCAL/MOL
REMARK 922        TOTAL FREE ENERGY PREDICTED BY IDOCK:   -4.25 KCAL/MOL
REMARK 923 INTER-LIGAND FREE ENERGY PREDICTED BY IDOCK:   -3.38 KCAL/MOL
REMARK 924 INTRA-LIGAND FREE ENERGY PREDICTED BY IDOCK:   -0.87 KCAL/MOL
REMARK 927      BINDING AFFINITY PREDICTED BY RF-SCORE:    0.00 PKD
ROOT
HETATM    1  C   UNL     1      -6.847   2.505  67.956  1.00  0.00    -0.043 C  
HETATM    2  O   UNL     1      -6.755   2.192  69.344  1.00  0.00    -0.032 OA 
ENDROOT
BRANCH   2   3
HETATM    3  C   UNL     1      -7.311   3.126  70.176  1.00  0.00    -0.041 A  
HETATM    4  C   UNL     1      -6.617   3.789  71.188  1.00  0.00    -0.030 A  
HETATM    5  C   UNL     1      -7.285   4.675  72.038  1.00  0.00    -0.067 A  
HETATM    6  O   UNL     1      -6.573   5.199  73.083  1.00  0.00    -0.061 OA 
HETATM    7  C   UNL     1      -8.644   4.958  71.858  1.00  0.00    -0.132 A  
HETATM    8  C   UNL     1      -8.657   3.415  69.964  1.00  0.00    -0.109 A  
HETATM    9  C   UNL     1      -9.319   4.321  70.800  1.00  0.00    -0.222 A  
HETATM   10  H   UNL     1      -7.027   5.801  73.660  1.00  0.00     0.000 HD 
BRANCH   7  11
HETATM   11  C   UNL     1      -9.466   5.827  72.747  1.00  0.00    -0.145 C  
HETATM   12  O   UNL     1      -9.406   5.649  73.966  1.00  0.00    -0.131 OA 
BRANCH  11  13
HETATM   13  C   UNL     1     -10.299   6.960  72.268  1.00  0.00    -0.219 A  
HETATM   14  C   UNL     1      -9.633   8.157  71.963  1.00  0.00    -0.284 A  
HETATM   15  C   UNL     1     -10.339   9.258  71.472  1.00  0.00    -0.364 A  
HETATM   16  C   UNL     1     -11.716   9.169  71.284  1.00  0.00    -0.396 A  
HETATM   17  C   UNL     1     -12.394   7.996  71.624  1.00  0.00    -0.344 A  
HETATM   18  C   UNL     1     -11.692   6.903  72.138  1.00  0.00    -0.288 A  
HETATM   19  O   UNL     1     -12.382   5.787  72.524  1.00  0.00    -0.469 OA 
HETATM   20  H   UNL     1     -13.326   5.748  72.436  1.00  0.00     0.000 HD 
ENDBRANCH  11  13
ENDBRANCH   7  11
ENDBRANCH   2   3
TORSDOF 3
ENDMDL
MODEL      237
REMARK 921   NORMALIZED FREE ENERGY PREDICTED BY IDOCK:   -3.08 KCAL/MOL
REMARK 922        TOTAL FREE ENERGY PREDICTED BY IDOCK:   -4.24 KCAL/MOL
REMARK 923 INTER-LIGAND FREE ENERGY PREDICTED BY IDOCK:   -3.63 KCAL/MOL
REMARK 924 INTRA-LIGAND FREE ENERGY PREDICTED BY IDOCK:   -0.62 KCAL/MOL
REMARK 927      BINDING AFFINITY PREDICTED BY RF-SCORE:    0.00 PKD
ROOT
HETATM    1  C   UNL     1      -9.264  14.570  67.748  1.00  0.00    -0.194 C  
HETATM    2  O   UNL     1      -8.241  13.705  67.258  1.00  0.00    -0.175 OA 
ENDROOT
BRANCH   2   3
HETATM    3  C   UNL     1      -8.416  12.384  67.571  1.00  0.00    -0.175 A  
HETATM    4  C   UNL     1      -9.311  11.534  66.921  1.00  0.00    -0.189 A  
HETATM    5  C   UNL     1      -9.475  10.216  67.357  1.00  0.00    -0.153 A  
HETATM    6  O   UNL     1     -10.454   9.474  66.753  1.00  0.00    -0.239 OA 
HETATM    7  C   UNL     1      -8.709   9.706  68.412  1.00  0.00    -0.120 A  
HETATM    8  C   UNL     1      -7.625  11.887  68.605  1.00  0.00    -0.119 A  
HETATM    9  C   UNL     1      -7.773  10.560  69.024  1.00  0.00    -0.125 A  
HETATM   10  H   UNL     1     -10.565   8.578  67.049  1.00  0.00     0.000 HD 
BRANCH   7  11
HETATM   11  C   UNL     1      -8.855   8.344  69.000  1.00  0.00    -0.146 C  
HETATM   12  O   UNL     1      -7.929   7.541  68.867  1.00  0.00    -0.121 OA 
BRANCH  11  13
HETATM   13  C   UNL     1     -10.019   7.907  69.813  1.00  0.00    -0.186 A  
HETATM   14  C   UNL     1     -10.822   8.915  70.371  1.00  0.00    -0.269 A  
HETATM   15  C   UNL     1     -11.956   8.588  71.118  1.00  0.00    -0.306 A  
HETATM   16  C   UNL     1     -12.294   7.251  71.313  1.00  0.00    -0.401 A  
HETATM   17  C   UNL     1     -11.478   6.240  70.798  1.00  0.00    -0.383 A  
HETATM   18  C   UNL     1     -10.331   6.567  70.071  1.00  0.00    -0.198 A  
HETATM   19  O   UNL     1      -9.512   5.565  69.629  1.00  0.00    -0.129 OA 
HETATM   20  H   UNL     1      -9.723   4.655  69.804  1.00  0.00     0.000 HD 
ENDBRANCH  11  13
ENDBRANCH   7  11
ENDBRANCH   2   3
TORSDOF 3
ENDMDL
MODEL      238
REMARK 921   NORMALIZED FREE ENERGY PREDICTED BY IDOCK:   -3.06 KCAL/MOL
REMARK 922        TOTAL FREE ENERGY PREDICTED BY IDOCK:   -4.23 KCAL/MOL
REMARK 923 INTER-LIGAND FREE ENERGY PREDICTED BY IDOCK:   -3.66 KCAL/MOL
REMARK 924 INTRA-LIGAND FREE ENERGY PREDICTED BY IDOCK:   -0.57 KCAL/MOL
REMARK 927      BINDING AFFINITY PREDICTED BY RF-SCORE:    0.00 PKD
ROOT
HETATM    1  C   UNL     1      -6.827   6.237  67.895  1.00  0.00    -0.067 C  
HETATM    2  O   UNL     1      -6.892   7.219  66.863  1.00  0.00    -0.065 OA 
ENDROOT
BRANCH   2   3
HETATM    3  C   UNL     1      -7.208   8.478  67.295  1.00  0.00    -0.084 A  
HETATM    4  C   UNL     1      -7.658   8.778  68.581  1.00  0.00    -0.097 A  
HETATM    5  C   UNL     1      -8.027  10.084  68.913  1.00  0.00    -0.101 A  
HETATM    6  O   UNL     1      -8.572  10.286  70.152  1.00  0.00    -0.351 OA 
HETATM    7  C   UNL     1      -7.902  11.125  67.985  1.00  0.00    -0.114 A  
HETATM    8  C   UNL     1      -7.051   9.505  66.367  1.00  0.00    -0.088 A  
HETATM    9  C   UNL     1      -7.399  10.817  66.708  1.00  0.00    -0.129 A  
HETATM   10  H   UNL     1      -8.823  11.174  70.378  1.00  0.00     0.000 HD 
BRANCH   7  11
HETATM   11  C   UNL     1      -8.334  12.533  68.211  1.00  0.00    -0.167 C  
HETATM   12  O   UNL     1      -7.533  13.322  68.719  1.00  0.00    -0.107 OA 
BRANCH  11  13
HETATM   13  C   UNL     1      -9.649  13.082  67.790  1.00  0.00    -0.208 A  
HETATM   14  C   UNL     1     -10.139  12.672  66.539  1.00  0.00    -0.257 A  
HETATM   15  C   UNL     1     -11.384  13.112  66.086  1.00  0.00    -0.343 A  
HETATM   16  C   UNL     1     -12.147  13.966  66.879  1.00  0.00    -0.467 A  
HETATM   17  C   UNL     1     -11.650  14.413  68.106  1.00  0.00    -0.360 A  
HETATM   18  C   UNL     1     -10.394  13.992  68.549  1.00  0.00    -0.247 A  
HETATM   19  O   UNL     1      -9.898  14.490  69.722  1.00  0.00    -0.408 OA 
HETATM   20  H   UNL     1     -10.403  15.107  70.237  1.00  0.00     0.000 HD 
ENDBRANCH  11  13
ENDBRANCH   7  11
ENDBRANCH   2   3
TORSDOF 3
ENDMDL
MODEL      239
REMARK 921   NORMALIZED FREE ENERGY PREDICTED BY IDOCK:   -3.06 KCAL/MOL
REMARK 922        TOTAL FREE ENERGY PREDICTED BY IDOCK:   -4.22 KCAL/MOL
REMARK 923 INTER-LIGAND FREE ENERGY PREDICTED BY IDOCK:   -3.37 KCAL/MOL
REMARK 924 INTRA-LIGAND FREE ENERGY PREDICTED BY IDOCK:   -0.86 KCAL/MOL
REMARK 927      BINDING AFFINITY PREDICTED BY RF-SCORE:    0.00 PKD
ROOT
HETATM    1  C   UNL     1      -6.140  10.979  68.805  1.00  0.00    -0.043 C  
HETATM    2  O   UNL     1      -7.269  10.915  69.674  1.00  0.00    -0.140 OA 
ENDROOT
BRANCH   2   3
HETATM    3  C   UNL     1      -7.978   9.747  69.599  1.00  0.00    -0.150 A  
HETATM    4  C   UNL     1      -8.147   9.003  68.430  1.00  0.00    -0.108 A  
HETATM    5  C   UNL     1      -8.949   7.859  68.431  1.00  0.00    -0.133 A  
HETATM    6  O   UNL     1      -9.169   7.247  67.227  1.00  0.00    -0.126 OA 
HETATM    7  C   UNL     1      -9.553   7.405  69.610  1.00  0.00    -0.156 A  
HETATM    8  C   UNL     1      -8.548   9.295  70.787  1.00  0.00    -0.254 A  
HETATM    9  C   UNL     1      -9.331   8.135  70.792  1.00  0.00    -0.174 A  
HETATM   10  H   UNL     1      -9.714   6.469  67.228  1.00  0.00     0.000 HD 
BRANCH   7  11
HETATM   11  C   UNL     1     -10.482   6.244  69.707  1.00  0.00    -0.232 C  
HETATM   12  O   UNL     1     -11.684   6.430  69.502  1.00  0.00    -0.366 OA 
BRANCH  11  13
HETATM   13  C   UNL     1     -10.046   4.845  69.956  1.00  0.00    -0.337 A  
HETATM   14  C   UNL     1     -10.010   4.417  71.292  1.00  0.00    -0.245 A  
HETATM   15  C   UNL     1      -9.648   3.106  71.608  1.00  0.00    -0.227 A  
HETATM   16  C   UNL     1      -9.319   2.214  70.591  1.00  0.00    -0.199 A  
HETATM   17  C   UNL     1      -9.311   2.642  69.260  1.00  0.00    -0.188 A  
HETATM   18  C   UNL     1      -9.650   3.960  68.946  1.00  0.00    -0.130 A  
HETATM   19  O   UNL     1      -9.576   4.377  67.645  1.00  0.00    -0.157 OA 
HETATM   20  H   UNL     1      -9.307   3.776  66.960  1.00  0.00     0.000 HD 
ENDBRANCH  11  13
ENDBRANCH   7  11
ENDBRANCH   2   3
TORSDOF 3
ENDMDL
MODEL      240
REMARK 921   NORMALIZED FREE ENERGY PREDICTED BY IDOCK:   -3.05 KCAL/MOL
REMARK 922        TOTAL FREE ENERGY PREDICTED BY IDOCK:   -4.21 KCAL/MOL
REMARK 923 INTER-LIGAND FREE ENERGY PREDICTED BY IDOCK:   -3.38 KCAL/MOL
REMARK 924 INTRA-LIGAND FREE ENERGY PREDICTED BY IDOCK:   -0.83 KCAL/MOL
REMARK 927      BINDING AFFINITY PREDICTED BY RF-SCORE:    0.00 PKD
ROOT
HETATM    1  C   UNL     1     -11.152  11.087  67.651  1.00  0.00    -0.300 C  
HETATM    2  O   UNL     1      -9.850  10.544  67.439  1.00  0.00    -0.167 OA 
ENDROOT
BRANCH   2   3
HETATM    3  C   UNL     1      -9.781   9.180  67.531  1.00  0.00    -0.160 A  
HETATM    4  C   UNL     1     -10.640   8.302  66.869  1.00  0.00    -0.302 A  
HETATM    5  C   UNL     1     -10.541   6.924  67.080  1.00  0.00    -0.333 A  
HETATM    6  O   UNL     1     -11.489   6.131  66.494  1.00  0.00    -0.686 OA 
HETATM    7  C   UNL     1      -9.548   6.394  67.913  1.00  0.00    -0.121 A  
HETATM    8  C   UNL     1      -8.770   8.669  68.342  1.00  0.00    -0.142 A  
HETATM    9  C   UNL     1      -8.657   7.287  68.534  1.00  0.00    -0.124 A  
HETATM   10  H   UNL     1     -11.422   5.194  66.637  1.00  0.00     0.000 HD 
BRANCH   7  11
HETATM   11  C   UNL     1      -9.401   4.952  68.262  1.00  0.00    -0.130 C  
HETATM   12  O   UNL     1      -9.679   4.106  67.408  1.00  0.00    -0.190 OA 
BRANCH  11  13
HETATM   13  C   UNL     1      -8.860   4.457  69.554  1.00  0.00    -0.133 A  
HETATM   14  C   UNL     1      -9.529   4.859  70.721  1.00  0.00    -0.232 A  
HETATM   15  C   UNL     1      -9.106   4.408  71.973  1.00  0.00    -0.159 A  
HETATM   16  C   UNL     1      -8.011   3.552  72.067  1.00  0.00    -0.063 A  
HETATM   17  C   UNL     1      -7.313   3.180  70.915  1.00  0.00    -0.033 A  
HETATM   18  C   UNL     1      -7.721   3.651  69.665  1.00  0.00    -0.051 A  
HETATM   19  O   UNL     1      -6.988   3.327  68.557  1.00  0.00    -0.048 OA 
HETATM   20  H   UNL     1      -6.215   2.780  68.632  1.00  0.00     0.000 HD 
ENDBRANCH  11  13
ENDBRANCH   7  11
ENDBRANCH   2   3
TORSDOF 3
ENDMDL
MODEL      241
REMARK 921   NORMALIZED FREE ENERGY PREDICTED BY IDOCK:   -3.00 KCAL/MOL
REMARK 922        TOTAL FREE ENERGY PREDICTED BY IDOCK:   -4.15 KCAL/MOL
REMARK 923 INTER-LIGAND FREE ENERGY PREDICTED BY IDOCK:   -3.56 KCAL/MOL
REMARK 924 INTRA-LIGAND FREE ENERGY PREDICTED BY IDOCK:   -0.59 KCAL/MOL
REMARK 927      BINDING AFFINITY PREDICTED BY RF-SCORE:    0.00 PKD
ROOT
HETATM    1  C   UNL     1      -7.210   8.696  63.380  1.00  0.00    -0.095 C  
HETATM    2  O   UNL     1      -8.568   9.110  63.240  1.00  0.00    -0.202 OA 
ENDROOT
BRANCH   2   3
HETATM    3  C   UNL     1      -8.919  10.181  64.016  1.00  0.00    -0.238 A  
HETATM    4  C   UNL     1      -8.786  10.223  65.404  1.00  0.00    -0.192 A  
HETATM    5  C   UNL     1      -9.239  11.333  66.123  1.00  0.00    -0.206 A  
HETATM    6  O   UNL     1      -9.188  11.259  67.489  1.00  0.00    -0.156 OA 
HETATM    7  C   UNL     1      -9.782  12.443  65.465  1.00  0.00    -0.150 A  
HETATM    8  C   UNL     1      -9.431  11.288  63.342  1.00  0.00    -0.307 A  
HETATM    9  C   UNL     1      -9.862  12.408  64.061  1.00  0.00    -0.160 A  
HETATM   10  H   UNL     1      -9.496  12.013  67.977  1.00  0.00     0.000 HD 
BRANCH   7  11
HETATM   11  C   UNL     1     -10.359  13.642  66.138  1.00  0.00    -0.297 C  
HETATM   12  O   UNL     1     -11.584  13.718  66.260  1.00  0.00    -0.325 OA 
BRANCH  11  13
HETATM   13  C   UNL     1      -9.549  14.726  66.750  1.00  0.00    -0.267 A  
HETATM   14  C   UNL     1      -8.173  14.730  66.470  1.00  0.00     0.263 A  
HETATM   15  C   UNL     1      -7.348  15.736  66.977  1.00  0.00    -0.226 A  
HETATM   16  C   UNL     1      -7.892  16.745  67.767  1.00  0.00    -0.187 A  
HETATM   17  C   UNL     1      -9.253  16.728  68.085  1.00  0.00    -0.224 A  
HETATM   18  C   UNL     1     -10.074  15.708  67.598  1.00  0.00    -0.248 A  
HETATM   19  O   UNL     1     -11.389  15.673  67.973  1.00  0.00    -0.343 OA 
HETATM   20  H   UNL     1     -11.745  16.339  68.548  1.00  0.00     0.000 HD 
ENDBRANCH  11  13
ENDBRANCH   7  11
ENDBRANCH   2   3
TORSDOF 3
ENDMDL
MODEL      242
REMARK 921   NORMALIZED FREE ENERGY PREDICTED BY IDOCK:   -2.94 KCAL/MOL
REMARK 922        TOTAL FREE ENERGY PREDICTED BY IDOCK:   -4.08 KCAL/MOL
REMARK 923 INTER-LIGAND FREE ENERGY PREDICTED BY IDOCK:   -3.21 KCAL/MOL
REMARK 924 INTRA-LIGAND FREE ENERGY PREDICTED BY IDOCK:   -0.86 KCAL/MOL
REMARK 927      BINDING AFFINITY PREDICTED BY RF-SCORE:    0.00 PKD
ROOT
HETATM    1  C   UNL     1     -14.410   8.331  71.572  1.00  0.00    -0.428 C  
HETATM    2  O   UNL     1     -13.503   7.256  71.338  1.00  0.00    -0.388 OA 
ENDROOT
BRANCH   2   3
HETATM    3  C   UNL     1     -12.183   7.617  71.328  1.00  0.00    -0.315 A  
HETATM    4  C   UNL     1     -11.711   8.861  70.905  1.00  0.00    -0.312 A  
HETATM    5  C   UNL     1     -10.338   9.117  70.860  1.00  0.00    -0.280 A  
HETATM    6  O   UNL     1      -9.941  10.311  70.323  1.00  0.00    -0.415 OA 
HETATM    7  C   UNL     1      -9.413   8.157  71.289  1.00  0.00    -0.199 A  
HETATM    8  C   UNL     1     -11.279   6.661  71.784  1.00  0.00    -0.299 A  
HETATM    9  C   UNL     1      -9.905   6.927  71.762  1.00  0.00    -0.170 A  
HETATM   10  H   UNL     1      -9.008  10.485  70.293  1.00  0.00     0.000 HD 
BRANCH   7  11
HETATM   11  C   UNL     1      -7.932   8.300  71.216  1.00  0.00    -0.111 C  
HETATM   12  O   UNL     1      -7.433   8.761  70.185  1.00  0.00    -0.050 OA 
BRANCH  11  13
HETATM   13  C   UNL     1      -7.007   8.000  72.339  1.00  0.00    -0.090 A  
HETATM   14  C   UNL     1      -6.905   8.963  73.356  1.00  0.00     0.189 A  
HETATM   15  C   UNL     1      -6.087   8.741  74.465  1.00  0.00    -0.152 A  
HETATM   16  C   UNL     1      -5.364   7.554  74.566  1.00  0.00    -0.066 A  
HETATM   17  C   UNL     1      -5.427   6.608  73.540  1.00  0.00    -0.042 A  
HETATM   18  C   UNL     1      -6.227   6.841  72.418  1.00  0.00    -0.045 A  
HETATM   19  O   UNL     1      -6.225   5.932  71.396  1.00  0.00    -0.040 OA 
HETATM   20  H   UNL     1      -5.696   5.146  71.450  1.00  0.00     0.000 HD 
ENDBRANCH  11  13
ENDBRANCH   7  11
ENDBRANCH   2   3
TORSDOF 3
ENDMDL
MODEL      243
REMARK 921   NORMALIZED FREE ENERGY PREDICTED BY IDOCK:   -2.92 KCAL/MOL
REMARK 922        TOTAL FREE ENERGY PREDICTED BY IDOCK:   -4.05 KCAL/MOL
REMARK 923 INTER-LIGAND FREE ENERGY PREDICTED BY IDOCK:   -3.62 KCAL/MOL
REMARK 924 INTRA-LIGAND FREE ENERGY PREDICTED BY IDOCK:   -0.43 KCAL/MOL
REMARK 927      BINDING AFFINITY PREDICTED BY RF-SCORE:    0.00 PKD
ROOT
HETATM    1  C   UNL     1      -5.747   6.163  67.466  1.00  0.00    -0.016 C  
HETATM    2  O   UNL     1      -6.417   6.999  66.525  1.00  0.00    -0.048 OA 
ENDROOT
BRANCH   2   3
HETATM    3  C   UNL     1      -7.276   7.907  67.082  1.00  0.00    -0.090 A  
HETATM    4  C   UNL     1      -6.995   9.265  67.233  1.00  0.00    -0.081 A  
HETATM    5  C   UNL     1      -7.904  10.107  67.880  1.00  0.00    -0.101 A  
HETATM    6  O   UNL     1      -7.514  11.399  68.101  1.00  0.00    -0.090 OA 
HETATM    7  C   UNL     1      -9.134   9.620  68.338  1.00  0.00    -0.123 A  
HETATM    8  C   UNL     1      -8.507   7.411  67.506  1.00  0.00    -0.116 A  
HETATM    9  C   UNL     1      -9.427   8.259  68.132  1.00  0.00    -0.148 A  
HETATM   10  H   UNL     1      -8.132  11.971  68.541  1.00  0.00     0.000 HD 
BRANCH   7  11
HETATM   11  C   UNL     1     -10.140  10.411  69.102  1.00  0.00    -0.222 C  
HETATM   12  O   UNL     1     -10.421  11.546  68.709  1.00  0.00    -0.201 OA 
BRANCH  11  13
HETATM   13  C   UNL     1     -10.897   9.893  70.271  1.00  0.00    -0.367 A  
HETATM   14  C   UNL     1     -12.275  10.161  70.308  1.00  0.00    -0.248 A  
HETATM   15  C   UNL     1     -13.064   9.678  71.353  1.00  0.00    -0.471 A  
HETATM   16  C   UNL     1     -12.482   8.924  72.369  1.00  0.00    -0.405 A  
HETATM   17  C   UNL     1     -11.105   8.687  72.364  1.00  0.00    -0.328 A  
HETATM   18  C   UNL     1     -10.310   9.191  71.330  1.00  0.00    -0.338 A  
HETATM   19  O   UNL     1      -8.957   9.003  71.376  1.00  0.00    -0.227 OA 
HETATM   20  H   UNL     1      -8.559   8.527  72.095  1.00  0.00     0.000 HD 
ENDBRANCH  11  13
ENDBRANCH   7  11
ENDBRANCH   2   3
TORSDOF 3
ENDMDL
MODEL      244
REMARK 921   NORMALIZED FREE ENERGY PREDICTED BY IDOCK:   -2.83 KCAL/MOL
REMARK 922        TOTAL FREE ENERGY PREDICTED BY IDOCK:   -3.95 KCAL/MOL
REMARK 923 INTER-LIGAND FREE ENERGY PREDICTED BY IDOCK:   -3.27 KCAL/MOL
REMARK 924 INTRA-LIGAND FREE ENERGY PREDICTED BY IDOCK:   -0.68 KCAL/MOL
REMARK 927      BINDING AFFINITY PREDICTED BY RF-SCORE:    0.00 PKD
ROOT
HETATM    1  C   UNL     1      -8.390   8.720  63.743  1.00  0.00    -0.136 C  
HETATM    2  O   UNL     1      -8.463   8.558  65.158  1.00  0.00    -0.170 OA 
ENDROOT
BRANCH   2   3
HETATM    3  C   UNL     1      -8.743   9.705  65.849  1.00  0.00    -0.144 A  
HETATM    4  C   UNL     1      -9.676  10.660  65.442  1.00  0.00    -0.306 A  
HETATM    5  C   UNL     1      -9.845  11.839  66.173  1.00  0.00    -0.229 A  
HETATM    6  O   UNL     1     -10.687  12.784  65.654  1.00  0.00    -0.266 OA 
HETATM    7  C   UNL     1      -9.127  12.061  67.354  1.00  0.00    -0.178 A  
HETATM    8  C   UNL     1      -8.040   9.897  67.036  1.00  0.00    -0.110 A  
HETATM    9  C   UNL     1      -8.228  11.066  67.781  1.00  0.00    -0.117 A  
HETATM   10  H   UNL     1     -10.802  13.584  66.151  1.00  0.00     0.000 HD 
BRANCH   7  11
HETATM   11  C   UNL     1      -9.177  13.309  68.168  1.00  0.00    -0.212 C  
HETATM   12  O   UNL     1     -10.146  13.492  68.910  1.00  0.00    -0.151 OA 
BRANCH  11  13
HETATM   13  C   UNL     1      -8.092  14.322  68.210  1.00  0.00    -0.143 A  
HETATM   14  C   UNL     1      -8.074  15.280  67.183  1.00  0.00    -0.248 A  
HETATM   15  C   UNL     1      -7.108  16.289  67.170  1.00  0.00    -0.244 A  
HETATM   16  C   UNL     1      -6.154  16.348  68.183  1.00  0.00    -0.125 A  
HETATM   17  C   UNL     1      -6.138  15.375  69.187  1.00  0.00    -0.108 A  
HETATM   18  C   UNL     1      -7.089  14.351  69.186  1.00  0.00    -0.127 A  
HETATM   19  O   UNL     1      -7.018  13.373  70.140  1.00  0.00    -0.256 OA 
HETATM   20  H   UNL     1      -6.338  13.393  70.802  1.00  0.00     0.000 HD 
ENDBRANCH  11  13
ENDBRANCH   7  11
ENDBRANCH   2   3
TORSDOF 3
ENDMDL
MODEL      245
REMARK 921   NORMALIZED FREE ENERGY PREDICTED BY IDOCK:   -2.81 KCAL/MOL
REMARK 922        TOTAL FREE ENERGY PREDICTED BY IDOCK:   -3.93 KCAL/MOL
REMARK 923 INTER-LIGAND FREE ENERGY PREDICTED BY IDOCK:   -3.12 KCAL/MOL
REMARK 924 INTRA-LIGAND FREE ENERGY PREDICTED BY IDOCK:   -0.81 KCAL/MOL
REMARK 927      BINDING AFFINITY PREDICTED BY RF-SCORE:    0.00 PKD
ROOT
HETATM    1  C   UNL     1     -12.003  11.602  69.129  1.00  0.00    -0.313 C  
HETATM    2  O   UNL     1     -10.903  11.090  68.380  1.00  0.00    -0.190 OA 
ENDROOT
BRANCH   2   3
HETATM    3  C   UNL     1     -10.287  10.006  68.943  1.00  0.00    -0.202 A  
HETATM    4  C   UNL     1      -9.901   9.929  70.282  1.00  0.00    -0.236 A  
HETATM    5  C   UNL     1      -9.210   8.809  70.754  1.00  0.00    -0.198 A  
HETATM    6  O   UNL     1      -8.757   8.850  72.045  1.00  0.00    -0.365 OA 
HETATM    7  C   UNL     1      -8.942   7.722  69.913  1.00  0.00    -0.146 A  
HETATM    8  C   UNL     1     -10.053   8.922  68.099  1.00  0.00    -0.227 A  
HETATM    9  C   UNL     1      -9.383   7.791  68.579  1.00  0.00    -0.147 A  
HETATM   10  H   UNL     1      -8.288   8.089  72.365  1.00  0.00     0.000 HD 
BRANCH   7  11
HETATM   11  C   UNL     1      -8.153   6.516  70.294  1.00  0.00    -0.121 C  
HETATM   12  O   UNL     1      -6.934   6.630  70.444  1.00  0.00    -0.060 OA 
BRANCH  11  13
HETATM   13  C   UNL     1      -8.750   5.188  70.590  1.00  0.00    -0.142 A  
HETATM   14  C   UNL     1      -9.448   5.058  71.801  1.00  0.00    -0.194 A  
HETATM   15  C   UNL     1     -10.070   3.853  72.136  1.00  0.00    -0.225 A  
HETATM   16  C   UNL     1      -9.997   2.770  71.264  1.00  0.00    -0.013 A  
HETATM   17  C   UNL     1      -9.269   2.876  70.076  1.00  0.00    -0.211 A  
HETATM   18  C   UNL     1      -8.627   4.074  69.751  1.00  0.00    -0.061 A  
HETATM   19  O   UNL     1      -7.867   4.138  68.616  1.00  0.00    -0.071 OA 
HETATM   20  H   UNL     1      -7.784   3.383  68.047  1.00  0.00     0.000 HD 
ENDBRANCH  11  13
ENDBRANCH   7  11
ENDBRANCH   2   3
TORSDOF 3
ENDMDL
MODEL      246
REMARK 921   NORMALIZED FREE ENERGY PREDICTED BY IDOCK:   -2.79 KCAL/MOL
REMARK 922        TOTAL FREE ENERGY PREDICTED BY IDOCK:   -3.90 KCAL/MOL
REMARK 923 INTER-LIGAND FREE ENERGY PREDICTED BY IDOCK:   -3.12 KCAL/MOL
REMARK 924 INTRA-LIGAND FREE ENERGY PREDICTED BY IDOCK:   -0.78 KCAL/MOL
REMARK 927      BINDING AFFINITY PREDICTED BY RF-SCORE:    0.00 PKD
ROOT
HETATM    1  C   UNL     1      -9.092  13.948  68.246  1.00  0.00    -0.191 C  
HETATM    2  O   UNL     1      -8.122  13.112  67.617  1.00  0.00    -0.149 OA 
ENDROOT
BRANCH   2   3
HETATM    3  C   UNL     1      -8.216  11.787  67.944  1.00  0.00    -0.147 A  
HETATM    4  C   UNL     1      -7.120  10.952  68.167  1.00  0.00    -0.077 A  
HETATM    5  C   UNL     1      -7.309   9.592  68.426  1.00  0.00    -0.076 A  
HETATM    6  O   UNL     1      -6.190   8.809  68.516  1.00  0.00    -0.051 OA 
HETATM    7  C   UNL     1      -8.597   9.051  68.521  1.00  0.00    -0.129 A  
HETATM    8  C   UNL     1      -9.505  11.271  68.063  1.00  0.00    -0.173 A  
HETATM    9  C   UNL     1      -9.694   9.914  68.345  1.00  0.00    -0.161 A  
HETATM   10  H   UNL     1      -6.319   7.885  68.691  1.00  0.00     0.000 HD 
BRANCH   7  11
HETATM   11  C   UNL     1      -8.908   7.607  68.720  1.00  0.00    -0.131 C  
HETATM   12  O   UNL     1      -9.055   7.186  69.870  1.00  0.00    -0.142 OA 
BRANCH  11  13
HETATM   13  C   UNL     1      -9.137   6.642  67.613  1.00  0.00    -0.112 A  
HETATM   14  C   UNL     1      -8.019   6.270  66.850  1.00  0.00    -0.109 A  
HETATM   15  C   UNL     1      -8.143   5.340  65.815  1.00  0.00    -0.112 A  
HETATM   16  C   UNL     1      -9.385   4.776  65.536  1.00  0.00    -0.163 A  
HETATM   17  C   UNL     1     -10.512   5.171  66.263  1.00  0.00    -0.341 A  
HETATM   18  C   UNL     1     -10.393   6.119  67.282  1.00  0.00    -0.219 A  
HETATM   19  O   UNL     1     -11.516   6.539  67.938  1.00  0.00    -0.635 OA 
HETATM   20  H   UNL     1     -12.368   6.184  67.713  1.00  0.00     0.000 HD 
ENDBRANCH  11  13
ENDBRANCH   7  11
ENDBRANCH   2   3
TORSDOF 3
ENDMDL
MODEL      247
REMARK 921   NORMALIZED FREE ENERGY PREDICTED BY IDOCK:   -2.76 KCAL/MOL
REMARK 922        TOTAL FREE ENERGY PREDICTED BY IDOCK:   -3.87 KCAL/MOL
REMARK 923 INTER-LIGAND FREE ENERGY PREDICTED BY IDOCK:   -4.04 KCAL/MOL
REMARK 924 INTRA-LIGAND FREE ENERGY PREDICTED BY IDOCK:    0.17 KCAL/MOL
REMARK 927      BINDING AFFINITY PREDICTED BY RF-SCORE:    0.00 PKD
ROOT
HETATM    1  C   UNL     1      -8.958   6.358  72.724  1.00  0.00    -0.124 C  
HETATM    2  O   UNL     1      -8.189   7.376  72.087  1.00  0.00    -0.096 OA 
ENDROOT
BRANCH   2   3
HETATM    3  C   UNL     1      -8.813   7.983  71.031  1.00  0.00    -0.139 A  
HETATM    4  C   UNL     1     -10.172   8.296  70.995  1.00  0.00    -0.230 A  
HETATM    5  C   UNL     1     -10.738   8.850  69.844  1.00  0.00    -0.227 A  
HETATM    6  O   UNL     1     -12.096   9.020  69.833  1.00  0.00    -0.211 OA 
HETATM    7  C   UNL     1      -9.948   9.154  68.728  1.00  0.00    -0.188 A  
HETATM    8  C   UNL     1      -8.006   8.304  69.941  1.00  0.00    -0.108 A  
HETATM    9  C   UNL     1      -8.570   8.881  68.798  1.00  0.00    -0.136 A  
HETATM   10  H   UNL     1     -12.481   9.397  69.050  1.00  0.00     0.000 HD 
BRANCH   7  11
HETATM   11  C   UNL     1     -10.461   9.677  67.430  1.00  0.00    -0.257 C  
HETATM   12  O   UNL     1     -10.629   8.885  66.499  1.00  0.00    -0.188 OA 
BRANCH  11  13
HETATM   13  C   UNL     1     -10.866  11.088  67.201  1.00  0.00    -0.336 A  
HETATM   14  C   UNL     1     -11.452  11.389  65.961  1.00  0.00     0.012 A  
HETATM   15  C   UNL     1     -11.894  12.683  65.680  1.00  0.00    -0.488 A  
HETATM   16  C   UNL     1     -11.753  13.686  66.637  1.00  0.00    -0.420 A  
HETATM   17  C   UNL     1     -11.133  13.406  67.857  1.00  0.00    -0.289 A  
HETATM   18  C   UNL     1     -10.669  12.117  68.129  1.00  0.00    -0.211 A  
HETATM   19  O   UNL     1     -10.009  11.878  69.303  1.00  0.00    -0.405 OA 
HETATM   20  H   UNL     1      -9.875  12.576  69.932  1.00  0.00     0.000 HD 
ENDBRANCH  11  13
ENDBRANCH   7  11
ENDBRANCH   2   3
TORSDOF 3
ENDMDL
MODEL      248
REMARK 921   NORMALIZED FREE ENERGY PREDICTED BY IDOCK:   -2.76 KCAL/MOL
REMARK 922        TOTAL FREE ENERGY PREDICTED BY IDOCK:   -3.87 KCAL/MOL
REMARK 923 INTER-LIGAND FREE ENERGY PREDICTED BY IDOCK:   -4.14 KCAL/MOL
REMARK 924 INTRA-LIGAND FREE ENERGY PREDICTED BY IDOCK:    0.27 KCAL/MOL
REMARK 927      BINDING AFFINITY PREDICTED BY RF-SCORE:    0.00 PKD
ROOT
HETATM    1  C   UNL     1     -10.429  18.890  66.075  1.00  0.00    -0.446 C  
HETATM    2  O   UNL     1     -10.396  17.601  65.465  1.00  0.00    -0.627 OA 
ENDROOT
BRANCH   2   3
HETATM    3  C   UNL     1      -9.560  16.705  66.073  1.00  0.00    -0.266 A  
HETATM    4  C   UNL     1      -8.194  16.910  66.267  1.00  0.00    -0.344 A  
HETATM    5  C   UNL     1      -7.403  15.907  66.834  1.00  0.00    -0.172 A  
HETATM    6  O   UNL     1      -6.053  16.127  66.884  1.00  0.00    -0.321 OA 
HETATM    7  C   UNL     1      -7.970  14.703  67.269  1.00  0.00    -0.223 A  
HETATM    8  C   UNL     1     -10.147  15.525  66.526  1.00  0.00    -0.290 A  
HETATM    9  C   UNL     1      -9.358  14.531  67.115  1.00  0.00    -0.225 A  
HETATM   10  H   UNL     1      -5.516  15.445  67.269  1.00  0.00     0.000 HD 
BRANCH   7  11
HETATM   11  C   UNL     1      -7.210  13.545  67.818  1.00  0.00    -0.154 C  
HETATM   12  O   UNL     1      -7.030  12.561  67.096  1.00  0.00    -0.141 OA 
BRANCH  11  13
HETATM   13  C   UNL     1      -6.577  13.524  69.162  1.00  0.00    -0.109 A  
HETATM   14  C   UNL     1      -5.945  12.331  69.550  1.00  0.00    -0.110 A  
HETATM   15  C   UNL     1      -5.294  12.241  70.782  1.00  0.00    -0.161 A  
HETATM   16  C   UNL     1      -5.271  13.342  71.635  1.00  0.00    -0.182 A  
HETATM   17  C   UNL     1      -5.931  14.520  71.276  1.00  0.00    -0.047 A  
HETATM   18  C   UNL     1      -6.603  14.602  70.054  1.00  0.00    -0.161 A  
HETATM   19  O   UNL     1      -7.297  15.741  69.748  1.00  0.00    -0.160 OA 
HETATM   20  H   UNL     1      -7.315  16.472  70.353  1.00  0.00     0.000 HD 
ENDBRANCH  11  13
ENDBRANCH   7  11
ENDBRANCH   2   3
TORSDOF 3
ENDMDL
MODEL      249
REMARK 921   NORMALIZED FREE ENERGY PREDICTED BY IDOCK:   -2.72 KCAL/MOL
REMARK 922        TOTAL FREE ENERGY PREDICTED BY IDOCK:   -3.83 KCAL/MOL
REMARK 923 INTER-LIGAND FREE ENERGY PREDICTED BY IDOCK:   -3.22 KCAL/MOL
REMARK 924 INTRA-LIGAND FREE ENERGY PREDICTED BY IDOCK:   -0.61 KCAL/MOL
REMARK 927      BINDING AFFINITY PREDICTED BY RF-SCORE:    0.00 PKD
ROOT
HETATM    1  C   UNL     1      -9.354   8.148  71.868  1.00  0.00    -0.190 C  
HETATM    2  O   UNL     1      -9.810   7.391  70.748  1.00  0.00    -0.179 OA 
ENDROOT
BRANCH   2   3
HETATM    3  C   UNL     1      -9.275   7.772  69.548  1.00  0.00    -0.149 A  
HETATM    4  C   UNL     1      -7.907   7.904  69.304  1.00  0.00    -0.115 A  
HETATM    5  C   UNL     1      -7.453   8.370  68.067  1.00  0.00    -0.097 A  
HETATM    6  O   UNL     1      -6.109   8.590  67.935  1.00  0.00    -0.046 OA 
HETATM    7  C   UNL     1      -8.352   8.660  67.033  1.00  0.00    -0.106 A  
HETATM    8  C   UNL     1     -10.182   8.029  68.523  1.00  0.00    -0.231 A  
HETATM    9  C   UNL     1      -9.725   8.473  67.277  1.00  0.00    -0.239 A  
HETATM   10  H   UNL     1      -5.801   8.906  67.094  1.00  0.00     0.000 HD 
BRANCH   7  11
HETATM   11  C   UNL     1      -7.981   9.228  65.707  1.00  0.00    -0.109 C  
HETATM   12  O   UNL     1      -7.000   8.765  65.118  1.00  0.00    -0.077 OA 
BRANCH  11  13
HETATM   13  C   UNL     1      -8.765  10.272  64.997  1.00  0.00    -0.195 A  
HETATM   14  C   UNL     1      -9.136   9.998  63.671  1.00  0.00    -0.301 A  
HETATM   15  C   UNL     1      -9.906  10.911  62.946  1.00  0.00    -0.313 A  
HETATM   16  C   UNL     1     -10.308  12.104  63.542  1.00  0.00    -0.473 A  
HETATM   17  C   UNL     1      -9.909  12.404  64.846  1.00  0.00    -0.122 A  
HETATM   18  C   UNL     1      -9.119  11.502  65.563  1.00  0.00    -0.090 A  
HETATM   19  O   UNL     1      -8.685  11.842  66.815  1.00  0.00    -0.182 OA 
HETATM   20  H   UNL     1      -8.925  12.676  67.200  1.00  0.00     0.000 HD 
ENDBRANCH  11  13
ENDBRANCH   7  11
ENDBRANCH   2   3
TORSDOF 3
ENDMDL
MODEL      250
REMARK 921   NORMALIZED FREE ENERGY PREDICTED BY IDOCK:   -2.72 KCAL/MOL
REMARK 922        TOTAL FREE ENERGY PREDICTED BY IDOCK:   -3.82 KCAL/MOL
REMARK 923 INTER-LIGAND FREE ENERGY PREDICTED BY IDOCK:   -3.97 KCAL/MOL
REMARK 924 INTRA-LIGAND FREE ENERGY PREDICTED BY IDOCK:    0.15 KCAL/MOL
REMARK 927      BINDING AFFINITY PREDICTED BY RF-SCORE:    0.00 PKD
ROOT
HETATM    1  C   UNL     1      -9.263  10.566  68.742  1.00  0.00    -0.177 C  
HETATM    2  O   UNL     1      -9.264  11.178  67.453  1.00  0.00    -0.152 OA 
ENDROOT
BRANCH   2   3
HETATM    3  C   UNL     1      -8.723  12.434  67.421  1.00  0.00    -0.183 A  
HETATM    4  C   UNL     1      -9.463  13.605  67.246  1.00  0.00    -0.230 A  
HETATM    5  C   UNL     1      -8.817  14.841  67.153  1.00  0.00    -0.216 A  
HETATM    6  O   UNL     1      -9.590  15.932  66.862  1.00  0.00    -0.220 OA 
HETATM    7  C   UNL     1      -7.426  14.937  67.287  1.00  0.00    -0.193 A  
HETATM    8  C   UNL     1      -7.342  12.514  67.584  1.00  0.00    -0.134 A  
HETATM    9  C   UNL     1      -6.698  13.755  67.515  1.00  0.00    -0.131 A  
HETATM   10  H   UNL     1      -9.151  16.771  66.799  1.00  0.00     0.000 HD 
BRANCH   7  11
HETATM   11  C   UNL     1      -6.634  16.190  67.133  1.00  0.00    -0.173 C  
HETATM   12  O   UNL     1      -5.422  16.101  66.921  1.00  0.00    -0.341 OA 
BRANCH  11  13
HETATM   13  C   UNL     1      -7.222  17.555  67.135  1.00  0.00    -0.201 A  
HETATM   14  C   UNL     1      -7.041  18.329  65.977  1.00  0.00    -0.307 A  
HETATM   15  C   UNL     1      -7.594  19.608  65.884  1.00  0.00    -0.320 A  
HETATM   16  C   UNL     1      -8.330  20.122  66.949  1.00  0.00    -0.370 A  
HETATM   17  C   UNL     1      -8.481  19.377  68.121  1.00  0.00    -0.367 A  
HETATM   18  C   UNL     1      -7.907  18.107  68.223  1.00  0.00    -0.293 A  
HETATM   19  O   UNL     1      -8.012  17.420  69.401  1.00  0.00     0.033 OA 
HETATM   20  H   UNL     1      -8.476  17.795  70.139  1.00  0.00     0.000 HD 
ENDBRANCH  11  13
ENDBRANCH   7  11
ENDBRANCH   2   3
TORSDOF 3
ENDMDL
MODEL      251
REMARK 921   NORMALIZED FREE ENERGY PREDICTED BY IDOCK:   -2.71 KCAL/MOL
REMARK 922        TOTAL FREE ENERGY PREDICTED BY IDOCK:   -3.81 KCAL/MOL
REMARK 923 INTER-LIGAND FREE ENERGY PREDICTED BY IDOCK:   -3.05 KCAL/MOL
REMARK 924 INTRA-LIGAND FREE ENERGY PREDICTED BY IDOCK:   -0.76 KCAL/MOL
REMARK 927      BINDING AFFINITY PREDICTED BY RF-SCORE:    0.00 PKD
ROOT
HETATM    1  C   UNL     1     -11.940   4.480  73.291  1.00  0.00     0.164 C  
HETATM    2  O   UNL     1     -11.166   5.600  72.866  1.00  0.00    -0.275 OA 
ENDROOT
BRANCH   2   3
HETATM    3  C   UNL     1     -10.622   5.473  71.617  1.00  0.00    -0.231 A  
HETATM    4  C   UNL     1     -11.182   6.012  70.457  1.00  0.00    -0.363 A  
HETATM    5  C   UNL     1     -10.595   5.770  69.212  1.00  0.00    -0.306 A  
HETATM    6  O   UNL     1     -11.260   6.226  68.107  1.00  0.00    -0.429 OA 
HETATM    7  C   UNL     1      -9.408   5.034  69.107  1.00  0.00    -0.174 A  
HETATM    8  C   UNL     1      -9.427   4.762  71.534  1.00  0.00    -0.209 A  
HETATM    9  C   UNL     1      -8.827   4.541  70.290  1.00  0.00    -0.126 A  
HETATM   10  H   UNL     1     -10.861   6.062  67.261  1.00  0.00     0.000 HD 
BRANCH   7  11
HETATM   11  C   UNL     1      -8.742   4.659  67.828  1.00  0.00    -0.104 C  
HETATM   12  O   UNL     1      -8.744   3.474  67.486  1.00  0.00    -0.100 OA 
BRANCH  11  13
HETATM   13  C   UNL     1      -8.137   5.635  66.885  1.00  0.00    -0.102 A  
HETATM   14  C   UNL     1      -7.008   6.340  67.333  1.00  0.00    -0.068 A  
HETATM   15  C   UNL     1      -6.359   7.247  66.493  1.00  0.00    -0.044 A  
HETATM   16  C   UNL     1      -6.833   7.457  65.201  1.00  0.00    -0.047 A  
HETATM   17  C   UNL     1      -7.980   6.792  64.760  1.00  0.00    -0.120 A  
HETATM   18  C   UNL     1      -8.644   5.902  65.607  1.00  0.00    -0.155 A  
HETATM   19  O   UNL     1      -9.800   5.309  65.180  1.00  0.00    -0.363 OA 
HETATM   20  H   UNL     1     -10.145   5.490  64.314  1.00  0.00     0.000 HD 
ENDBRANCH  11  13
ENDBRANCH   7  11
ENDBRANCH   2   3
TORSDOF 3
ENDMDL
MODEL      252
REMARK 921   NORMALIZED FREE ENERGY PREDICTED BY IDOCK:   -2.60 KCAL/MOL
REMARK 922        TOTAL FREE ENERGY PREDICTED BY IDOCK:   -3.67 KCAL/MOL
REMARK 923 INTER-LIGAND FREE ENERGY PREDICTED BY IDOCK:   -2.95 KCAL/MOL
REMARK 924 INTRA-LIGAND FREE ENERGY PREDICTED BY IDOCK:   -0.73 KCAL/MOL
REMARK 927      BINDING AFFINITY PREDICTED BY RF-SCORE:    0.00 PKD
ROOT
HETATM    1  C   UNL     1     -12.075   8.472  71.632  1.00  0.00    -0.321 C  
HETATM    2  O   UNL     1     -11.529   9.564  70.895  1.00  0.00    -0.283 OA 
ENDROOT
BRANCH   2   3
HETATM    3  C   UNL     1     -10.526   9.222  70.031  1.00  0.00    -0.226 A  
HETATM    4  C   UNL     1      -9.446  10.047  69.713  1.00  0.00    -0.239 A  
HETATM    5  C   UNL     1      -8.504   9.642  68.763  1.00  0.00    -0.123 A  
HETATM    6  O   UNL     1      -7.540  10.547  68.411  1.00  0.00    -0.091 OA 
HETATM    7  C   UNL     1      -8.592   8.385  68.153  1.00  0.00    -0.139 A  
HETATM    8  C   UNL     1     -10.614   7.957  69.455  1.00  0.00    -0.209 A  
HETATM    9  C   UNL     1      -9.657   7.543  68.521  1.00  0.00    -0.150 A  
HETATM   10  H   UNL     1      -6.900  10.273  67.765  1.00  0.00     0.000 HD 
BRANCH   7  11
HETATM   11  C   UNL     1      -7.687   7.887  67.079  1.00  0.00    -0.100 C  
HETATM   12  O   UNL     1      -6.741   8.596  66.727  1.00  0.00    -0.066 OA 
BRANCH  11  13
HETATM   13  C   UNL     1      -7.798   6.545  66.450  1.00  0.00    -0.104 A  
HETATM   14  C   UNL     1      -7.357   5.448  67.207  1.00  0.00    -0.083 A  
HETATM   15  C   UNL     1      -7.461   4.150  66.703  1.00  0.00    -0.080 A  
HETATM   16  C   UNL     1      -8.005   3.940  65.438  1.00  0.00    -0.093 A  
HETATM   17  C   UNL     1      -8.408   5.029  64.660  1.00  0.00    -0.141 A  
HETATM   18  C   UNL     1      -8.282   6.329  65.154  1.00  0.00    -0.138 A  
HETATM   19  O   UNL     1      -8.622   7.384  64.353  1.00  0.00    -0.362 OA 
HETATM   20  H   UNL     1      -8.950   7.238  63.474  1.00  0.00     0.000 HD 
ENDBRANCH  11  13
ENDBRANCH   7  11
ENDBRANCH   2   3
TORSDOF 3
ENDMDL
MODEL      253
REMARK 921   NORMALIZED FREE ENERGY PREDICTED BY IDOCK:   -2.49 KCAL/MOL
REMARK 922        TOTAL FREE ENERGY PREDICTED BY IDOCK:   -3.55 KCAL/MOL
REMARK 923 INTER-LIGAND FREE ENERGY PREDICTED BY IDOCK:   -3.17 KCAL/MOL
REMARK 924 INTRA-LIGAND FREE ENERGY PREDICTED BY IDOCK:   -0.37 KCAL/MOL
REMARK 927      BINDING AFFINITY PREDICTED BY RF-SCORE:    0.00 PKD
ROOT
HETATM    1  C   UNL     1     -14.335   7.652  71.349  1.00  0.00    -0.400 C  
HETATM    2  O   UNL     1     -13.079   8.041  71.901  1.00  0.00    -0.324 OA 
ENDROOT
BRANCH   2   3
HETATM    3  C   UNL     1     -11.990   7.491  71.281  1.00  0.00    -0.307 A  
HETATM    4  C   UNL     1     -11.580   6.167  71.440  1.00  0.00    -0.283 A  
HETATM    5  C   UNL     1     -10.412   5.711  70.824  1.00  0.00    -0.265 A  
HETATM    6  O   UNL     1     -10.004   4.438  71.118  1.00  0.00    -0.190 OA 
HETATM    7  C   UNL     1      -9.662   6.552  69.992  1.00  0.00    -0.178 A  
HETATM    8  C   UNL     1     -11.272   8.334  70.436  1.00  0.00    -0.222 A  
HETATM    9  C   UNL     1     -10.116   7.869  69.799  1.00  0.00    -0.199 A  
HETATM   10  H   UNL     1      -9.210   4.128  70.699  1.00  0.00     0.000 HD 
BRANCH   7  11
HETATM   11  C   UNL     1      -8.369   6.189  69.347  1.00  0.00    -0.116 C  
HETATM   12  O   UNL     1      -7.355   6.819  69.660  1.00  0.00    -0.082 OA 
BRANCH  11  13
HETATM   13  C   UNL     1      -8.196   5.056  68.402  1.00  0.00    -0.085 A  
HETATM   14  C   UNL     1      -7.712   3.850  68.934  1.00  0.00    -0.053 A  
HETATM   15  C   UNL     1      -7.556   2.727  68.120  1.00  0.00    -0.056 A  
HETATM   16  C   UNL     1      -7.883   2.801  66.768  1.00  0.00    -0.076 A  
HETATM   17  C   UNL     1      -8.325   4.008  66.220  1.00  0.00    -0.105 A  
HETATM   18  C   UNL     1      -8.458   5.138  67.029  1.00  0.00    -0.106 A  
HETATM   19  O   UNL     1      -8.832   6.326  66.462  1.00  0.00    -0.128 OA 
HETATM   20  H   UNL     1      -9.010   6.382  65.531  1.00  0.00     0.000 HD 
ENDBRANCH  11  13
ENDBRANCH   7  11
ENDBRANCH   2   3
TORSDOF 3
ENDMDL
MODEL      254
REMARK 921   NORMALIZED FREE ENERGY PREDICTED BY IDOCK:   -2.39 KCAL/MOL
REMARK 922        TOTAL FREE ENERGY PREDICTED BY IDOCK:   -3.43 KCAL/MOL
REMARK 923 INTER-LIGAND FREE ENERGY PREDICTED BY IDOCK:   -2.70 KCAL/MOL
REMARK 924 INTRA-LIGAND FREE ENERGY PREDICTED BY IDOCK:   -0.73 KCAL/MOL
REMARK 927      BINDING AFFINITY PREDICTED BY RF-SCORE:    0.00 PKD
ROOT
HETATM    1  C   UNL     1      -8.944   8.899  72.637  1.00  0.00     0.397 C  
HETATM    2  O   UNL     1      -7.863   8.622  71.749  1.00  0.00    -0.154 OA 
ENDROOT
BRANCH   2   3
HETATM    3  C   UNL     1      -7.855   9.381  70.610  1.00  0.00    -0.151 A  
HETATM    4  C   UNL     1      -6.985  10.447  70.382  1.00  0.00    -0.021 A  
HETATM    5  C   UNL     1      -7.097  11.213  69.218  1.00  0.00    -0.123 A  
HETATM    6  O   UNL     1      -6.293  12.316  69.114  1.00  0.00    -0.081 OA 
HETATM    7  C   UNL     1      -8.042  10.894  68.236  1.00  0.00    -0.124 A  
HETATM    8  C   UNL     1      -8.783   9.032  69.631  1.00  0.00    -0.143 A  
HETATM    9  C   UNL     1      -8.878   9.785  68.455  1.00  0.00    -0.121 A  
HETATM   10  H   UNL     1      -6.369  12.836  68.323  1.00  0.00     0.000 HD 
BRANCH   7  11
HETATM   11  C   UNL     1      -8.292  11.685  66.997  1.00  0.00    -0.169 C  
HETATM   12  O   UNL     1      -7.406  11.739  66.141  1.00  0.00     0.198 OA 
BRANCH  11  13
HETATM   13  C   UNL     1      -9.581  12.354  66.681  1.00  0.00    -0.230 A  
HETATM   14  C   UNL     1     -10.447  11.687  65.800  1.00  0.00    -0.308 A  
HETATM   15  C   UNL     1     -11.692  12.231  65.480  1.00  0.00    -0.433 A  
HETATM   16  C   UNL     1     -12.080  13.446  66.038  1.00  0.00    -0.487 A  
HETATM   17  C   UNL     1     -11.209  14.139  66.883  1.00  0.00    -0.326 A  
HETATM   18  C   UNL     1      -9.953  13.606  67.184  1.00  0.00    -0.247 A  
HETATM   19  O   UNL     1      -9.090  14.329  67.961  1.00  0.00    -0.178 OA 
HETATM   20  H   UNL     1      -9.343  15.178  68.303  1.00  0.00     0.000 HD 
ENDBRANCH  11  13
ENDBRANCH   7  11
ENDBRANCH   2   3
TORSDOF 3
ENDMDL
MODEL      255
REMARK 921   NORMALIZED FREE ENERGY PREDICTED BY IDOCK:   -2.03 KCAL/MOL
REMARK 922        TOTAL FREE ENERGY PREDICTED BY IDOCK:   -3.01 KCAL/MOL
REMARK 923 INTER-LIGAND FREE ENERGY PREDICTED BY IDOCK:   -2.30 KCAL/MOL
REMARK 924 INTRA-LIGAND FREE ENERGY PREDICTED BY IDOCK:   -0.71 KCAL/MOL
REMARK 927      BINDING AFFINITY PREDICTED BY RF-SCORE:    0.00 PKD
ROOT
HETATM    1  C   UNL     1     -10.955  10.139  67.936  1.00  0.00    -0.277 C  
HETATM    2  O   UNL     1      -9.553   9.979  67.725  1.00  0.00    -0.146 OA 
ENDROOT
BRANCH   2   3
HETATM    3  C   UNL     1      -9.153   8.687  67.518  1.00  0.00    -0.134 A  
HETATM    4  C   UNL     1      -7.989   8.131  68.049  1.00  0.00    -0.127 A  
HETATM    5  C   UNL     1      -7.621   6.822  67.725  1.00  0.00    -0.107 A  
HETATM    6  O   UNL     1      -6.409   6.380  68.182  1.00  0.00    -0.036 OA 
HETATM    7  C   UNL     1      -8.437   6.026  66.912  1.00  0.00    -0.109 A  
HETATM    8  C   UNL     1      -9.991   7.902  66.730  1.00  0.00    -0.333 A  
HETATM    9  C   UNL     1      -9.634   6.583  66.426  1.00  0.00    -0.151 A  
HETATM   10  H   UNL     1      -6.159   5.491  67.962  1.00  0.00     0.000 HD 
BRANCH   7  11
HETATM   11  C   UNL     1      -8.104   4.649  66.449  1.00  0.00    -0.103 C  
HETATM   12  O   UNL     1      -7.554   3.877  67.238  1.00  0.00    -0.074 OA 
BRANCH  11  13
HETATM   13  C   UNL     1      -8.466   4.108  65.113  1.00  0.00    -0.114 A  
HETATM   14  C   UNL     1      -9.304   2.981  65.088  1.00  0.00    -0.133 A  
HETATM   15  C   UNL     1      -9.721   2.433  63.873  1.00  0.00    -0.136 A  
HETATM   16  C   UNL     1      -9.302   3.008  62.675  1.00  0.00    -0.090 A  
HETATM   17  C   UNL     1      -8.436   4.104  62.689  1.00  0.00    -0.087 A  
HETATM   18  C   UNL     1      -7.999   4.637  63.904  1.00  0.00    -0.095 A  
HETATM   19  O   UNL     1      -7.101   5.669  63.897  1.00  0.00    -0.048 OA 
HETATM   20  H   UNL     1      -6.784   6.028  63.077  1.00  0.00     0.000 HD 
ENDBRANCH  11  13
ENDBRANCH   7  11
ENDBRANCH   2   3
TORSDOF 3
ENDMDL
MODEL      256
REMARK 921   NORMALIZED FREE ENERGY PREDICTED BY IDOCK:   -1.98 KCAL/MOL
REMARK 922        TOTAL FREE ENERGY PREDICTED BY IDOCK:   -2.95 KCAL/MOL
REMARK 923 INTER-LIGAND FREE ENERGY PREDICTED BY IDOCK:   -2.26 KCAL/MOL
REMARK 924 INTRA-LIGAND FREE ENERGY PREDICTED BY IDOCK:   -0.69 KCAL/MOL
REMARK 927      BINDING AFFINITY PREDICTED BY RF-SCORE:    0.00 PKD
ROOT
HETATM    1  C   UNL     1     -10.946  10.141  67.941  1.00  0.00    -0.277 C  
HETATM    2  O   UNL     1      -9.536  10.041  67.749  1.00  0.00    -0.146 OA 
ENDROOT
BRANCH   2   3
HETATM    3  C   UNL     1      -9.072   8.763  67.598  1.00  0.00    -0.134 A  
HETATM    4  C   UNL     1      -9.367   7.942  66.509  1.00  0.00    -0.255 A  
HETATM    5  C   UNL     1      -8.908   6.623  66.474  1.00  0.00    -0.139 A  
HETATM    6  O   UNL     1      -9.333   5.838  65.438  1.00  0.00    -0.360 OA 
HETATM    7  C   UNL     1      -8.099   6.116  67.499  1.00  0.00    -0.109 A  
HETATM    8  C   UNL     1      -8.245   8.284  68.613  1.00  0.00    -0.120 A  
HETATM    9  C   UNL     1      -7.765   6.971  68.565  1.00  0.00    -0.120 A  
HETATM   10  H   UNL     1      -9.021   4.941  65.414  1.00  0.00     0.000 HD 
BRANCH   7  11
HETATM   11  C   UNL     1      -7.617   4.709  67.595  1.00  0.00    -0.078 C  
HETATM   12  O   UNL     1      -7.270   4.131  66.562  1.00  0.00    -0.072 OA 
BRANCH  11  13
HETATM   13  C   UNL     1      -7.447   3.970  68.873  1.00  0.00    -0.055 A  
HETATM   14  C   UNL     1      -6.155   3.514  69.179  1.00  0.00    -0.028 A  
HETATM   15  C   UNL     1      -5.904   2.844  70.378  1.00  0.00    -0.018 A  
HETATM   16  C   UNL     1      -6.943   2.625  71.279  1.00  0.00    -0.032 A  
HETATM   17  C   UNL     1      -8.241   3.038  70.966  1.00  0.00    -0.074 A  
HETATM   18  C   UNL     1      -8.497   3.687  69.755  1.00  0.00    -0.053 A  
HETATM   19  O   UNL     1      -9.783   4.026  69.438  1.00  0.00    -0.193 OA 
HETATM   20  H   UNL     1     -10.495   3.834  70.037  1.00  0.00     0.000 HD 
ENDBRANCH  11  13
ENDBRANCH   7  11
ENDBRANCH   2   3
TORSDOF 3
ENDMDL
MODEL      257
REMARK 921   NORMALIZED FREE ENERGY PREDICTED BY IDOCK:    2.21 KCAL/MOL
REMARK 922        TOTAL FREE ENERGY PREDICTED BY IDOCK:    1.97 KCAL/MOL
REMARK 923 INTER-LIGAND FREE ENERGY PREDICTED BY IDOCK:    2.54 KCAL/MOL
REMARK 924 INTRA-LIGAND FREE ENERGY PREDICTED BY IDOCK:   -0.57 KCAL/MOL
REMARK 927      BINDING AFFINITY PREDICTED BY RF-SCORE:    0.00 PKD
ROOT
HETATM    1  C   UNL     1      -5.855  12.797  73.574  1.00  0.00     1.681 C  
HETATM    2  O   UNL     1      -5.136  11.864  72.769  1.00  0.00    -0.342 OA 
ENDROOT
BRANCH   2   3
HETATM    3  C   UNL     1      -5.896  11.212  71.837  1.00  0.00     1.001 A  
HETATM    4  C   UNL     1      -6.554  11.840  70.779  1.00  0.00     1.300 A  
HETATM    5  C   UNL     1      -7.369  11.102  69.916  1.00  0.00     0.282 A  
HETATM    6  O   UNL     1      -8.078  11.798  68.975  1.00  0.00    -0.345 OA 
HETATM    7  C   UNL     1      -7.499   9.716  70.060  1.00  0.00    -0.142 A  
HETATM    8  C   UNL     1      -5.991   9.829  71.979  1.00  0.00     0.257 A  
HETATM    9  C   UNL     1      -6.789   9.088  71.100  1.00  0.00    -0.092 A  
HETATM   10  H   UNL     1      -8.632  11.297  68.389  1.00  0.00     0.000 HD 
BRANCH   7  11
HETATM   11  C   UNL     1      -8.395   8.848  69.244  1.00  0.00    -0.119 C  
HETATM   12  O   UNL     1      -9.555   8.673  69.625  1.00  0.00    -0.167 OA 
BRANCH  11  13
HETATM   13  C   UNL     1      -8.009   8.237  67.946  1.00  0.00    -0.123 A  
HETATM   14  C   UNL     1      -6.675   8.395  67.538  1.00  0.00    -0.063 A  
HETATM   15  C   UNL     1      -6.223   7.820  66.349  1.00  0.00    -0.045 A  
HETATM   16  C   UNL     1      -7.101   7.081  65.560  1.00  0.00    -0.068 A  
HETATM   17  C   UNL     1      -8.441   6.952  65.936  1.00  0.00    -0.147 A  
HETATM   18  C   UNL     1      -8.899   7.549  67.113  1.00  0.00    -0.125 A  
HETATM   19  O   UNL     1     -10.227   7.465  67.432  1.00  0.00    -0.198 OA 
HETATM   20  H   UNL     1     -10.830   6.998  66.867  1.00  0.00     0.000 HD 
ENDBRANCH  11  13
ENDBRANCH   7  11
ENDBRANCH   2   3
TORSDOF 3
ENDMDL
MODEL      258
REMARK 921   NORMALIZED FREE ENERGY PREDICTED BY IDOCK:    2.64 KCAL/MOL
REMARK 922        TOTAL FREE ENERGY PREDICTED BY IDOCK:    2.48 KCAL/MOL
REMARK 923 INTER-LIGAND FREE ENERGY PREDICTED BY IDOCK:    2.43 KCAL/MOL
REMARK 924 INTRA-LIGAND FREE ENERGY PREDICTED BY IDOCK:    0.05 KCAL/MOL
REMARK 927      BINDING AFFINITY PREDICTED BY RF-SCORE:    0.00 PKD
ROOT
HETATM    1  C   UNL     1      -5.464  19.004  64.879  1.00  0.00    -0.211 C  
HETATM    2  O   UNL     1      -5.207  18.606  66.224  1.00  0.00    -0.138 OA 
ENDROOT
BRANCH   2   3
HETATM    3  C   UNL     1      -5.831  17.448  66.603  1.00  0.00    -0.199 A  
HETATM    4  C   UNL     1      -6.894  16.865  65.912  1.00  0.00     0.489 A  
HETATM    5  C   UNL     1      -7.517  15.719  66.413  1.00  0.00     0.490 A  
HETATM    6  O   UNL     1      -8.628  15.269  65.752  1.00  0.00    -0.172 OA 
HETATM    7  C   UNL     1      -7.056  15.102  67.583  1.00  0.00    -0.210 A  
HETATM    8  C   UNL     1      -5.341  16.832  67.753  1.00  0.00    -0.139 A  
HETATM    9  C   UNL     1      -5.950  15.671  68.240  1.00  0.00    -0.117 A  
HETATM   10  H   UNL     1      -9.051  14.491  66.092  1.00  0.00     0.000 HD 
BRANCH   7  11
HETATM   11  C   UNL     1      -7.691  13.924  68.239  1.00  0.00    -0.136 C  
HETATM   12  O   UNL     1      -8.603  14.118  69.046  1.00  0.00    -0.044 OA 
BRANCH  11  13
HETATM   13  C   UNL     1      -7.352  12.512  67.927  1.00  0.00    -0.115 A  
HETATM   14  C   UNL     1      -7.654  11.552  68.907  1.00  0.00    -0.102 A  
HETATM   15  C   UNL     1      -7.401  10.199  68.677  1.00  0.00    -0.082 A  
HETATM   16  C   UNL     1      -6.846   9.794  67.466  1.00  0.00    -0.082 A  
HETATM   17  C   UNL     1      -6.504  10.745  66.500  1.00  0.00    -0.119 A  
HETATM   18  C   UNL     1      -6.734  12.102  66.740  1.00  0.00     0.116 A  
HETATM   19  O   UNL     1      -6.334  13.022  65.810  1.00  0.00     3.200 OA 
HETATM   20  H   UNL     1      -5.915  12.744  65.005  1.00  0.00     0.000 HD 
ENDBRANCH  11  13
ENDBRANCH   7  11
ENDBRANCH   2   3
TORSDOF 3
ENDMDL
MODEL      259
REMARK 921   NORMALIZED FREE ENERGY PREDICTED BY IDOCK:   12.13 KCAL/MOL
REMARK 922        TOTAL FREE ENERGY PREDICTED BY IDOCK:   13.64 KCAL/MOL
REMARK 923 INTER-LIGAND FREE ENERGY PREDICTED BY IDOCK:   13.87 KCAL/MOL
REMARK 924 INTRA-LIGAND FREE ENERGY PREDICTED BY IDOCK:   -0.24 KCAL/MOL
REMARK 927      BINDING AFFINITY PREDICTED BY RF-SCORE:    0.00 PKD
ROOT
HETATM    1  C   UNL     1      -8.948   9.246  72.825  1.00  0.00     1.788 C  
HETATM    2  O   UNL     1      -7.603   9.280  72.354  1.00  0.00    -0.088 OA 
ENDROOT
BRANCH   2   3
HETATM    3  C   UNL     1      -7.240  10.454  71.753  1.00  0.00     2.992 A  
HETATM    4  C   UNL     1      -6.804  11.588  72.440  1.00  0.00     6.779 A  
HETATM    5  C   UNL     1      -6.523  12.769  71.748  1.00  0.00     3.178 A  
HETATM    6  O   UNL     1      -6.216  13.875  72.494  1.00  0.00    -0.340 OA 
HETATM    7  C   UNL     1      -6.619  12.825  70.352  1.00  0.00     0.652 A  
HETATM    8  C   UNL     1      -7.314  10.483  70.362  1.00  0.00     0.371 A  
HETATM    9  C   UNL     1      -7.010  11.659  69.668  1.00  0.00     0.055 A  
HETATM   10  H   UNL     1      -6.026  14.677  72.023  1.00  0.00     0.000 HD 
BRANCH   7  11
HETATM   11  C   UNL     1      -6.414  14.048  69.526  1.00  0.00    -0.122 C  
HETATM   12  O   UNL     1      -5.331  14.635  69.597  1.00  0.00    -0.092 OA 
BRANCH  11  13
HETATM   13  C   UNL     1      -7.404  14.571  68.550  1.00  0.00    -0.120 A  
HETATM   14  C   UNL     1      -8.264  13.637  67.951  1.00  0.00    -0.171 A  
HETATM   15  C   UNL     1      -9.247  14.053  67.050  1.00  0.00    -0.262 A  
HETATM   16  C   UNL     1      -9.377  15.405  66.742  1.00  0.00    -0.267 A  
HETATM   17  C   UNL     1      -8.499  16.337  67.301  1.00  0.00    -0.199 A  
HETATM   18  C   UNL     1      -7.500  15.919  68.183  1.00  0.00    -0.127 A  
HETATM   19  O   UNL     1      -6.611  16.837  68.670  1.00  0.00    -0.155 OA 
HETATM   20  H   UNL     1      -6.676  17.752  68.421  1.00  0.00     0.000 HD 
ENDBRANCH  11  13
ENDBRANCH   7  11
ENDBRANCH   2   3
TORSDOF 3
ENDMDL
